MODEL 1
REMARK VINA RESULT:    -7.107      0.000      0.000
REMARK INTER + INTRA:         -10.594
REMARK INTER:                 -10.268
REMARK INTRA:                  -0.326
REMARK UNBOUND:                -0.579
REMARK  Name = 
REMARK  8 active torsions:
REMARK  status: ('A' for Active; 'I' for Inactive)
REMARK    1  A    between atoms: C_1  and  C_2
REMARK    2  A    between atoms: C_2  and  C_3
REMARK    3  A    between atoms: C_2  and  S_21
REMARK    4  A    between atoms: C_7  and  N_9
REMARK    5  A    between atoms: C_10  and  C_11
REMARK    6  A    between atoms: C_14  and  C_15
REMARK    7  A    between atoms: S_21  and  C_22
REMARK    8  A    between atoms: N_26  and  C_27
REMARK                            x       y       z     vdW  Elec       q    Type
REMARK                         _______ _______ _______ _____ _____    ______ ____
ROOT
ATOM      1  C   UNL     1       0.056  10.617  19.913  0.00  0.00    -0.030 A 
ATOM      2  C   UNL     1      -0.129  10.789  21.288  0.00  0.00    -0.039 A 
ATOM      3  C   UNL     1       0.393   9.843  22.151  0.00  0.00    +0.030 A 
ATOM      4  N   UNL     1       1.072   8.749  21.748  0.00  0.00    -0.240 NA
ATOM      5  C   UNL     1       1.241   8.577  20.420  0.00  0.00    +0.125 A 
ATOM      6  C   UNL     1       0.751   9.474  19.481  0.00  0.00    -0.017 A 
ATOM      7  H   UNL     1      -0.675  11.636  21.689  0.00  0.00    +0.064 HD
ATOM      8  H   UNL     1       0.271   9.942  23.226  0.00  0.00    +0.083 HD
ATOM      9  H   UNL     1       0.891   9.313  18.418  0.00  0.00    +0.065 HD
ENDROOT
BRANCH   5  10
ATOM     10  N   UNL     1       1.944   7.412  20.119  0.00  0.00    -0.265 N 
ATOM     11  C   UNL     1       2.591   7.077  18.950  0.00  0.00    +0.268 C 
ATOM     12  O   UNL     1       2.668   7.803  17.964  0.00  0.00    -0.268 OA
ATOM     13  H   UNL     1       1.983   6.797  20.918  0.00  0.00    +0.157 HD
BRANCH  11  14
ATOM     14  C   UNL     1       3.225   5.739  18.956  0.00  0.00    +0.133 A 
ATOM     15  C   UNL     1       4.558   5.457  19.205  0.00  0.00    +0.008 A 
ATOM     16  S   UNL     1       4.855   3.771  19.120  0.00  0.00    -0.071 S 
ATOM     17  C   UNL     1       3.190   3.495  18.772  0.00  0.00    +0.182 A 
ATOM     18  N   UNL     1       2.457   4.595  18.717  0.00  0.00    -0.231 NA
ATOM     19  H   UNL     1       5.370   6.129  19.445  0.00  0.00    +0.072 HD
BRANCH  17  20
ATOM     20  C   UNL     1       2.709   2.085  18.564  0.00  0.00    +0.441 C 
ATOM     21  F   UNL     1       3.704   1.173  18.744  0.00  0.00    -0.164 F 
ATOM     22  F   UNL     1       1.708   1.733  19.413  0.00  0.00    -0.164 F 
ATOM     23  F   UNL     1       2.232   1.889  17.303  0.00  0.00    -0.164 F 
ENDBRANCH  17  20
ENDBRANCH  11  14
ENDBRANCH   5  10
BRANCH   1  24
ATOM     24  C   UNL     1      -0.493  11.597  18.885  0.00  0.00    +0.035 C 
ATOM     25  H   UNL     1      -0.157  11.270  17.894  0.00  0.00    +0.046 HD
BRANCH  24  26
ATOM     26  C   UNL     1       0.022  13.022  19.108  0.00  0.00    -0.049 C 
ATOM     27  H   UNL     1      -0.761  13.649  19.550  0.00  0.00    +0.024 HD
ATOM     28  H   UNL     1       0.874  13.040  19.797  0.00  0.00    +0.024 HD
ATOM     29  H   UNL     1       0.342  13.505  18.179  0.00  0.00    +0.024 HD
ENDBRANCH  24  26
BRANCH  24  30
ATOM     30  S   UNL     1      -2.329  11.556  18.923  0.00  0.00    -0.078 S 
BRANCH  30  31
ATOM     31  C   UNL     1      -2.689  10.884  17.373  0.00  0.00    +0.192 A 
ATOM     32  N   UNL     1      -1.930  10.086  16.659  0.00  0.00    -0.123 NA
ATOM     33  N   UNL     1      -2.604   9.800  15.492  0.00  0.00    -0.137 NA
ATOM     34  C   UNL     1      -3.755  10.430  15.535  0.00  0.00    +0.120 A 
ATOM     35  N   UNL     1      -3.852  11.127  16.701  0.00  0.00    -0.312 N 
ATOM     36  H   UNL     1      -4.519  10.410  14.770  0.00  0.00    +0.105 HD
BRANCH  35  37
ATOM     37  C   UNL     1      -4.967  11.938  17.110  0.00  0.00    +0.015 C 
ATOM     38  H   UNL     1      -5.491  12.311  16.226  0.00  0.00    +0.046 HD
ATOM     39  H   UNL     1      -4.593  12.782  17.694  0.00  0.00    +0.046 HD
ATOM     40  H   UNL     1      -5.649  11.325  17.706  0.00  0.00    +0.046 HD
ENDBRANCH  35  37
ENDBRANCH  30  31
ENDBRANCH  24  30
ENDBRANCH   1  24
TORSDOF 8
ENDMDL
MODEL 2
REMARK VINA RESULT:    -7.017      2.466      2.839
REMARK INTER + INTRA:         -10.467
REMARK INTER:                 -10.152
REMARK INTRA:                  -0.315
REMARK UNBOUND:                -0.579
REMARK  Name = 
REMARK  8 active torsions:
REMARK  status: ('A' for Active; 'I' for Inactive)
REMARK    1  A    between atoms: C_1  and  C_2
REMARK    2  A    between atoms: C_2  and  C_3
REMARK    3  A    between atoms: C_2  and  S_21
REMARK    4  A    between atoms: C_7  and  N_9
REMARK    5  A    between atoms: C_10  and  C_11
REMARK    6  A    between atoms: C_14  and  C_15
REMARK    7  A    between atoms: S_21  and  C_22
REMARK    8  A    between atoms: N_26  and  C_27
REMARK                            x       y       z     vdW  Elec       q    Type
REMARK                         _______ _______ _______ _____ _____    ______ ____
ROOT
ATOM      1  C   UNL     1       0.158  10.467  19.297  0.00  0.00    -0.030 A 
ATOM      2  C   UNL     1      -0.035  10.281  20.668  0.00  0.00    -0.039 A 
ATOM      3  C   UNL     1       0.634   9.246  21.298  0.00  0.00    +0.030 A 
ATOM      4  N   UNL     1       1.465   8.392  20.665  0.00  0.00    -0.240 NA
ATOM      5  C   UNL     1       1.643   8.566  19.338  0.00  0.00    +0.125 A 
ATOM      6  C   UNL     1       1.012   9.576  18.626  0.00  0.00    -0.017 A 
ATOM      7  H   UNL     1      -0.698  10.918  21.244  0.00  0.00    +0.064 HD
ATOM      8  H   UNL     1       0.511   9.069  22.362  0.00  0.00    +0.083 HD
ATOM      9  H   UNL     1       1.163   9.694  17.558  0.00  0.00    +0.065 HD
ENDROOT
BRANCH   5  10
ATOM     10  N   UNL     1       2.509   7.622  18.789  0.00  0.00    -0.265 N 
ATOM     11  C   UNL     1       2.625   6.284  19.091  0.00  0.00    +0.268 C 
ATOM     12  O   UNL     1       1.929   5.692  19.911  0.00  0.00    -0.268 OA
ATOM     13  H   UNL     1       3.063   8.029  18.051  0.00  0.00    +0.157 HD
BRANCH  11  14
ATOM     14  C   UNL     1       3.672   5.566  18.329  0.00  0.00    +0.133 A 
ATOM     15  C   UNL     1       3.478   4.526  17.435  0.00  0.00    +0.008 A 
ATOM     16  S   UNL     1       4.969   4.000  16.773  0.00  0.00    -0.071 S 
ATOM     17  C   UNL     1       5.801   5.194  17.696  0.00  0.00    +0.182 A 
ATOM     18  N   UNL     1       5.014   5.938  18.457  0.00  0.00    -0.231 NA
ATOM     19  H   UNL     1       2.559   4.054  17.119  0.00  0.00    +0.072 HD
BRANCH  17  20
ATOM     20  C   UNL     1       7.297   5.302  17.576  0.00  0.00    +0.441 C 
ATOM     21  F   UNL     1       7.918   5.172  18.780  0.00  0.00    -0.164 F 
ATOM     22  F   UNL     1       7.836   4.358  16.761  0.00  0.00    -0.164 F 
ATOM     23  F   UNL     1       7.682   6.509  17.073  0.00  0.00    -0.164 F 
ENDBRANCH  17  20
ENDBRANCH  11  14
ENDBRANCH   5  10
BRANCH   1  24
ATOM     24  C   UNL     1      -0.544  11.570  18.516  0.00  0.00    +0.035 C 
ATOM     25  H   UNL     1      -0.282  11.452  17.457  0.00  0.00    +0.046 HD
BRANCH  24  26
ATOM     26  C   UNL     1      -0.099  12.968  18.956  0.00  0.00    -0.049 C 
ATOM     27  H   UNL     1      -0.797  13.728  18.584  0.00  0.00    +0.024 HD
ATOM     28  H   UNL     1      -0.076  13.059  20.047  0.00  0.00    +0.024 HD
ATOM     29  H   UNL     1       0.897  13.230  18.584  0.00  0.00    +0.024 HD
ENDBRANCH  24  26
BRANCH  24  30
ATOM     30  S   UNL     1      -2.362  11.381  18.692  0.00  0.00    -0.078 S 
BRANCH  30  31
ATOM     31  C   UNL     1      -2.806  10.836  17.115  0.00  0.00    +0.192 A 
ATOM     32  N   UNL     1      -2.104  10.069  16.314  0.00  0.00    -0.123 NA
ATOM     33  N   UNL     1      -2.832   9.891  15.159  0.00  0.00    -0.137 NA
ATOM     34  C   UNL     1      -3.958  10.553  15.294  0.00  0.00    +0.120 A 
ATOM     35  N   UNL     1      -3.985  11.166  16.511  0.00  0.00    -0.312 N 
ATOM     36  H   UNL     1      -4.752  10.615  14.563  0.00  0.00    +0.105 HD
BRANCH  35  37
ATOM     37  C   UNL     1      -5.054  11.980  17.023  0.00  0.00    +0.015 C 
ATOM     38  H   UNL     1      -4.640  12.772  17.653  0.00  0.00    +0.046 HD
ATOM     39  H   UNL     1      -5.720  11.352  17.619  0.00  0.00    +0.046 HD
ATOM     40  H   UNL     1      -5.591  12.426  16.182  0.00  0.00    +0.046 HD
ENDBRANCH  35  37
ENDBRANCH  30  31
ENDBRANCH  24  30
ENDBRANCH   1  24
TORSDOF 8
ENDMDL
MODEL 3
REMARK VINA RESULT:    -6.986      4.354      8.858
REMARK INTER + INTRA:         -10.424
REMARK INTER:                  -9.805
REMARK INTRA:                  -0.619
REMARK UNBOUND:                -0.579
REMARK  Name = 
REMARK  8 active torsions:
REMARK  status: ('A' for Active; 'I' for Inactive)
REMARK    1  A    between atoms: C_1  and  C_2
REMARK    2  A    between atoms: C_2  and  C_3
REMARK    3  A    between atoms: C_2  and  S_21
REMARK    4  A    between atoms: C_7  and  N_9
REMARK    5  A    between atoms: C_10  and  C_11
REMARK    6  A    between atoms: C_14  and  C_15
REMARK    7  A    between atoms: S_21  and  C_22
REMARK    8  A    between atoms: N_26  and  C_27
REMARK                            x       y       z     vdW  Elec       q    Type
REMARK                         _______ _______ _______ _____ _____    ______ ____
ROOT
ATOM      1  C   UNL     1       4.338   4.914  16.852  0.00  0.00    -0.030 A 
ATOM      2  C   UNL     1       3.617   3.732  17.039  0.00  0.00    -0.039 A 
ATOM      3  C   UNL     1       2.476   3.769  17.820  0.00  0.00    +0.030 A 
ATOM      4  N   UNL     1       2.012   4.883  18.425  0.00  0.00    -0.240 NA
ATOM      5  C   UNL     1       2.715   6.022  18.252  0.00  0.00    +0.125 A 
ATOM      6  C   UNL     1       3.871   6.078  17.486  0.00  0.00    -0.017 A 
ATOM      7  H   UNL     1       3.932   2.794  16.597  0.00  0.00    +0.064 HD
ATOM      8  H   UNL     1       1.887   2.871  17.989  0.00  0.00    +0.083 HD
ATOM      9  H   UNL     1       4.426   7.003  17.367  0.00  0.00    +0.065 HD
ENDROOT
BRANCH   5  10
ATOM     10  N   UNL     1       2.152   7.103  18.929  0.00  0.00    -0.265 N 
ATOM     11  C   UNL     1       1.977   8.395  18.487  0.00  0.00    +0.268 C 
ATOM     12  O   UNL     1       2.283   8.796  17.369  0.00  0.00    -0.268 OA
ATOM     13  H   UNL     1       1.811   6.822  19.835  0.00  0.00    +0.157 HD
BRANCH  11  14
ATOM     14  C   UNL     1       1.362   9.309  19.477  0.00  0.00    +0.133 A 
ATOM     15  C   UNL     1       1.139  10.667  19.323  0.00  0.00    +0.008 A 
ATOM     16  S   UNL     1       0.393  11.329  20.716  0.00  0.00    -0.071 S 
ATOM     17  C   UNL     1       0.387   9.771  21.454  0.00  0.00    +0.182 A 
ATOM     18  N   UNL     1       0.915   8.815  20.707  0.00  0.00    -0.231 NA
ATOM     19  H   UNL     1       1.352  11.306  18.478  0.00  0.00    +0.072 HD
BRANCH  17  20
ATOM     20  C   UNL     1      -0.192   9.616  22.833  0.00  0.00    +0.441 C 
ATOM     21  F   UNL     1      -1.068   8.577  22.907  0.00  0.00    -0.164 F 
ATOM     22  F   UNL     1       0.751   9.393  23.786  0.00  0.00    -0.164 F 
ATOM     23  F   UNL     1      -0.879  10.726  23.225  0.00  0.00    -0.164 F 
ENDBRANCH  17  20
ENDBRANCH  11  14
ENDBRANCH   5  10
BRANCH   1  24
ATOM     24  C   UNL     1       5.612   4.971  16.020  0.00  0.00    +0.035 C 
ATOM     25  H   UNL     1       5.711   5.988  15.622  0.00  0.00    +0.046 HD
BRANCH  24  26
ATOM     26  C   UNL     1       5.575   4.004  14.832  0.00  0.00    -0.049 C 
ATOM     27  H   UNL     1       4.568   3.586  14.709  0.00  0.00    +0.024 HD
ATOM     28  H   UNL     1       5.829   4.509  13.894  0.00  0.00    +0.024 HD
ATOM     29  H   UNL     1       6.266   3.163  14.950  0.00  0.00    +0.024 HD
ENDBRANCH  24  26
BRANCH  24  30
ATOM     30  S   UNL     1       7.059   4.622  17.096  0.00  0.00    -0.078 S 
BRANCH  30  31
ATOM     31  C   UNL     1       7.543   6.217  17.549  0.00  0.00    +0.192 A 
ATOM     32  N   UNL     1       7.508   7.298  16.805  0.00  0.00    -0.123 NA
ATOM     33  N   UNL     1       7.989   8.343  17.561  0.00  0.00    -0.137 NA
ATOM     34  C   UNL     1       8.300   7.866  18.745  0.00  0.00    +0.120 A 
ATOM     35  N   UNL     1       8.036   6.530  18.783  0.00  0.00    -0.312 N 
ATOM     36  H   UNL     1       8.704   8.433  19.573  0.00  0.00    +0.105 HD
BRANCH  35  37
ATOM     37  C   UNL     1       8.242   5.661  19.909  0.00  0.00    +0.015 C 
ATOM     38  H   UNL     1       7.874   4.660  19.670  0.00  0.00    +0.046 HD
ATOM     39  H   UNL     1       7.689   6.057  20.765  0.00  0.00    +0.046 HD
ATOM     40  H   UNL     1       9.312   5.614  20.127  0.00  0.00    +0.046 HD
ENDBRANCH  35  37
ENDBRANCH  30  31
ENDBRANCH  24  30
ENDBRANCH   1  24
TORSDOF 8
ENDMDL
MODEL 4
REMARK VINA RESULT:    -6.890      2.274      2.530
REMARK INTER + INTRA:         -10.288
REMARK INTER:                  -9.812
REMARK INTRA:                  -0.477
REMARK UNBOUND:                -0.579
REMARK  Name = 
REMARK  8 active torsions:
REMARK  status: ('A' for Active; 'I' for Inactive)
REMARK    1  A    between atoms: C_1  and  C_2
REMARK    2  A    between atoms: C_2  and  C_3
REMARK    3  A    between atoms: C_2  and  S_21
REMARK    4  A    between atoms: C_7  and  N_9
REMARK    5  A    between atoms: C_10  and  C_11
REMARK    6  A    between atoms: C_14  and  C_15
REMARK    7  A    between atoms: S_21  and  C_22
REMARK    8  A    between atoms: N_26  and  C_27
REMARK                            x       y       z     vdW  Elec       q    Type
REMARK                         _______ _______ _______ _____ _____    ______ ____
ROOT
ATOM      1  C   UNL     1       0.176  10.152  19.444  0.00  0.00    -0.030 A 
ATOM      2  C   UNL     1      -0.301   9.744  20.692  0.00  0.00    -0.039 A 
ATOM      3  C   UNL     1       0.287   8.650  21.301  0.00  0.00    +0.030 A 
ATOM      4  N   UNL     1       1.300   7.941  20.760  0.00  0.00    -0.240 NA
ATOM      5  C   UNL     1       1.754   8.330  19.550  0.00  0.00    +0.125 A 
ATOM      6  C   UNL     1       1.222   9.414  18.865  0.00  0.00    -0.017 A 
ATOM      7  H   UNL     1      -1.121  10.254  21.186  0.00  0.00    +0.064 HD
ATOM      8  H   UNL     1      -0.055   8.302  22.272  0.00  0.00    +0.083 HD
ATOM      9  H   UNL     1       1.596   9.705  17.889  0.00  0.00    +0.065 HD
ENDROOT
BRANCH   5  10
ATOM     10  N   UNL     1       2.789   7.521  19.084  0.00  0.00    -0.265 N 
ATOM     11  C   UNL     1       2.813   6.151  18.947  0.00  0.00    +0.268 C 
ATOM     12  O   UNL     1       1.870   5.409  19.204  0.00  0.00    -0.268 OA
ATOM     13  H   UNL     1       3.574   8.078  18.784  0.00  0.00    +0.157 HD
BRANCH  11  14
ATOM     14  C   UNL     1       4.091   5.603  18.439  0.00  0.00    +0.133 A 
ATOM     15  C   UNL     1       5.196   5.245  19.194  0.00  0.00    +0.008 A 
ATOM     16  S   UNL     1       6.454   4.646  18.196  0.00  0.00    -0.071 S 
ATOM     17  C   UNL     1       5.461   4.876  16.806  0.00  0.00    +0.182 A 
ATOM     18  N   UNL     1       4.264   5.375  17.070  0.00  0.00    -0.231 NA
ATOM     19  H   UNL     1       5.338   5.284  20.265  0.00  0.00    +0.072 HD
BRANCH  17  20
ATOM     20  C   UNL     1       6.001   4.508  15.451  0.00  0.00    +0.441 C 
ATOM     21  F   UNL     1       7.268   4.968  15.263  0.00  0.00    -0.164 F 
ATOM     22  F   UNL     1       6.043   3.166  15.240  0.00  0.00    -0.164 F 
ATOM     23  F   UNL     1       5.249   5.033  14.443  0.00  0.00    -0.164 F 
ENDBRANCH  17  20
ENDBRANCH  11  14
ENDBRANCH   5  10
BRANCH   1  24
ATOM     24  C   UNL     1      -0.416  11.336  18.690  0.00  0.00    +0.035 C 
ATOM     25  H   UNL     1      -0.163  11.221  17.629  0.00  0.00    +0.046 HD
BRANCH  24  26
ATOM     26  C   UNL     1       0.157  12.674  19.166  0.00  0.00    -0.049 C 
ATOM     27  H   UNL     1       0.835  12.521  20.014  0.00  0.00    +0.024 HD
ATOM     28  H   UNL     1       0.735  13.168  18.378  0.00  0.00    +0.024 HD
ATOM     29  H   UNL     1      -0.620  13.374  19.491  0.00  0.00    +0.024 HD
ENDBRANCH  24  26
BRANCH  24  30
ATOM     30  S   UNL     1      -2.245  11.314  18.860  0.00  0.00    -0.078 S 
BRANCH  30  31
ATOM     31  C   UNL     1      -2.730  10.781  17.290  0.00  0.00    +0.192 A 
ATOM     32  N   UNL     1      -2.049  10.020  16.465  0.00  0.00    -0.123 NA
ATOM     33  N   UNL     1      -2.807   9.851  15.328  0.00  0.00    -0.137 NA
ATOM     34  C   UNL     1      -3.929  10.512  15.498  0.00  0.00    +0.120 A 
ATOM     35  N   UNL     1      -3.924  11.115  16.720  0.00  0.00    -0.312 N 
ATOM     36  H   UNL     1      -4.741  10.578  14.788  0.00  0.00    +0.105 HD
BRANCH  35  37
ATOM     37  C   UNL     1      -4.979  11.924  17.266  0.00  0.00    +0.015 C 
ATOM     38  H   UNL     1      -4.897  11.945  18.355  0.00  0.00    +0.046 HD
ATOM     39  H   UNL     1      -5.940  11.488  16.982  0.00  0.00    +0.046 HD
ATOM     40  H   UNL     1      -4.883  12.940  16.873  0.00  0.00    +0.046 HD
ENDBRANCH  35  37
ENDBRANCH  30  31
ENDBRANCH  24  30
ENDBRANCH   1  24
TORSDOF 8
ENDMDL
MODEL 5
REMARK VINA RESULT:    -6.873      4.658      8.885
REMARK INTER + INTRA:         -10.265
REMARK INTER:                  -9.637
REMARK INTRA:                  -0.628
REMARK UNBOUND:                -0.579
REMARK  Name = 
REMARK  8 active torsions:
REMARK  status: ('A' for Active; 'I' for Inactive)
REMARK    1  A    between atoms: C_1  and  C_2
REMARK    2  A    between atoms: C_2  and  C_3
REMARK    3  A    between atoms: C_2  and  S_21
REMARK    4  A    between atoms: C_7  and  N_9
REMARK    5  A    between atoms: C_10  and  C_11
REMARK    6  A    between atoms: C_14  and  C_15
REMARK    7  A    between atoms: S_21  and  C_22
REMARK    8  A    between atoms: N_26  and  C_27
REMARK                            x       y       z     vdW  Elec       q    Type
REMARK                         _______ _______ _______ _____ _____    ______ ____
ROOT
ATOM      1  C   UNL     1       4.773   4.556  17.319  0.00  0.00    -0.030 A 
ATOM      2  C   UNL     1       3.923   3.452  17.219  0.00  0.00    -0.039 A 
ATOM      3  C   UNL     1       2.626   3.569  17.684  0.00  0.00    +0.030 A 
ATOM      4  N   UNL     1       2.123   4.692  18.240  0.00  0.00    -0.240 NA
ATOM      5  C   UNL     1       2.948   5.755  18.346  0.00  0.00    +0.125 A 
ATOM      6  C   UNL     1       4.264   5.727  17.907  0.00  0.00    -0.017 A 
ATOM      7  H   UNL     1       4.257   2.510  16.796  0.00  0.00    +0.064 HD
ATOM      8  H   UNL     1       1.934   2.733  17.624  0.00  0.00    +0.083 HD
ATOM      9  H   UNL     1       4.913   6.591  18.009  0.00  0.00    +0.065 HD
ENDROOT
BRANCH   5  10
ATOM     10  N   UNL     1       2.329   6.851  18.944  0.00  0.00    -0.265 N 
ATOM     11  C   UNL     1       2.180   8.128  18.449  0.00  0.00    +0.268 C 
ATOM     12  O   UNL     1       2.567   8.497  17.345  0.00  0.00    -0.268 OA
ATOM     13  H   UNL     1       1.921   6.597  19.830  0.00  0.00    +0.157 HD
BRANCH  11  14
ATOM     14  C   UNL     1       1.485   9.067  19.360  0.00  0.00    +0.133 A 
ATOM     15  C   UNL     1       1.151  10.384  19.092  0.00  0.00    +0.008 A 
ATOM     16  S   UNL     1       0.345  11.096  20.427  0.00  0.00    -0.071 S 
ATOM     17  C   UNL     1       0.465   9.610  21.292  0.00  0.00    +0.182 A 
ATOM     18  N   UNL     1       1.075   8.642  20.628  0.00  0.00    -0.231 NA
ATOM     19  H   UNL     1       1.315  10.966  18.196  0.00  0.00    +0.072 HD
BRANCH  17  20
ATOM     20  C   UNL     1      -0.107   9.523  22.681  0.00  0.00    +0.441 C 
ATOM     21  F   UNL     1       0.857   9.319  23.620  0.00  0.00    -0.164 F 
ATOM     22  F   UNL     1      -0.775  10.647  23.054  0.00  0.00    -0.164 F 
ATOM     23  F   UNL     1      -0.989   8.492  22.805  0.00  0.00    -0.164 F 
ENDBRANCH  17  20
ENDBRANCH  11  14
ENDBRANCH   5  10
BRANCH   1  24
ATOM     24  C   UNL     1       6.220   4.519  16.847  0.00  0.00    +0.035 C 
ATOM     25  H   UNL     1       6.423   3.514  16.457  0.00  0.00    +0.046 HD
BRANCH  24  26
ATOM     26  C   UNL     1       7.210   4.788  17.984  0.00  0.00    -0.049 C 
ATOM     27  H   UNL     1       6.928   5.696  18.532  0.00  0.00    +0.024 HD
ATOM     28  H   UNL     1       7.224   3.967  18.709  0.00  0.00    +0.024 HD
ATOM     29  H   UNL     1       8.236   4.928  17.627  0.00  0.00    +0.024 HD
ENDBRANCH  24  26
BRANCH  24  30
ATOM     30  S   UNL     1       6.449   5.730  15.485  0.00  0.00    -0.078 S 
BRANCH  30  31
ATOM     31  C   UNL     1       6.350   4.709  14.096  0.00  0.00    +0.192 A 
ATOM     32  N   UNL     1       5.453   3.781  13.856  0.00  0.00    -0.123 NA
ATOM     33  N   UNL     1       5.755   3.210  12.640  0.00  0.00    -0.137 NA
ATOM     34  C   UNL     1       6.826   3.812  12.175  0.00  0.00    +0.120 A 
ATOM     35  N   UNL     1       7.237   4.763  13.060  0.00  0.00    -0.312 N 
ATOM     36  H   UNL     1       7.319   3.598  11.237  0.00  0.00    +0.105 HD
BRANCH  35  37
ATOM     37  C   UNL     1       8.372   5.631  12.900  0.00  0.00    +0.015 C 
ATOM     38  H   UNL     1       8.035   6.612  12.552  0.00  0.00    +0.046 HD
ATOM     39  H   UNL     1       9.047   5.195  12.160  0.00  0.00    +0.046 HD
ATOM     40  H   UNL     1       8.872   5.739  13.866  0.00  0.00    +0.046 HD
ENDBRANCH  35  37
ENDBRANCH  30  31
ENDBRANCH  24  30
ENDBRANCH   1  24
TORSDOF 8
ENDMDL
MODEL 6
REMARK VINA RESULT:    -6.827      1.738      2.100
REMARK INTER + INTRA:         -10.200
REMARK INTER:                  -9.828
REMARK INTRA:                  -0.372
REMARK UNBOUND:                -0.579
REMARK  Name = 
REMARK  8 active torsions:
REMARK  status: ('A' for Active; 'I' for Inactive)
REMARK    1  A    between atoms: C_1  and  C_2
REMARK    2  A    between atoms: C_2  and  C_3
REMARK    3  A    between atoms: C_2  and  S_21
REMARK    4  A    between atoms: C_7  and  N_9
REMARK    5  A    between atoms: C_10  and  C_11
REMARK    6  A    between atoms: C_14  and  C_15
REMARK    7  A    between atoms: S_21  and  C_22
REMARK    8  A    between atoms: N_26  and  C_27
REMARK                            x       y       z     vdW  Elec       q    Type
REMARK                         _______ _______ _______ _____ _____    ______ ____
ROOT
ATOM      1  C   UNL     1       0.112  11.452  21.264  0.00  0.00    -0.030 A 
ATOM      2  C   UNL     1      -0.600  11.341  22.461  0.00  0.00    -0.039 A 
ATOM      3  C   UNL     1      -0.603  10.125  23.121  0.00  0.00    +0.030 A 
ATOM      4  N   UNL     1       0.039   9.024  22.675  0.00  0.00    -0.240 NA
ATOM      5  C   UNL     1       0.718   9.129  21.514  0.00  0.00    +0.125 A 
ATOM      6  C   UNL     1       0.775  10.309  20.785  0.00  0.00    -0.017 A 
ATOM      7  H   UNL     1      -1.152  12.176  22.878  0.00  0.00    +0.064 HD
ATOM      8  H   UNL     1      -1.144   9.998  24.054  0.00  0.00    +0.083 HD
ATOM      9  H   UNL     1       1.321  10.370  19.848  0.00  0.00    +0.065 HD
ENDROOT
BRANCH   5  10
ATOM     10  N   UNL     1       1.331   7.933  21.145  0.00  0.00    -0.265 N 
ATOM     11  C   UNL     1       1.910   7.600  19.940  0.00  0.00    +0.268 C 
ATOM     12  O   UNL     1       1.997   8.356  18.977  0.00  0.00    -0.268 OA
ATOM     13  H   UNL     1       1.359   7.288  21.919  0.00  0.00    +0.157 HD
BRANCH  11  14
ATOM     14  C   UNL     1       2.454   6.225  19.874  0.00  0.00    +0.133 A 
ATOM     15  C   UNL     1       3.574   5.812  19.172  0.00  0.00    +0.008 A 
ATOM     16  S   UNL     1       3.847   4.133  19.386  0.00  0.00    -0.071 S 
ATOM     17  C   UNL     1       2.470   4.040  20.417  0.00  0.00    +0.182 A 
ATOM     18  N   UNL     1       1.841   5.191  20.589  0.00  0.00    -0.231 NA
ATOM     19  H   UNL     1       4.254   6.389  18.562  0.00  0.00    +0.072 HD
BRANCH  17  20
ATOM     20  C   UNL     1       2.098   2.714  21.024  0.00  0.00    +0.441 C 
ATOM     21  F   UNL     1       1.917   1.751  20.080  0.00  0.00    -0.164 F 
ATOM     22  F   UNL     1       3.038   2.239  21.883  0.00  0.00    -0.164 F 
ATOM     23  F   UNL     1       0.934   2.785  21.729  0.00  0.00    -0.164 F 
ENDBRANCH  17  20
ENDBRANCH  11  14
ENDBRANCH   5  10
BRANCH   1  24
ATOM     24  C   UNL     1       0.164  12.744  20.461  0.00  0.00    +0.035 C 
ATOM     25  H   UNL     1       0.613  12.518  19.486  0.00  0.00    +0.046 HD
BRANCH  24  26
ATOM     26  C   UNL     1       1.027  13.815  21.137  0.00  0.00    -0.049 C 
ATOM     27  H   UNL     1       0.898  14.783  20.638  0.00  0.00    +0.024 HD
ATOM     28  H   UNL     1       0.747  13.955  22.186  0.00  0.00    +0.024 HD
ATOM     29  H   UNL     1       2.095  13.574  21.111  0.00  0.00    +0.024 HD
ENDBRANCH  24  26
BRANCH  24  30
ATOM     30  S   UNL     1      -1.544  13.362  20.189  0.00  0.00    -0.078 S 
BRANCH  30  31
ATOM     31  C   UNL     1      -2.115  12.272  18.977  0.00  0.00    +0.192 A 
ATOM     32  N   UNL     1      -1.401  11.661  18.060  0.00  0.00    -0.123 NA
ATOM     33  N   UNL     1      -2.258  10.895  17.303  0.00  0.00    -0.137 NA
ATOM     34  C   UNL     1      -3.469  11.060  17.785  0.00  0.00    +0.120 A 
ATOM     35  N   UNL     1      -3.426  11.920  18.841  0.00  0.00    -0.312 N 
ATOM     36  H   UNL     1      -4.370  10.593  17.414  0.00  0.00    +0.105 HD
BRANCH  35  37
ATOM     37  C   UNL     1      -4.551  12.345  19.629  0.00  0.00    +0.015 C 
ATOM     38  H   UNL     1      -4.631  13.434  19.596  0.00  0.00    +0.046 HD
ATOM     39  H   UNL     1      -4.398  12.023  20.662  0.00  0.00    +0.046 HD
ATOM     40  H   UNL     1      -5.460  11.900  19.215  0.00  0.00    +0.046 HD
ENDBRANCH  35  37
ENDBRANCH  30  31
ENDBRANCH  24  30
ENDBRANCH   1  24
TORSDOF 8
ENDMDL
MODEL 7
REMARK VINA RESULT:    -6.690      3.343      4.418
REMARK INTER + INTRA:         -10.007
REMARK INTER:                  -9.342
REMARK INTRA:                  -0.665
REMARK UNBOUND:                -0.579
REMARK  Name = 
REMARK  8 active torsions:
REMARK  status: ('A' for Active; 'I' for Inactive)
REMARK    1  A    between atoms: C_1  and  C_2
REMARK    2  A    between atoms: C_2  and  C_3
REMARK    3  A    between atoms: C_2  and  S_21
REMARK    4  A    between atoms: C_7  and  N_9
REMARK    5  A    between atoms: C_10  and  C_11
REMARK    6  A    between atoms: C_14  and  C_15
REMARK    7  A    between atoms: S_21  and  C_22
REMARK    8  A    between atoms: N_26  and  C_27
REMARK                            x       y       z     vdW  Elec       q    Type
REMARK                         _______ _______ _______ _____ _____    ______ ____
ROOT
ATOM      1  C   UNL     1      -0.243  10.848  18.613  0.00  0.00    -0.030 A 
ATOM      2  C   UNL     1       0.560  11.991  18.664  0.00  0.00    -0.039 A 
ATOM      3  C   UNL     1       1.912  11.863  18.400  0.00  0.00    +0.030 A 
ATOM      4  N   UNL     1       2.514  10.692  18.100  0.00  0.00    -0.240 NA
ATOM      5  C   UNL     1       1.739   9.588  18.061  0.00  0.00    +0.125 A 
ATOM      6  C   UNL     1       0.375   9.622  18.313  0.00  0.00    -0.017 A 
ATOM      7  H   UNL     1       0.154  12.965  18.911  0.00  0.00    +0.064 HD
ATOM      8  H   UNL     1       2.570  12.727  18.429  0.00  0.00    +0.083 HD
ATOM      9  H   UNL     1      -0.229   8.721  18.285  0.00  0.00    +0.065 HD
ENDROOT
BRANCH   5  10
ATOM     10  N   UNL     1       2.465   8.438  17.754  0.00  0.00    -0.265 N 
ATOM     11  C   UNL     1       2.753   7.362  18.564  0.00  0.00    +0.268 C 
ATOM     12  O   UNL     1       2.370   7.242  19.724  0.00  0.00    -0.268 OA
ATOM     13  H   UNL     1       2.749   8.439  16.787  0.00  0.00    +0.157 HD
BRANCH  11  14
ATOM     14  C   UNL     1       3.573   6.309  17.925  0.00  0.00    +0.133 A 
ATOM     15  C   UNL     1       3.173   5.018  17.622  0.00  0.00    +0.008 A 
ATOM     16  S   UNL     1       4.442   4.141  16.876  0.00  0.00    -0.071 S 
ATOM     17  C   UNL     1       5.461   5.527  16.977  0.00  0.00    +0.182 A 
ATOM     18  N   UNL     1       4.890   6.580  17.538  0.00  0.00    -0.231 NA
ATOM     19  H   UNL     1       2.215   4.541  17.776  0.00  0.00    +0.072 HD
BRANCH  17  20
ATOM     20  C   UNL     1       6.865   5.445  16.443  0.00  0.00    +0.441 C 
ATOM     21  F   UNL     1       7.541   4.374  16.942  0.00  0.00    -0.164 F 
ATOM     22  F   UNL     1       6.915   5.335  15.090  0.00  0.00    -0.164 F 
ATOM     23  F   UNL     1       7.598   6.547  16.767  0.00  0.00    -0.164 F 
ENDBRANCH  17  20
ENDBRANCH  11  14
ENDBRANCH   5  10
BRANCH   1  24
ATOM     24  C   UNL     1      -1.738  10.888  18.901  0.00  0.00    +0.035 C 
ATOM     25  H   UNL     1      -1.957  10.121  19.654  0.00  0.00    +0.046 HD
BRANCH  24  26
ATOM     26  C   UNL     1      -2.577  10.576  17.658  0.00  0.00    -0.049 C 
ATOM     27  H   UNL     1      -2.491  11.385  16.923  0.00  0.00    +0.024 HD
ATOM     28  H   UNL     1      -2.241   9.657  17.164  0.00  0.00    +0.024 HD
ATOM     29  H   UNL     1      -3.641  10.454  17.887  0.00  0.00    +0.024 HD
ENDBRANCH  24  26
BRANCH  24  30
ATOM     30  S   UNL     1      -2.183  12.530  19.591  0.00  0.00    -0.078 S 
BRANCH  30  31
ATOM     31  C   UNL     1      -2.180  12.202  21.287  0.00  0.00    +0.192 A 
ATOM     32  N   UNL     1      -1.224  11.634  21.983  0.00  0.00    -0.123 NA
ATOM     33  N   UNL     1      -1.642  11.565  23.293  0.00  0.00    -0.137 NA
ATOM     34  C   UNL     1      -2.841  12.099  23.355  0.00  0.00    +0.120 A 
ATOM     35  N   UNL     1      -3.221  12.513  22.114  0.00  0.00    -0.312 N 
ATOM     36  H   UNL     1      -3.447  12.200  24.244  0.00  0.00    +0.105 HD
BRANCH  35  37
ATOM     37  C   UNL     1      -4.468  13.148  21.781  0.00  0.00    +0.015 C 
ATOM     38  H   UNL     1      -4.627  13.096  20.700  0.00  0.00    +0.046 HD
ATOM     39  H   UNL     1      -4.424  14.194  22.092  0.00  0.00    +0.046 HD
ATOM     40  H   UNL     1      -5.278  12.624  22.294  0.00  0.00    +0.046 HD
ENDBRANCH  35  37
ENDBRANCH  30  31
ENDBRANCH  24  30
ENDBRANCH   1  24
TORSDOF 8
ENDMDL
MODEL 8
REMARK VINA RESULT:    -6.641      5.190      9.158
REMARK INTER + INTRA:          -9.937
REMARK INTER:                  -9.314
REMARK INTRA:                  -0.623
REMARK UNBOUND:                -0.579
REMARK  Name = 
REMARK  8 active torsions:
REMARK  status: ('A' for Active; 'I' for Inactive)
REMARK    1  A    between atoms: C_1  and  C_2
REMARK    2  A    between atoms: C_2  and  C_3
REMARK    3  A    between atoms: C_2  and  S_21
REMARK    4  A    between atoms: C_7  and  N_9
REMARK    5  A    between atoms: C_10  and  C_11
REMARK    6  A    between atoms: C_14  and  C_15
REMARK    7  A    between atoms: S_21  and  C_22
REMARK    8  A    between atoms: N_26  and  C_27
REMARK                            x       y       z     vdW  Elec       q    Type
REMARK                         _______ _______ _______ _____ _____    ______ ____
ROOT
ATOM      1  C   UNL     1       2.621   5.700  18.742  0.00  0.00    -0.030 A 
ATOM      2  C   UNL     1       2.130   5.223  19.960  0.00  0.00    -0.039 A 
ATOM      3  C   UNL     1       1.588   6.126  20.856  0.00  0.00    +0.030 A 
ATOM      4  N   UNL     1       1.506   7.454  20.631  0.00  0.00    -0.240 NA
ATOM      5  C   UNL     1       1.990   7.916  19.459  0.00  0.00    +0.125 A 
ATOM      6  C   UNL     1       2.552   7.083  18.501  0.00  0.00    -0.017 A 
ATOM      7  H   UNL     1       2.172   4.170  20.220  0.00  0.00    +0.064 HD
ATOM      8  H   UNL     1       1.195   5.794  21.813  0.00  0.00    +0.083 HD
ATOM      9  H   UNL     1       2.943   7.476  17.569  0.00  0.00    +0.065 HD
ENDROOT
BRANCH   5  10
ATOM     10  N   UNL     1       1.865   9.299  19.338  0.00  0.00    -0.265 N 
ATOM     11  C   UNL     1       1.031  10.017  18.510  0.00  0.00    +0.268 C 
ATOM     12  O   UNL     1       0.219   9.518  17.737  0.00  0.00    -0.268 OA
ATOM     13  H   UNL     1       2.456   9.774  20.003  0.00  0.00    +0.157 HD
BRANCH  11  14
ATOM     14  C   UNL     1       1.168  11.487  18.619  0.00  0.00    +0.133 A 
ATOM     15  C   UNL     1       0.200  12.378  19.052  0.00  0.00    +0.008 A 
ATOM     16  S   UNL     1       0.792  13.986  19.028  0.00  0.00    -0.071 S 
ATOM     17  C   UNL     1       2.315  13.418  18.457  0.00  0.00    +0.182 A 
ATOM     18  N   UNL     1       2.377  12.107  18.289  0.00  0.00    -0.231 NA
ATOM     19  H   UNL     1      -0.807  12.186  19.394  0.00  0.00    +0.072 HD
BRANCH  17  20
ATOM     20  C   UNL     1       3.418  14.409  18.201  0.00  0.00    +0.441 C 
ATOM     21  F   UNL     1       4.605  13.798  17.940  0.00  0.00    -0.164 F 
ATOM     22  F   UNL     1       3.165  15.227  17.145  0.00  0.00    -0.164 F 
ATOM     23  F   UNL     1       3.631  15.222  19.274  0.00  0.00    -0.164 F 
ENDBRANCH  17  20
ENDBRANCH  11  14
ENDBRANCH   5  10
BRANCH   1  24
ATOM     24  C   UNL     1       3.248   4.785  17.699  0.00  0.00    +0.035 C 
ATOM     25  H   UNL     1       3.295   5.336  16.751  0.00  0.00    +0.046 HD
BRANCH  24  26
ATOM     26  C   UNL     1       2.420   3.518  17.464  0.00  0.00    -0.049 C 
ATOM     27  H   UNL     1       1.828   3.276  18.354  0.00  0.00    +0.024 HD
ATOM     28  H   UNL     1       1.715   3.645  16.635  0.00  0.00    +0.024 HD
ATOM     29  H   UNL     1       3.040   2.645  17.237  0.00  0.00    +0.024 HD
ENDBRANCH  24  26
BRANCH  24  30
ATOM     30  S   UNL     1       4.959   4.358  18.211  0.00  0.00    -0.078 S 
BRANCH  30  31
ATOM     31  C   UNL     1       5.794   4.410  16.699  0.00  0.00    +0.192 A 
ATOM     32  N   UNL     1       5.646   3.592  15.683  0.00  0.00    -0.123 NA
ATOM     33  N   UNL     1       6.510   3.997  14.690  0.00  0.00    -0.137 NA
ATOM     34  C   UNL     1       7.156   5.052  15.132  0.00  0.00    +0.120 A 
ATOM     35  N   UNL     1       6.738   5.348  16.395  0.00  0.00    -0.312 N 
ATOM     36  H   UNL     1       7.907   5.610  14.591  0.00  0.00    +0.105 HD
BRANCH  35  37
ATOM     37  C   UNL     1       7.211   6.435  17.207  0.00  0.00    +0.015 C 
ATOM     38  H   UNL     1       6.831   6.323  18.226  0.00  0.00    +0.046 HD
ATOM     39  H   UNL     1       6.848   7.375  16.785  0.00  0.00    +0.046 HD
ATOM     40  H   UNL     1       8.304   6.414  17.222  0.00  0.00    +0.046 HD
ENDBRANCH  35  37
ENDBRANCH  30  31
ENDBRANCH  24  30
ENDBRANCH   1  24
TORSDOF 8
ENDMDL
MODEL 9
REMARK VINA RESULT:    -6.494      3.185      4.100
REMARK INTER + INTRA:          -9.731
REMARK INTER:                  -9.122
REMARK INTRA:                  -0.609
REMARK UNBOUND:                -0.579
REMARK  Name = 
REMARK  8 active torsions:
REMARK  status: ('A' for Active; 'I' for Inactive)
REMARK    1  A    between atoms: C_1  and  C_2
REMARK    2  A    between atoms: C_2  and  C_3
REMARK    3  A    between atoms: C_2  and  S_21
REMARK    4  A    between atoms: C_7  and  N_9
REMARK    5  A    between atoms: C_10  and  C_11
REMARK    6  A    between atoms: C_14  and  C_15
REMARK    7  A    between atoms: S_21  and  C_22
REMARK    8  A    between atoms: N_26  and  C_27
REMARK                            x       y       z     vdW  Elec       q    Type
REMARK                         _______ _______ _______ _____ _____    ______ ____
ROOT
ATOM      1  C   UNL     1      -0.281   9.896  20.068  0.00  0.00    -0.030 A 
ATOM      2  C   UNL     1      -0.215   9.876  21.463  0.00  0.00    -0.039 A 
ATOM      3  C   UNL     1       0.736   9.076  22.071  0.00  0.00    +0.030 A 
ATOM      4  N   UNL     1       1.610   8.299  21.397  0.00  0.00    -0.240 NA
ATOM      5  C   UNL     1       1.538   8.311  20.049  0.00  0.00    +0.125 A 
ATOM      6  C   UNL     1       0.617   9.082  19.355  0.00  0.00    -0.017 A 
ATOM      7  H   UNL     1      -0.891  10.462  22.076  0.00  0.00    +0.064 HD
ATOM      8  H   UNL     1       0.819   9.034  23.153  0.00  0.00    +0.083 HD
ATOM      9  H   UNL     1       0.571   9.071  18.271  0.00  0.00    +0.065 HD
ENDROOT
BRANCH   5  10
ATOM     10  N   UNL     1       2.477   7.466  19.459  0.00  0.00    -0.265 N 
ATOM     11  C   UNL     1       2.571   6.094  19.544  0.00  0.00    +0.268 C 
ATOM     12  O   UNL     1       1.788   5.380  20.161  0.00  0.00    -0.268 OA
ATOM     13  H   UNL     1       3.112   7.986  18.873  0.00  0.00    +0.157 HD
BRANCH  11  14
ATOM     14  C   UNL     1       3.712   5.506  18.806  0.00  0.00    +0.133 A 
ATOM     15  C   UNL     1       3.642   4.622  17.743  0.00  0.00    +0.008 A 
ATOM     16  S   UNL     1       5.208   4.207  17.185  0.00  0.00    -0.071 S 
ATOM     17  C   UNL     1       5.906   5.238  18.376  0.00  0.00    +0.182 A 
ATOM     18  N   UNL     1       5.024   5.852  19.148  0.00  0.00    -0.231 NA
ATOM     19  H   UNL     1       2.773   4.206  17.250  0.00  0.00    +0.072 HD
BRANCH  17  20
ATOM     20  C   UNL     1       7.403   5.362  18.451  0.00  0.00    +0.441 C 
ATOM     21  F   UNL     1       8.035   4.298  17.884  0.00  0.00    -0.164 F 
ATOM     22  F   UNL     1       7.878   6.470  17.824  0.00  0.00    -0.164 F 
ATOM     23  F   UNL     1       7.845   5.430  19.738  0.00  0.00    -0.164 F 
ENDBRANCH  17  20
ENDBRANCH  11  14
ENDBRANCH   5  10
BRANCH   1  24
ATOM     24  C   UNL     1      -1.301  10.735  19.310  0.00  0.00    +0.035 C 
ATOM     25  H   UNL     1      -2.300  10.356  19.556  0.00  0.00    +0.046 HD
BRANCH  24  26
ATOM     26  C   UNL     1      -1.123  10.634  17.792  0.00  0.00    -0.049 C 
ATOM     27  H   UNL     1      -1.644  11.458  17.289  0.00  0.00    +0.024 HD
ATOM     28  H   UNL     1      -0.068  10.698  17.504  0.00  0.00    +0.024 HD
ATOM     29  H   UNL     1      -1.519   9.699  17.382  0.00  0.00    +0.024 HD
ENDBRANCH  24  26
BRANCH  24  30
ATOM     30  S   UNL     1      -1.186  12.482  19.863  0.00  0.00    -0.078 S 
BRANCH  30  31
ATOM     31  C   UNL     1      -2.648  12.654  20.766  0.00  0.00    +0.192 A 
ATOM     32  N   UNL     1      -3.875  12.639  20.300  0.00  0.00    -0.123 NA
ATOM     33  N   UNL     1      -4.730  12.815  21.364  0.00  0.00    -0.137 NA
ATOM     34  C   UNL     1      -3.997  12.927  22.448  0.00  0.00    +0.120 A 
ATOM     35  N   UNL     1      -2.678  12.833  22.119  0.00  0.00    -0.312 N 
ATOM     36  H   UNL     1      -4.366  13.074  23.453  0.00  0.00    +0.105 HD
BRANCH  35  37
ATOM     37  C   UNL     1      -1.573  12.906  23.035  0.00  0.00    +0.015 C 
ATOM     38  H   UNL     1      -1.398  11.921  23.477  0.00  0.00    +0.046 HD
ATOM     39  H   UNL     1      -1.816  13.621  23.825  0.00  0.00    +0.046 HD
ATOM     40  H   UNL     1      -0.681  13.223  22.488  0.00  0.00    +0.046 HD
ENDBRANCH  35  37
ENDBRANCH  30  31
ENDBRANCH  24  30
ENDBRANCH   1  24
TORSDOF 8
ENDMDL
MODEL 10
REMARK VINA RESULT:    -6.484      2.586      3.754
REMARK INTER + INTRA:          -9.717
REMARK INTER:                  -9.111
REMARK INTRA:                  -0.606
REMARK UNBOUND:                -0.579
REMARK  Name = 
REMARK  8 active torsions:
REMARK  status: ('A' for Active; 'I' for Inactive)
REMARK    1  A    between atoms: C_1  and  C_2
REMARK    2  A    between atoms: C_2  and  C_3
REMARK    3  A    between atoms: C_2  and  S_21
REMARK    4  A    between atoms: C_7  and  N_9
REMARK    5  A    between atoms: C_10  and  C_11
REMARK    6  A    between atoms: C_14  and  C_15
REMARK    7  A    between atoms: S_21  and  C_22
REMARK    8  A    between atoms: N_26  and  C_27
REMARK                            x       y       z     vdW  Elec       q    Type
REMARK                         _______ _______ _______ _____ _____    ______ ____
ROOT
ATOM      1  C   UNL     1      -0.265  11.297  18.885  0.00  0.00    -0.030 A 
ATOM      2  C   UNL     1       0.675  12.309  18.675  0.00  0.00    -0.039 A 
ATOM      3  C   UNL     1       1.953  11.957  18.283  0.00  0.00    +0.030 A 
ATOM      4  N   UNL     1       2.359  10.683  18.092  0.00  0.00    -0.240 NA
ATOM      5  C   UNL     1       1.453   9.705  18.304  0.00  0.00    +0.125 A 
ATOM      6  C   UNL     1       0.149   9.966  18.700  0.00  0.00    -0.017 A 
ATOM      7  H   UNL     1       0.430  13.356  18.821  0.00  0.00    +0.064 HD
ATOM      8  H   UNL     1       2.712  12.714  18.109  0.00  0.00    +0.083 HD
ATOM      9  H   UNL     1      -0.561   9.164  18.873  0.00  0.00    +0.065 HD
ENDROOT
BRANCH   5  10
ATOM     10  N   UNL     1       1.983   8.434  18.089  0.00  0.00    -0.265 N 
ATOM     11  C   UNL     1       2.259   7.451  19.014  0.00  0.00    +0.268 C 
ATOM     12  O   UNL     1       2.044   7.548  20.218  0.00  0.00    -0.268 OA
ATOM     13  H   UNL     1       2.115   8.260  17.105  0.00  0.00    +0.157 HD
BRANCH  11  14
ATOM     14  C   UNL     1       2.842   6.214  18.446  0.00  0.00    +0.133 A 
ATOM     15  C   UNL     1       3.900   6.132  17.556  0.00  0.00    +0.008 A 
ATOM     16  S   UNL     1       4.253   4.500  17.170  0.00  0.00    -0.071 S 
ATOM     17  C   UNL     1       2.991   3.979  18.221  0.00  0.00    +0.182 A 
ATOM     18  N   UNL     1       2.341   4.963  18.820  0.00  0.00    -0.231 NA
ATOM     19  H   UNL     1       4.495   6.923  17.120  0.00  0.00    +0.072 HD
BRANCH  17  20
ATOM     20  C   UNL     1       2.728   2.506  18.376  0.00  0.00    +0.441 C 
ATOM     21  F   UNL     1       3.843   1.824  18.758  0.00  0.00    -0.164 F 
ATOM     22  F   UNL     1       1.773   2.229  19.302  0.00  0.00    -0.164 F 
ATOM     23  F   UNL     1       2.310   1.937  17.211  0.00  0.00    -0.164 F 
ENDBRANCH  17  20
ENDBRANCH  11  14
ENDBRANCH   5  10
BRANCH   1  24
ATOM     24  C   UNL     1      -1.692  11.586  19.330  0.00  0.00    +0.035 C 
ATOM     25  H   UNL     1      -1.975  10.826  20.069  0.00  0.00    +0.046 HD
BRANCH  24  26
ATOM     26  C   UNL     1      -2.690  11.506  18.171  0.00  0.00    -0.049 C 
ATOM     27  H   UNL     1      -3.710  11.374  18.551  0.00  0.00    +0.024 HD
ATOM     28  H   UNL     1      -2.688  12.424  17.573  0.00  0.00    +0.024 HD
ATOM     29  H   UNL     1      -2.484  10.672  17.493  0.00  0.00    +0.024 HD
ENDBRANCH  24  26
BRANCH  24  30
ATOM     30  S   UNL     1      -1.758  13.236  20.134  0.00  0.00    -0.078 S 
BRANCH  30  31
ATOM     31  C   UNL     1      -2.728  12.903  21.523  0.00  0.00    +0.192 A 
ATOM     32  N   UNL     1      -3.990  13.219  21.703  0.00  0.00    -0.123 NA
ATOM     33  N   UNL     1      -4.361  12.769  22.951  0.00  0.00    -0.137 NA
ATOM     34  C   UNL     1      -3.313  12.189  23.491  0.00  0.00    +0.120 A 
ATOM     35  N   UNL     1      -2.261  12.251  22.627  0.00  0.00    -0.312 N 
ATOM     36  H   UNL     1      -3.274  11.730  24.468  0.00  0.00    +0.105 HD
BRANCH  35  37
ATOM     37  C   UNL     1      -0.944  11.723  22.862  0.00  0.00    +0.015 C 
ATOM     38  H   UNL     1      -0.233  12.546  22.965  0.00  0.00    +0.046 HD
ATOM     39  H   UNL     1      -0.658  11.100  22.010  0.00  0.00    +0.046 HD
ATOM     40  H   UNL     1      -0.959  11.136  23.784  0.00  0.00    +0.046 HD
ENDBRANCH  35  37
ENDBRANCH  30  31
ENDBRANCH  24  30
ENDBRANCH   1  24
TORSDOF 8
ENDMDL
MODEL 11
REMARK VINA RESULT:    -6.484      1.926      2.422
REMARK INTER + INTRA:          -9.716
REMARK INTER:                  -9.478
REMARK INTRA:                  -0.238
REMARK UNBOUND:                -0.579
REMARK  Name = 
REMARK  8 active torsions:
REMARK  status: ('A' for Active; 'I' for Inactive)
REMARK    1  A    between atoms: C_1  and  C_2
REMARK    2  A    between atoms: C_2  and  C_3
REMARK    3  A    between atoms: C_2  and  S_21
REMARK    4  A    between atoms: C_7  and  N_9
REMARK    5  A    between atoms: C_10  and  C_11
REMARK    6  A    between atoms: C_14  and  C_15
REMARK    7  A    between atoms: S_21  and  C_22
REMARK    8  A    between atoms: N_26  and  C_27
REMARK                            x       y       z     vdW  Elec       q    Type
REMARK                         _______ _______ _______ _____ _____    ______ ____
ROOT
ATOM      1  C   UNL     1       0.047  10.598  20.521  0.00  0.00    -0.030 A 
ATOM      2  C   UNL     1      -0.193  10.579  21.898  0.00  0.00    -0.039 A 
ATOM      3  C   UNL     1       0.307   9.528  22.644  0.00  0.00    +0.030 A 
ATOM      4  N   UNL     1       1.017   8.504  22.123  0.00  0.00    -0.240 NA
ATOM      5  C   UNL     1       1.240   8.518  20.792  0.00  0.00    +0.125 A 
ATOM      6  C   UNL     1       0.774   9.531  19.966  0.00  0.00    -0.017 A 
ATOM      7  H   UNL     1      -0.766  11.359  22.389  0.00  0.00    +0.064 HD
ATOM      8  H   UNL     1       0.142   9.477  23.716  0.00  0.00    +0.083 HD
ATOM      9  H   UNL     1       0.958   9.519  18.896  0.00  0.00    +0.065 HD
ENDROOT
BRANCH   5  10
ATOM     10  N   UNL     1       1.969   7.410  20.363  0.00  0.00    -0.265 N 
ATOM     11  C   UNL     1       2.468   7.144  19.107  0.00  0.00    +0.268 C 
ATOM     12  O   UNL     1       2.359   7.894  18.141  0.00  0.00    -0.268 OA
ATOM     13  H   UNL     1       2.158   6.784  21.130  0.00  0.00    +0.157 HD
BRANCH  11  14
ATOM     14  C   UNL     1       3.184   5.854  18.986  0.00  0.00    +0.133 A 
ATOM     15  C   UNL     1       4.555   5.662  19.026  0.00  0.00    +0.008 A 
ATOM     16  S   UNL     1       4.947   4.002  18.858  0.00  0.00    -0.071 S 
ATOM     17  C   UNL     1       3.271   3.615  18.757  0.00  0.00    +0.182 A 
ATOM     18  N   UNL     1       2.466   4.663  18.838  0.00  0.00    -0.231 NA
ATOM     19  H   UNL     1       5.346   6.386  19.158  0.00  0.00    +0.072 HD
BRANCH  17  20
ATOM     20  C   UNL     1       2.859   2.178  18.590  0.00  0.00    +0.441 C 
ATOM     21  F   UNL     1       2.397   1.919  17.337  0.00  0.00    -0.164 F 
ATOM     22  F   UNL     1       3.875   1.304  18.814  0.00  0.00    -0.164 F 
ATOM     23  F   UNL     1       1.858   1.832  19.448  0.00  0.00    -0.164 F 
ENDBRANCH  17  20
ENDBRANCH  11  14
ENDBRANCH   5  10
BRANCH   1  24
ATOM     24  C   UNL     1      -0.474  11.706  19.616  0.00  0.00    +0.035 C 
ATOM     25  H   UNL     1      -1.191  11.260  18.916  0.00  0.00    +0.046 HD
BRANCH  24  26
ATOM     26  C   UNL     1       0.642  12.356  18.792  0.00  0.00    -0.049 C 
ATOM     27  H   UNL     1       0.272  12.635  17.798  0.00  0.00    +0.024 HD
ATOM     28  H   UNL     1       1.011  13.272  19.265  0.00  0.00    +0.024 HD
ATOM     29  H   UNL     1       1.501  11.693  18.647  0.00  0.00    +0.024 HD
ENDBRANCH  24  26
BRANCH  24  30
ATOM     30  S   UNL     1      -1.350  12.961  20.630  0.00  0.00    -0.078 S 
BRANCH  30  31
ATOM     31  C   UNL     1      -3.001  12.601  20.273  0.00  0.00    +0.192 A 
ATOM     32  N   UNL     1      -3.500  12.235  19.115  0.00  0.00    -0.123 NA
ATOM     33  N   UNL     1      -4.855  12.058  19.280  0.00  0.00    -0.137 NA
ATOM     34  C   UNL     1      -5.139  12.319  20.536  0.00  0.00    +0.120 A 
ATOM     35  N   UNL     1      -4.001  12.666  21.199  0.00  0.00    -0.312 N 
ATOM     36  H   UNL     1      -6.119  12.270  20.990  0.00  0.00    +0.105 HD
BRANCH  35  37
ATOM     37  C   UNL     1      -3.909  13.018  22.590  0.00  0.00    +0.015 C 
ATOM     38  H   UNL     1      -3.593  14.061  22.683  0.00  0.00    +0.046 HD
ATOM     39  H   UNL     1      -3.170  12.371  23.069  0.00  0.00    +0.046 HD
ATOM     40  H   UNL     1      -4.892  12.893  23.051  0.00  0.00    +0.046 HD
ENDBRANCH  35  37
ENDBRANCH  30  31
ENDBRANCH  24  30
ENDBRANCH   1  24
TORSDOF 8
ENDMDL
MODEL 12
REMARK VINA RESULT:    -6.460      2.936      4.220
REMARK INTER + INTRA:          -9.683
REMARK INTER:                  -9.372
REMARK INTRA:                  -0.311
REMARK UNBOUND:                -0.579
REMARK  Name = 
REMARK  8 active torsions:
REMARK  status: ('A' for Active; 'I' for Inactive)
REMARK    1  A    between atoms: C_1  and  C_2
REMARK    2  A    between atoms: C_2  and  C_3
REMARK    3  A    between atoms: C_2  and  S_21
REMARK    4  A    between atoms: C_7  and  N_9
REMARK    5  A    between atoms: C_10  and  C_11
REMARK    6  A    between atoms: C_14  and  C_15
REMARK    7  A    between atoms: S_21  and  C_22
REMARK    8  A    between atoms: N_26  and  C_27
REMARK                            x       y       z     vdW  Elec       q    Type
REMARK                         _______ _______ _______ _____ _____    ______ ____
ROOT
ATOM      1  C   UNL     1      -0.632  11.202  21.055  0.00  0.00    -0.030 A 
ATOM      2  C   UNL     1      -0.997  11.238  22.403  0.00  0.00    -0.039 A 
ATOM      3  C   UNL     1      -0.651  10.169  23.211  0.00  0.00    +0.030 A 
ATOM      4  N   UNL     1       0.017   9.081  22.776  0.00  0.00    -0.240 NA
ATOM      5  C   UNL     1       0.360   9.043  21.472  0.00  0.00    +0.125 A 
ATOM      6  C   UNL     1       0.054  10.068  20.588  0.00  0.00    -0.017 A 
ATOM      7  H   UNL     1      -1.547  12.072  22.825  0.00  0.00    +0.064 HD
ATOM      8  H   UNL     1      -0.916  10.159  24.265  0.00  0.00    +0.083 HD
ATOM      9  H   UNL     1       0.332  10.014  19.540  0.00  0.00    +0.065 HD
ENDROOT
BRANCH   5  10
ATOM     10  N   UNL     1       1.034   7.871  21.132  0.00  0.00    -0.265 N 
ATOM     11  C   UNL     1       1.794   7.611  20.013  0.00  0.00    +0.268 C 
ATOM     12  O   UNL     1       2.021   8.423  19.121  0.00  0.00    -0.268 OA
ATOM     13  H   UNL     1       0.949   7.181  21.862  0.00  0.00    +0.157 HD
BRANCH  11  14
ATOM     14  C   UNL     1       2.356   6.242  19.952  0.00  0.00    +0.133 A 
ATOM     15  C   UNL     1       3.494   5.845  19.269  0.00  0.00    +0.008 A 
ATOM     16  S   UNL     1       3.783   4.169  19.480  0.00  0.00    -0.071 S 
ATOM     17  C   UNL     1       2.387   4.055  20.484  0.00  0.00    +0.182 A 
ATOM     18  N   UNL     1       1.741   5.197  20.649  0.00  0.00    -0.231 NA
ATOM     19  H   UNL     1       4.179   6.434  18.675  0.00  0.00    +0.072 HD
BRANCH  17  20
ATOM     20  C   UNL     1       2.018   2.722  21.077  0.00  0.00    +0.441 C 
ATOM     21  F   UNL     1       1.723   1.800  20.121  0.00  0.00    -0.164 F 
ATOM     22  F   UNL     1       3.009   2.185  21.837  0.00  0.00    -0.164 F 
ATOM     23  F   UNL     1       0.921   2.807  21.880  0.00  0.00    -0.164 F 
ENDBRANCH  17  20
ENDBRANCH  11  14
ENDBRANCH   5  10
BRANCH   1  24
ATOM     24  C   UNL     1      -0.979  12.324  20.085  0.00  0.00    +0.035 C 
ATOM     25  H   UNL     1      -1.137  13.239  20.669  0.00  0.00    +0.046 HD
BRANCH  24  26
ATOM     26  C   UNL     1      -2.265  12.040  19.303  0.00  0.00    -0.049 C 
ATOM     27  H   UNL     1      -2.291  10.993  18.975  0.00  0.00    +0.024 HD
ATOM     28  H   UNL     1      -3.156  12.206  19.918  0.00  0.00    +0.024 HD
ATOM     29  H   UNL     1      -2.362  12.664  18.409  0.00  0.00    +0.024 HD
ENDBRANCH  24  26
BRANCH  24  30
ATOM     30  S   UNL     1       0.431  12.599  18.941  0.00  0.00    -0.078 S 
BRANCH  30  31
ATOM     31  C   UNL     1       1.501  13.526  19.929  0.00  0.00    +0.192 A 
ATOM     32  N   UNL     1       1.308  13.899  21.173  0.00  0.00    -0.123 NA
ATOM     33  N   UNL     1       2.410  14.625  21.569  0.00  0.00    -0.137 NA
ATOM     34  C   UNL     1       3.242  14.668  20.553  0.00  0.00    +0.120 A 
ATOM     35  N   UNL     1       2.710  13.990  19.498  0.00  0.00    -0.312 N 
ATOM     36  H   UNL     1       4.204  15.161  20.540  0.00  0.00    +0.105 HD
BRANCH  35  37
ATOM     37  C   UNL     1       3.326  13.814  18.211  0.00  0.00    +0.015 C 
ATOM     38  H   UNL     1       2.568  13.521  17.480  0.00  0.00    +0.046 HD
ATOM     39  H   UNL     1       4.082  13.028  18.287  0.00  0.00    +0.046 HD
ATOM     40  H   UNL     1       3.781  14.760  17.905  0.00  0.00    +0.046 HD
ENDBRANCH  35  37
ENDBRANCH  30  31
ENDBRANCH  24  30
ENDBRANCH   1  24
TORSDOF 8
ENDMDL
MODEL 13
REMARK VINA RESULT:    -6.448      5.664      9.364
REMARK INTER + INTRA:          -9.665
REMARK INTER:                  -9.642
REMARK INTRA:                  -0.023
REMARK UNBOUND:                -0.579
REMARK  Name = 
REMARK  8 active torsions:
REMARK  status: ('A' for Active; 'I' for Inactive)
REMARK    1  A    between atoms: C_1  and  C_2
REMARK    2  A    between atoms: C_2  and  C_3
REMARK    3  A    between atoms: C_2  and  S_21
REMARK    4  A    between atoms: C_7  and  N_9
REMARK    5  A    between atoms: C_10  and  C_11
REMARK    6  A    between atoms: C_14  and  C_15
REMARK    7  A    between atoms: S_21  and  C_22
REMARK    8  A    between atoms: N_26  and  C_27
REMARK                            x       y       z     vdW  Elec       q    Type
REMARK                         _______ _______ _______ _____ _____    ______ ____
ROOT
ATOM      1  C   UNL     1       2.255   7.335  19.519  0.00  0.00    -0.030 A 
ATOM      2  C   UNL     1       2.339   7.673  18.166  0.00  0.00    -0.039 A 
ATOM      3  C   UNL     1       1.795   8.874  17.747  0.00  0.00    +0.030 A 
ATOM      4  N   UNL     1       1.177   9.748  18.569  0.00  0.00    -0.240 NA
ATOM      5  C   UNL     1       1.087   9.416  19.874  0.00  0.00    +0.125 A 
ATOM      6  C   UNL     1       1.603   8.232  20.382  0.00  0.00    -0.017 A 
ATOM      7  H   UNL     1       2.809   7.017  17.441  0.00  0.00    +0.064 HD
ATOM      8  H   UNL     1       1.841   9.173  16.704  0.00  0.00    +0.083 HD
ATOM      9  H   UNL     1       1.512   7.981  21.434  0.00  0.00    +0.065 HD
ENDROOT
BRANCH   5  10
ATOM     10  N   UNL     1       0.420  10.383  20.625  0.00  0.00    -0.265 N 
ATOM     11  C   UNL     1      -0.329  10.217  21.768  0.00  0.00    +0.268 C 
ATOM     12  O   UNL     1      -0.507   9.143  22.334  0.00  0.00    -0.268 OA
ATOM     13  H   UNL     1       0.586  11.306  20.253  0.00  0.00    +0.157 HD
BRANCH  11  14
ATOM     14  C   UNL     1      -0.924  11.463  22.304  0.00  0.00    +0.133 A 
ATOM     15  C   UNL     1      -0.412  12.744  22.180  0.00  0.00    +0.008 A 
ATOM     16  S   UNL     1      -1.431  13.889  22.944  0.00  0.00    -0.071 S 
ATOM     17  C   UNL     1      -2.516  12.626  23.391  0.00  0.00    +0.182 A 
ATOM     18  N   UNL     1      -2.137  11.421  22.998  0.00  0.00    -0.231 NA
ATOM     19  H   UNL     1       0.485  13.079  21.677  0.00  0.00    +0.072 HD
BRANCH  17  20
ATOM     20  C   UNL     1      -3.761  12.969  24.163  0.00  0.00    +0.441 C 
ATOM     21  F   UNL     1      -4.775  13.368  23.347  0.00  0.00    -0.164 F 
ATOM     22  F   UNL     1      -4.241  11.926  24.890  0.00  0.00    -0.164 F 
ATOM     23  F   UNL     1      -3.551  13.987  25.043  0.00  0.00    -0.164 F 
ENDBRANCH  17  20
ENDBRANCH  11  14
ENDBRANCH   5  10
BRANCH   1  24
ATOM     24  C   UNL     1       2.812   6.030  20.072  0.00  0.00    +0.035 C 
ATOM     25  H   UNL     1       3.169   6.220  21.092  0.00  0.00    +0.046 HD
BRANCH  24  26
ATOM     26  C   UNL     1       3.997   5.510  19.251  0.00  0.00    -0.049 C 
ATOM     27  H   UNL     1       4.824   6.230  19.272  0.00  0.00    +0.024 HD
ATOM     28  H   UNL     1       4.382   4.567  19.653  0.00  0.00    +0.024 HD
ATOM     29  H   UNL     1       3.739   5.338  18.201  0.00  0.00    +0.024 HD
ENDBRANCH  24  26
BRANCH  24  30
ATOM     30  S   UNL     1       1.472   4.777  20.145  0.00  0.00    -0.078 S 
BRANCH  30  31
ATOM     31  C   UNL     1       2.129   3.512  19.171  0.00  0.00    +0.192 A 
ATOM     32  N   UNL     1       1.948   3.326  17.884  0.00  0.00    -0.123 NA
ATOM     33  N   UNL     1       2.650   2.199  17.520  0.00  0.00    -0.137 NA
ATOM     34  C   UNL     1       3.239   1.734  18.598  0.00  0.00    +0.120 A 
ATOM     35  N   UNL     1       2.939   2.529  19.663  0.00  0.00    -0.312 N 
ATOM     36  H   UNL     1       3.869   0.856  18.650  0.00  0.00    +0.105 HD
BRANCH  35  37
ATOM     37  C   UNL     1       3.401   2.344  21.011  0.00  0.00    +0.015 C 
ATOM     38  H   UNL     1       2.643   2.708  21.710  0.00  0.00    +0.046 HD
ATOM     39  H   UNL     1       4.324   2.912  21.148  0.00  0.00    +0.046 HD
ATOM     40  H   UNL     1       3.572   1.278  21.182  0.00  0.00    +0.046 HD
ENDBRANCH  35  37
ENDBRANCH  30  31
ENDBRANCH  24  30
ENDBRANCH   1  24
TORSDOF 8
ENDMDL
MODEL 14
REMARK VINA RESULT:    -6.446      4.909      8.992
REMARK INTER + INTRA:          -9.663
REMARK INTER:                  -9.185
REMARK INTRA:                  -0.478
REMARK UNBOUND:                -0.579
REMARK  Name = 
REMARK  8 active torsions:
REMARK  status: ('A' for Active; 'I' for Inactive)
REMARK    1  A    between atoms: C_1  and  C_2
REMARK    2  A    between atoms: C_2  and  C_3
REMARK    3  A    between atoms: C_2  and  S_21
REMARK    4  A    between atoms: C_7  and  N_9
REMARK    5  A    between atoms: C_10  and  C_11
REMARK    6  A    between atoms: C_14  and  C_15
REMARK    7  A    between atoms: S_21  and  C_22
REMARK    8  A    between atoms: N_26  and  C_27
REMARK                            x       y       z     vdW  Elec       q    Type
REMARK                         _______ _______ _______ _____ _____    ______ ____
ROOT
ATOM      1  C   UNL     1       3.148   5.220  18.776  0.00  0.00    -0.030 A 
ATOM      2  C   UNL     1       2.733   4.271  19.714  0.00  0.00    -0.039 A 
ATOM      3  C   UNL     1       1.948   4.686  20.775  0.00  0.00    +0.030 A 
ATOM      4  N   UNL     1       1.558   5.964  20.969  0.00  0.00    -0.240 NA
ATOM      5  C   UNL     1       1.968   6.882  20.069  0.00  0.00    +0.125 A 
ATOM      6  C   UNL     1       2.757   6.556  18.975  0.00  0.00    -0.017 A 
ATOM      7  H   UNL     1       3.016   3.227  19.635  0.00  0.00    +0.064 HD
ATOM      8  H   UNL     1       1.605   3.979  21.525  0.00  0.00    +0.083 HD
ATOM      9  H   UNL     1       3.083   7.311  18.267  0.00  0.00    +0.065 HD
ENDROOT
BRANCH   5  10
ATOM     10  N   UNL     1       1.518   8.165  20.374  0.00  0.00    -0.265 N 
ATOM     11  C   UNL     1       1.205   9.193  19.512  0.00  0.00    +0.268 C 
ATOM     12  O   UNL     1       1.255   9.115  18.288  0.00  0.00    -0.268 OA
ATOM     13  H   UNL     1       1.384   8.274  21.367  0.00  0.00    +0.157 HD
BRANCH  11  14
ATOM     14  C   UNL     1       0.775  10.446  20.174  0.00  0.00    +0.133 A 
ATOM     15  C   UNL     1       1.236  11.724  19.905  0.00  0.00    +0.008 A 
ATOM     16  S   UNL     1       0.456  12.880  20.901  0.00  0.00    -0.071 S 
ATOM     17  C   UNL     1      -0.471  11.625  21.633  0.00  0.00    +0.182 A 
ATOM     18  N   UNL     1      -0.212  10.415  21.165  0.00  0.00    -0.231 NA
ATOM     19  H   UNL     1       1.967  12.052  19.179  0.00  0.00    +0.072 HD
BRANCH  17  20
ATOM     20  C   UNL     1      -1.467  11.979  22.703  0.00  0.00    +0.441 C 
ATOM     21  F   UNL     1      -1.019  12.980  23.508  0.00  0.00    -0.164 F 
ATOM     22  F   UNL     1      -2.662  12.392  22.204  0.00  0.00    -0.164 F 
ATOM     23  F   UNL     1      -1.736  10.921  23.519  0.00  0.00    -0.164 F 
ENDBRANCH  17  20
ENDBRANCH  11  14
ENDBRANCH   5  10
BRANCH   1  24
ATOM     24  C   UNL     1       4.023   4.861  17.583  0.00  0.00    +0.035 C 
ATOM     25  H   UNL     1       4.084   5.742  16.932  0.00  0.00    +0.046 HD
BRANCH  24  26
ATOM     26  C   UNL     1       3.439   3.710  16.759  0.00  0.00    -0.049 C 
ATOM     27  H   UNL     1       2.843   4.099  15.924  0.00  0.00    +0.024 HD
ATOM     28  H   UNL     1       4.226   3.083  16.327  0.00  0.00    +0.024 HD
ATOM     29  H   UNL     1       2.787   3.057  17.349  0.00  0.00    +0.024 HD
ENDBRANCH  24  26
BRANCH  24  30
ATOM     30  S   UNL     1       5.714   4.450  18.169  0.00  0.00    -0.078 S 
BRANCH  30  31
ATOM     31  C   UNL     1       6.532   5.955  17.944  0.00  0.00    +0.192 A 
ATOM     32  N   UNL     1       6.237   6.895  17.078  0.00  0.00    -0.123 NA
ATOM     33  N   UNL     1       7.149   7.915  17.240  0.00  0.00    -0.137 NA
ATOM     34  C   UNL     1       7.969   7.564  18.204  0.00  0.00    +0.120 A 
ATOM     35  N   UNL     1       7.619   6.335  18.677  0.00  0.00    -0.312 N 
ATOM     36  H   UNL     1       8.799   8.147  18.577  0.00  0.00    +0.105 HD
BRANCH  35  37
ATOM     37  C   UNL     1       8.278   5.619  19.735  0.00  0.00    +0.015 C 
ATOM     38  H   UNL     1       8.835   6.321  20.360  0.00  0.00    +0.046 HD
ATOM     39  H   UNL     1       8.969   4.896  19.294  0.00  0.00    +0.046 HD
ATOM     40  H   UNL     1       7.522   5.112  20.342  0.00  0.00    +0.046 HD
ENDBRANCH  35  37
ENDBRANCH  30  31
ENDBRANCH  24  30
ENDBRANCH   1  24
TORSDOF 8
ENDMDL
MODEL 15
REMARK VINA RESULT:    -6.421      3.711      5.071
REMARK INTER + INTRA:          -9.628
REMARK INTER:                  -9.216
REMARK INTRA:                  -0.412
REMARK UNBOUND:                -0.579
REMARK  Name = 
REMARK  8 active torsions:
REMARK  status: ('A' for Active; 'I' for Inactive)
REMARK    1  A    between atoms: C_1  and  C_2
REMARK    2  A    between atoms: C_2  and  C_3
REMARK    3  A    between atoms: C_2  and  S_21
REMARK    4  A    between atoms: C_7  and  N_9
REMARK    5  A    between atoms: C_10  and  C_11
REMARK    6  A    between atoms: C_14  and  C_15
REMARK    7  A    between atoms: S_21  and  C_22
REMARK    8  A    between atoms: N_26  and  C_27
REMARK                            x       y       z     vdW  Elec       q    Type
REMARK                         _______ _______ _______ _____ _____    ______ ____
ROOT
ATOM      1  C   UNL     1      -0.398  10.860  20.552  0.00  0.00    -0.030 A 
ATOM      2  C   UNL     1      -1.079  11.286  19.408  0.00  0.00    -0.039 A 
ATOM      3  C   UNL     1      -0.755  10.711  18.192  0.00  0.00    +0.030 A 
ATOM      4  N   UNL     1       0.190   9.761  18.036  0.00  0.00    -0.240 NA
ATOM      5  C   UNL     1       0.854   9.358  19.139  0.00  0.00    +0.125 A 
ATOM      6  C   UNL     1       0.596   9.879  20.399  0.00  0.00    -0.017 A 
ATOM      7  H   UNL     1      -1.842  12.055  19.450  0.00  0.00    +0.064 HD
ATOM      8  H   UNL     1      -1.262  11.014  17.280  0.00  0.00    +0.083 HD
ATOM      9  H   UNL     1       1.148   9.547  21.273  0.00  0.00    +0.065 HD
ENDROOT
BRANCH   5  10
ATOM     10  N   UNL     1       1.812   8.385  18.859  0.00  0.00    -0.265 N 
ATOM     11  C   UNL     1       2.146   7.271  19.597  0.00  0.00    +0.268 C 
ATOM     12  O   UNL     1       1.604   6.944  20.649  0.00  0.00    -0.268 OA
ATOM     13  H   UNL     1       2.248   8.554  17.966  0.00  0.00    +0.157 HD
BRANCH  11  14
ATOM     14  C   UNL     1       3.234   6.450  19.019  0.00  0.00    +0.133 A 
ATOM     15  C   UNL     1       3.867   5.374  19.620  0.00  0.00    +0.008 A 
ATOM     16  S   UNL     1       5.062   4.709  18.587  0.00  0.00    -0.071 S 
ATOM     17  C   UNL     1       4.668   5.876  17.380  0.00  0.00    +0.182 A 
ATOM     18  N   UNL     1       3.706   6.714  17.729  0.00  0.00    -0.231 NA
ATOM     19  H   UNL     1       3.695   4.930  20.590  0.00  0.00    +0.072 HD
BRANCH  17  20
ATOM     20  C   UNL     1       5.412   5.858  16.073  0.00  0.00    +0.441 C 
ATOM     21  F   UNL     1       6.744   6.084  16.239  0.00  0.00    -0.164 F 
ATOM     22  F   UNL     1       5.303   4.674  15.414  0.00  0.00    -0.164 F 
ATOM     23  F   UNL     1       4.963   6.818  15.217  0.00  0.00    -0.164 F 
ENDBRANCH  17  20
ENDBRANCH  11  14
ENDBRANCH   5  10
BRANCH   1  24
ATOM     24  C   UNL     1      -0.675  11.442  21.932  0.00  0.00    +0.035 C 
ATOM     25  H   UNL     1       0.119  12.163  22.160  0.00  0.00    +0.046 HD
BRANCH  24  26
ATOM     26  C   UNL     1      -0.666  10.372  23.027  0.00  0.00    -0.049 C 
ATOM     27  H   UNL     1      -1.262   9.504  22.720  0.00  0.00    +0.024 HD
ATOM     28  H   UNL     1       0.348  10.009  23.228  0.00  0.00    +0.024 HD
ATOM     29  H   UNL     1      -1.079  10.734  23.974  0.00  0.00    +0.024 HD
ENDBRANCH  24  26
BRANCH  24  30
ATOM     30  S   UNL     1      -2.281  12.333  21.906  0.00  0.00    -0.078 S 
BRANCH  30  31
ATOM     31  C   UNL     1      -2.069  13.461  23.196  0.00  0.00    +0.192 A 
ATOM     32  N   UNL     1      -0.987  14.147  23.480  0.00  0.00    -0.123 NA
ATOM     33  N   UNL     1      -1.257  14.918  24.588  0.00  0.00    -0.137 NA
ATOM     34  C   UNL     1      -2.499  14.680  24.944  0.00  0.00    +0.120 A 
ATOM     35  N   UNL     1      -3.049  13.767  24.096  0.00  0.00    -0.312 N 
ATOM     36  H   UNL     1      -3.019  15.129  25.779  0.00  0.00    +0.105 HD
BRANCH  35  37
ATOM     37  C   UNL     1      -4.392  13.257  24.161  0.00  0.00    +0.015 C 
ATOM     38  H   UNL     1      -4.981  13.672  23.339  0.00  0.00    +0.046 HD
ATOM     39  H   UNL     1      -4.836  13.555  25.114  0.00  0.00    +0.046 HD
ATOM     40  H   UNL     1      -4.360  12.168  24.072  0.00  0.00    +0.046 HD
ENDBRANCH  35  37
ENDBRANCH  30  31
ENDBRANCH  24  30
ENDBRANCH   1  24
TORSDOF 8
ENDMDL
MODEL 16
REMARK VINA RESULT:    -6.403      2.486      3.766
REMARK INTER + INTRA:          -9.602
REMARK INTER:                  -9.253
REMARK INTRA:                  -0.349
REMARK UNBOUND:                -0.579
REMARK  Name = 
REMARK  8 active torsions:
REMARK  status: ('A' for Active; 'I' for Inactive)
REMARK    1  A    between atoms: C_1  and  C_2
REMARK    2  A    between atoms: C_2  and  C_3
REMARK    3  A    between atoms: C_2  and  S_21
REMARK    4  A    between atoms: C_7  and  N_9
REMARK    5  A    between atoms: C_10  and  C_11
REMARK    6  A    between atoms: C_14  and  C_15
REMARK    7  A    between atoms: S_21  and  C_22
REMARK    8  A    between atoms: N_26  and  C_27
REMARK                            x       y       z     vdW  Elec       q    Type
REMARK                         _______ _______ _______ _____ _____    ______ ____
ROOT
ATOM      1  C   UNL     1      -0.143  10.387  20.466  0.00  0.00    -0.030 A 
ATOM      2  C   UNL     1      -0.161  10.536  21.855  0.00  0.00    -0.039 A 
ATOM      3  C   UNL     1       0.523   9.618  22.631  0.00  0.00    +0.030 A 
ATOM      4  N   UNL     1       1.211   8.571  22.127  0.00  0.00    -0.240 NA
ATOM      5  C   UNL     1       1.219   8.421  20.786  0.00  0.00    +0.125 A 
ATOM      6  C   UNL     1       0.560   9.293  19.932  0.00  0.00    -0.017 A 
ATOM      7  H   UNL     1      -0.702  11.344  22.336  0.00  0.00    +0.064 HD
ATOM      8  H   UNL     1       0.533   9.700  23.714  0.00  0.00    +0.083 HD
ATOM      9  H   UNL     1       0.573   9.150  18.856  0.00  0.00    +0.065 HD
ENDROOT
BRANCH   5  10
ATOM     10  N   UNL     1       1.947   7.304  20.380  0.00  0.00    -0.265 N 
ATOM     11  C   UNL     1       2.518   7.050  19.152  0.00  0.00    +0.268 C 
ATOM     12  O   UNL     1       2.488   7.821  18.198  0.00  0.00    -0.268 OA
ATOM     13  H   UNL     1       2.073   6.658  21.144  0.00  0.00    +0.157 HD
BRANCH  11  14
ATOM     14  C   UNL     1       3.209   5.745  19.049  0.00  0.00    +0.133 A 
ATOM     15  C   UNL     1       4.569   5.517  19.172  0.00  0.00    +0.008 A 
ATOM     16  S   UNL     1       4.931   3.851  18.993  0.00  0.00    -0.071 S 
ATOM     17  C   UNL     1       3.256   3.510  18.775  0.00  0.00    +0.182 A 
ATOM     18  N   UNL     1       2.473   4.575  18.828  0.00  0.00    -0.231 NA
ATOM     19  H   UNL     1       5.368   6.217  19.371  0.00  0.00    +0.072 HD
BRANCH  17  20
ATOM     20  C   UNL     1       2.821   2.087  18.551  0.00  0.00    +0.441 C 
ATOM     21  F   UNL     1       2.357   1.887  17.288  0.00  0.00    -0.164 F 
ATOM     22  F   UNL     1       3.823   1.188  18.740  0.00  0.00    -0.164 F 
ATOM     23  F   UNL     1       1.814   1.724  19.393  0.00  0.00    -0.164 F 
ENDBRANCH  17  20
ENDBRANCH  11  14
ENDBRANCH   5  10
BRANCH   1  24
ATOM     24  C   UNL     1      -0.876  11.339  19.532  0.00  0.00    +0.035 C 
ATOM     25  H   UNL     1      -1.675  11.826  20.105  0.00  0.00    +0.046 HD
BRANCH  24  26
ATOM     26  C   UNL     1      -1.524  10.611  18.350  0.00  0.00    -0.049 C 
ATOM     27  H   UNL     1      -2.148   9.782  18.706  0.00  0.00    +0.024 HD
ATOM     28  H   UNL     1      -2.174  11.277  17.773  0.00  0.00    +0.024 HD
ATOM     29  H   UNL     1      -0.787  10.191  17.658  0.00  0.00    +0.024 HD
ENDBRANCH  24  26
BRANCH  24  30
ATOM     30  S   UNL     1       0.288  12.631  18.940  0.00  0.00    -0.078 S 
BRANCH  30  31
ATOM     31  C   UNL     1       0.274  13.739  20.265  0.00  0.00    +0.192 A 
ATOM     32  N   UNL     1      -0.766  14.365  20.764  0.00  0.00    -0.123 NA
ATOM     33  N   UNL     1      -0.323  15.151  21.804  0.00  0.00    -0.137 NA
ATOM     34  C   UNL     1       0.975  14.977  21.907  0.00  0.00    +0.120 A 
ATOM     35  N   UNL     1       1.395  14.096  20.957  0.00  0.00    -0.312 N 
ATOM     36  H   UNL     1       1.624  15.452  22.629  0.00  0.00    +0.105 HD
BRANCH  35  37
ATOM     37  C   UNL     1       2.747  13.652  20.757  0.00  0.00    +0.015 C 
ATOM     38  H   UNL     1       3.277  14.368  20.123  0.00  0.00    +0.046 HD
ATOM     39  H   UNL     1       2.729  12.676  20.266  0.00  0.00    +0.046 HD
ATOM     40  H   UNL     1       3.245  13.588  21.728  0.00  0.00    +0.046 HD
ENDBRANCH  35  37
ENDBRANCH  30  31
ENDBRANCH  24  30
ENDBRANCH   1  24
TORSDOF 8
ENDMDL
MODEL 17
REMARK VINA RESULT:    -6.398      5.188      9.190
REMARK INTER + INTRA:          -9.596
REMARK INTER:                  -8.997
REMARK INTRA:                  -0.599
REMARK UNBOUND:                -0.579
REMARK  Name = 
REMARK  8 active torsions:
REMARK  status: ('A' for Active; 'I' for Inactive)
REMARK    1  A    between atoms: C_1  and  C_2
REMARK    2  A    between atoms: C_2  and  C_3
REMARK    3  A    between atoms: C_2  and  S_21
REMARK    4  A    between atoms: C_7  and  N_9
REMARK    5  A    between atoms: C_10  and  C_11
REMARK    6  A    between atoms: C_14  and  C_15
REMARK    7  A    between atoms: S_21  and  C_22
REMARK    8  A    between atoms: N_26  and  C_27
REMARK                            x       y       z     vdW  Elec       q    Type
REMARK                         _______ _______ _______ _____ _____    ______ ____
ROOT
ATOM      1  C   UNL     1       4.915   4.395  17.288  0.00  0.00    -0.030 A 
ATOM      2  C   UNL     1       4.083   3.295  17.063  0.00  0.00    -0.039 A 
ATOM      3  C   UNL     1       2.798   3.322  17.573  0.00  0.00    +0.030 A 
ATOM      4  N   UNL     1       2.291   4.349  18.286  0.00  0.00    -0.240 NA
ATOM      5  C   UNL     1       3.099   5.407  18.512  0.00  0.00    +0.125 A 
ATOM      6  C   UNL     1       4.402   5.466  18.039  0.00  0.00    -0.017 A 
ATOM      7  H   UNL     1       4.422   2.426  16.510  0.00  0.00    +0.064 HD
ATOM      8  H   UNL     1       2.120   2.487  17.419  0.00  0.00    +0.083 HD
ATOM      9  H   UNL     1       5.038   6.323  18.239  0.00  0.00    +0.065 HD
ENDROOT
BRANCH   5  10
ATOM     10  N   UNL     1       2.477   6.400  19.266  0.00  0.00    -0.265 N 
ATOM     11  C   UNL     1       2.219   7.708  18.918  0.00  0.00    +0.268 C 
ATOM     12  O   UNL     1       2.490   8.205  17.829  0.00  0.00    -0.268 OA
ATOM     13  H   UNL     1       2.161   6.036  20.152  0.00  0.00    +0.157 HD
BRANCH  11  14
ATOM     14  C   UNL     1       1.558   8.509  19.973  0.00  0.00    +0.133 A 
ATOM     15  C   UNL     1       1.345   8.131  21.288  0.00  0.00    +0.008 A 
ATOM     16  S   UNL     1       0.552   9.372  22.164  0.00  0.00    -0.071 S 
ATOM     17  C   UNL     1       0.545  10.363  20.753  0.00  0.00    +0.182 A 
ATOM     18  N   UNL     1       1.097   9.800  19.691  0.00  0.00    -0.231 NA
ATOM     19  H   UNL     1       1.616   7.213  21.791  0.00  0.00    +0.072 HD
BRANCH  17  20
ATOM     20  C   UNL     1      -0.060  11.738  20.827  0.00  0.00    +0.441 C 
ATOM     21  F   UNL     1      -0.282  12.132  22.111  0.00  0.00    -0.164 F 
ATOM     22  F   UNL     1       0.722  12.696  20.262  0.00  0.00    -0.164 F 
ATOM     23  F   UNL     1      -1.264  11.800  20.192  0.00  0.00    -0.164 F 
ENDBRANCH  17  20
ENDBRANCH  11  14
ENDBRANCH   5  10
BRANCH   1  24
ATOM     24  C   UNL     1       6.349   4.453  16.778  0.00  0.00    +0.035 C 
ATOM     25  H   UNL     1       6.596   3.472  16.352  0.00  0.00    +0.046 HD
BRANCH  24  26
ATOM     26  C   UNL     1       7.353   4.743  17.898  0.00  0.00    -0.049 C 
ATOM     27  H   UNL     1       6.831   4.920  18.846  0.00  0.00    +0.024 HD
ATOM     28  H   UNL     1       8.033   3.899  18.059  0.00  0.00    +0.024 HD
ATOM     29  H   UNL     1       7.969   5.626  17.694  0.00  0.00    +0.024 HD
ENDBRANCH  24  26
BRANCH  24  30
ATOM     30  S   UNL     1       6.474   5.714  15.449  0.00  0.00    -0.078 S 
BRANCH  30  31
ATOM     31  C   UNL     1       6.421   4.728  14.032  0.00  0.00    +0.192 A 
ATOM     32  N   UNL     1       5.562   3.773  13.763  0.00  0.00    -0.123 NA
ATOM     33  N   UNL     1       5.890   3.247  12.534  0.00  0.00    -0.137 NA
ATOM     34  C   UNL     1       6.939   3.902  12.090  0.00  0.00    +0.120 A 
ATOM     35  N   UNL     1       7.309   4.844  13.003  0.00  0.00    -0.312 N 
ATOM     36  H   UNL     1       7.444   3.733  11.150  0.00  0.00    +0.105 HD
BRANCH  35  37
ATOM     37  C   UNL     1       8.410   5.760  12.872  0.00  0.00    +0.015 C 
ATOM     38  H   UNL     1       9.032   5.463  12.024  0.00  0.00    +0.046 HD
ATOM     39  H   UNL     1       9.005   5.728  13.788  0.00  0.00    +0.046 HD
ATOM     40  H   UNL     1       8.015   6.764  12.701  0.00  0.00    +0.046 HD
ENDBRANCH  35  37
ENDBRANCH  30  31
ENDBRANCH  24  30
ENDBRANCH   1  24
TORSDOF 8
ENDMDL
MODEL 18
REMARK VINA RESULT:    -6.396      3.165      4.630
REMARK INTER + INTRA:          -9.592
REMARK INTER:                  -8.621
REMARK INTRA:                  -0.971
REMARK UNBOUND:                -0.579
REMARK  Name = 
REMARK  8 active torsions:
REMARK  status: ('A' for Active; 'I' for Inactive)
REMARK    1  A    between atoms: C_1  and  C_2
REMARK    2  A    between atoms: C_2  and  C_3
REMARK    3  A    between atoms: C_2  and  S_21
REMARK    4  A    between atoms: C_7  and  N_9
REMARK    5  A    between atoms: C_10  and  C_11
REMARK    6  A    between atoms: C_14  and  C_15
REMARK    7  A    between atoms: S_21  and  C_22
REMARK    8  A    between atoms: N_26  and  C_27
REMARK                            x       y       z     vdW  Elec       q    Type
REMARK                         _______ _______ _______ _____ _____    ______ ____
ROOT
ATOM      1  C   UNL     1      -0.012  12.253  18.949  0.00  0.00    -0.030 A 
ATOM      2  C   UNL     1      -1.278  11.966  18.433  0.00  0.00    -0.039 A 
ATOM      3  C   UNL     1      -1.509  10.710  17.902  0.00  0.00    +0.030 A 
ATOM      4  N   UNL     1      -0.578   9.734  17.843  0.00  0.00    -0.240 NA
ATOM      5  C   UNL     1       0.648  10.015  18.332  0.00  0.00    +0.125 A 
ATOM      6  C   UNL     1       0.969  11.248  18.883  0.00  0.00    -0.017 A 
ATOM      7  H   UNL     1      -2.075  12.702  18.432  0.00  0.00    +0.064 HD
ATOM      8  H   UNL     1      -2.480  10.449  17.491  0.00  0.00    +0.083 HD
ATOM      9  H   UNL     1       1.963  11.456  19.263  0.00  0.00    +0.065 HD
ENDROOT
BRANCH   5  10
ATOM     10  N   UNL     1       1.529   8.943  18.209  0.00  0.00    -0.265 N 
ATOM     11  C   UNL     1       1.968   8.075  19.185  0.00  0.00    +0.268 C 
ATOM     12  O   UNL     1       1.609   8.108  20.358  0.00  0.00    -0.268 OA
ATOM     13  H   UNL     1       1.808   8.813  17.248  0.00  0.00    +0.157 HD
BRANCH  11  14
ATOM     14  C   UNL     1       2.929   7.052  18.715  0.00  0.00    +0.133 A 
ATOM     15  C   UNL     1       3.262   5.872  19.360  0.00  0.00    +0.008 A 
ATOM     16  S   UNL     1       4.409   4.979  18.453  0.00  0.00    -0.071 S 
ATOM     17  C   UNL     1       4.396   6.198  17.235  0.00  0.00    +0.182 A 
ATOM     18  N   UNL     1       3.588   7.213  17.492  0.00  0.00    -0.231 NA
ATOM     19  H   UNL     1       2.894   5.473  20.295  0.00  0.00    +0.072 HD
BRANCH  17  20
ATOM     20  C   UNL     1       5.266   6.028  16.020  0.00  0.00    +0.441 C 
ATOM     21  F   UNL     1       6.584   6.218  16.302  0.00  0.00    -0.164 F 
ATOM     22  F   UNL     1       5.167   4.793  15.461  0.00  0.00    -0.164 F 
ATOM     23  F   UNL     1       4.951   6.920  15.039  0.00  0.00    -0.164 F 
ENDBRANCH  17  20
ENDBRANCH  11  14
ENDBRANCH   5  10
BRANCH   1  24
ATOM     24  C   UNL     1       0.341  13.610  19.543  0.00  0.00    +0.035 C 
ATOM     25  H   UNL     1      -0.566  14.228  19.536  0.00  0.00    +0.046 HD
BRANCH  24  26
ATOM     26  C   UNL     1       1.411  14.341  18.727  0.00  0.00    -0.049 C 
ATOM     27  H   UNL     1       1.241  14.196  17.653  0.00  0.00    +0.024 HD
ATOM     28  H   UNL     1       1.393  15.421  18.912  0.00  0.00    +0.024 HD
ATOM     29  H   UNL     1       2.424  13.988  18.948  0.00  0.00    +0.024 HD
ENDBRANCH  24  26
BRANCH  24  30
ATOM     30  S   UNL     1       0.885  13.392  21.283  0.00  0.00    -0.078 S 
BRANCH  30  31
ATOM     31  C   UNL     1      -0.610  13.031  22.069  0.00  0.00    +0.192 A 
ATOM     32  N   UNL     1      -1.563  13.876  22.385  0.00  0.00    -0.123 NA
ATOM     33  N   UNL     1      -2.568  13.164  23.001  0.00  0.00    -0.137 NA
ATOM     34  C   UNL     1      -2.196  11.905  23.037  0.00  0.00    +0.120 A 
ATOM     35  N   UNL     1      -0.968  11.774  22.462  0.00  0.00    -0.312 N 
ATOM     36  H   UNL     1      -2.764  11.085  23.455  0.00  0.00    +0.105 HD
BRANCH  35  37
ATOM     37  C   UNL     1      -0.232  10.548  22.312  0.00  0.00    +0.015 C 
ATOM     38  H   UNL     1      -0.582  10.018  21.423  0.00  0.00    +0.046 HD
ATOM     39  H   UNL     1      -0.399   9.927  23.196  0.00  0.00    +0.046 HD
ATOM     40  H   UNL     1       0.830  10.786  22.200  0.00  0.00    +0.046 HD
ENDBRANCH  35  37
ENDBRANCH  30  31
ENDBRANCH  24  30
ENDBRANCH   1  24
TORSDOF 8
ENDMDL
MODEL 19
REMARK VINA RESULT:    -6.390      3.385      4.536
REMARK INTER + INTRA:          -9.584
REMARK INTER:                  -9.052
REMARK INTRA:                  -0.532
REMARK UNBOUND:                -0.579
REMARK  Name = 
REMARK  8 active torsions:
REMARK  status: ('A' for Active; 'I' for Inactive)
REMARK    1  A    between atoms: C_1  and  C_2
REMARK    2  A    between atoms: C_2  and  C_3
REMARK    3  A    between atoms: C_2  and  S_21
REMARK    4  A    between atoms: C_7  and  N_9
REMARK    5  A    between atoms: C_10  and  C_11
REMARK    6  A    between atoms: C_14  and  C_15
REMARK    7  A    between atoms: S_21  and  C_22
REMARK    8  A    between atoms: N_26  and  C_27
REMARK                            x       y       z     vdW  Elec       q    Type
REMARK                         _______ _______ _______ _____ _____    ______ ____
ROOT
ATOM      1  C   UNL     1      -0.130  10.009  19.870  0.00  0.00    -0.030 A 
ATOM      2  C   UNL     1      -0.189   9.825  21.254  0.00  0.00    -0.039 A 
ATOM      3  C   UNL     1       0.652   8.894  21.836  0.00  0.00    +0.030 A 
ATOM      4  N   UNL     1       1.533   8.139  21.145  0.00  0.00    -0.240 NA
ATOM      5  C   UNL     1       1.582   8.310  19.807  0.00  0.00    +0.125 A 
ATOM      6  C   UNL     1       0.775   9.220  19.139  0.00  0.00    -0.017 A 
ATOM      7  H   UNL     1      -0.880  10.384  21.876  0.00  0.00    +0.064 HD
ATOM      8  H   UNL     1       0.637   8.722  22.908  0.00  0.00    +0.083 HD
ATOM      9  H   UNL     1       0.824   9.336  18.062  0.00  0.00    +0.065 HD
ENDROOT
BRANCH   5  10
ATOM     10  N   UNL     1       2.515   7.473  19.197  0.00  0.00    -0.265 N 
ATOM     11  C   UNL     1       2.613   6.101  19.267  0.00  0.00    +0.268 C 
ATOM     12  O   UNL     1       1.839   5.378  19.888  0.00  0.00    -0.268 OA
ATOM     13  H   UNL     1       3.141   8.000  18.608  0.00  0.00    +0.157 HD
BRANCH  11  14
ATOM     14  C   UNL     1       3.746   5.522  18.510  0.00  0.00    +0.133 A 
ATOM     15  C   UNL     1       3.664   4.647  17.440  0.00  0.00    +0.008 A 
ATOM     16  S   UNL     1       5.224   4.241  16.858  0.00  0.00    -0.071 S 
ATOM     17  C   UNL     1       5.935   5.264  18.049  0.00  0.00    +0.182 A 
ATOM     18  N   UNL     1       5.061   5.869  18.837  0.00  0.00    -0.231 NA
ATOM     19  H   UNL     1       2.790   4.233  16.956  0.00  0.00    +0.072 HD
BRANCH  17  20
ATOM     20  C   UNL     1       7.433   5.392  18.105  0.00  0.00    +0.441 C 
ATOM     21  F   UNL     1       7.888   5.517  19.382  0.00  0.00    -0.164 F 
ATOM     22  F   UNL     1       8.079   4.324  17.568  0.00  0.00    -0.164 F 
ATOM     23  F   UNL     1       7.876   6.490  17.430  0.00  0.00    -0.164 F 
ENDBRANCH  17  20
ENDBRANCH  11  14
ENDBRANCH   5  10
BRANCH   1  24
ATOM     24  C   UNL     1      -1.025  11.001  19.139  0.00  0.00    +0.035 C 
ATOM     25  H   UNL     1      -1.811  11.322  19.833  0.00  0.00    +0.046 HD
BRANCH  24  26
ATOM     26  C   UNL     1      -1.706  10.377  17.916  0.00  0.00    -0.049 C 
ATOM     27  H   UNL     1      -1.186  10.670  16.996  0.00  0.00    +0.024 HD
ATOM     28  H   UNL     1      -1.689   9.283  17.960  0.00  0.00    +0.024 HD
ATOM     29  H   UNL     1      -2.752  10.686  17.813  0.00  0.00    +0.024 HD
ENDBRANCH  24  26
BRANCH  24  30
ATOM     30  S   UNL     1      -0.038  12.471  18.654  0.00  0.00    -0.078 S 
BRANCH  30  31
ATOM     31  C   UNL     1       0.081  13.316  20.155  0.00  0.00    +0.192 A 
ATOM     32  N   UNL     1      -0.893  13.581  20.995  0.00  0.00    -0.123 NA
ATOM     33  N   UNL     1      -0.354  14.276  22.055  0.00  0.00    -0.137 NA
ATOM     34  C   UNL     1       0.933  14.409  21.829  0.00  0.00    +0.120 A 
ATOM     35  N   UNL     1       1.252  13.821  20.643  0.00  0.00    -0.312 N 
ATOM     36  H   UNL     1       1.643  14.907  22.474  0.00  0.00    +0.105 HD
BRANCH  35  37
ATOM     37  C   UNL     1       2.563  13.758  20.057  0.00  0.00    +0.015 C 
ATOM     38  H   UNL     1       2.476  13.733  18.968  0.00  0.00    +0.046 HD
ATOM     39  H   UNL     1       3.061  12.849  20.404  0.00  0.00    +0.046 HD
ATOM     40  H   UNL     1       3.126  14.646  20.357  0.00  0.00    +0.046 HD
ENDBRANCH  35  37
ENDBRANCH  30  31
ENDBRANCH  24  30
ENDBRANCH   1  24
TORSDOF 8
ENDMDL
MODEL 20
REMARK VINA RESULT:    -6.378      4.903      9.048
REMARK INTER + INTRA:          -9.568
REMARK INTER:                  -9.199
REMARK INTRA:                  -0.369
REMARK UNBOUND:                -0.579
REMARK  Name = 
REMARK  8 active torsions:
REMARK  status: ('A' for Active; 'I' for Inactive)
REMARK    1  A    between atoms: C_1  and  C_2
REMARK    2  A    between atoms: C_2  and  C_3
REMARK    3  A    between atoms: C_2  and  S_21
REMARK    4  A    between atoms: C_7  and  N_9
REMARK    5  A    between atoms: C_10  and  C_11
REMARK    6  A    between atoms: C_14  and  C_15
REMARK    7  A    between atoms: S_21  and  C_22
REMARK    8  A    between atoms: N_26  and  C_27
REMARK                            x       y       z     vdW  Elec       q    Type
REMARK                         _______ _______ _______ _____ _____    ______ ____
ROOT
ATOM      1  C   UNL     1       3.363   6.056  19.089  0.00  0.00    -0.030 A 
ATOM      2  C   UNL     1       2.867   5.019  19.884  0.00  0.00    -0.039 A 
ATOM      3  C   UNL     1       1.834   5.293  20.762  0.00  0.00    +0.030 A 
ATOM      4  N   UNL     1       1.270   6.511  20.906  0.00  0.00    -0.240 NA
ATOM      5  C   UNL     1       1.757   7.514  20.146  0.00  0.00    +0.125 A 
ATOM      6  C   UNL     1       2.793   7.331  19.240  0.00  0.00    -0.017 A 
ATOM      7  H   UNL     1       3.276   4.016  19.835  0.00  0.00    +0.064 HD
ATOM      8  H   UNL     1       1.420   4.514  21.396  0.00  0.00    +0.083 HD
ATOM      9  H   UNL     1       3.175   8.154  18.644  0.00  0.00    +0.065 HD
ENDROOT
BRANCH   5  10
ATOM     10  N   UNL     1       1.111   8.726  20.386  0.00  0.00    -0.265 N 
ATOM     11  C   UNL     1       0.652   9.650  19.473  0.00  0.00    +0.268 C 
ATOM     12  O   UNL     1       0.725   9.521  18.255  0.00  0.00    -0.268 OA
ATOM     13  H   UNL     1       0.952   8.861  21.372  0.00  0.00    +0.157 HD
BRANCH  11  14
ATOM     14  C   UNL     1       0.027  10.851  20.071  0.00  0.00    +0.133 A 
ATOM     15  C   UNL     1       0.033  12.134  19.548  0.00  0.00    +0.008 A 
ATOM     16  S   UNL     1      -0.821  13.216  20.566  0.00  0.00    -0.071 S 
ATOM     17  C   UNL     1      -1.172  11.922  21.649  0.00  0.00    +0.182 A 
ATOM     18  N   UNL     1      -0.678  10.752  21.276  0.00  0.00    -0.231 NA
ATOM     19  H   UNL     1       0.469  12.499  18.629  0.00  0.00    +0.072 HD
BRANCH  17  20
ATOM     20  C   UNL     1      -1.981  12.200  22.886  0.00  0.00    +0.441 C 
ATOM     21  F   UNL     1      -1.390  13.130  23.685  0.00  0.00    -0.164 F 
ATOM     22  F   UNL     1      -3.229  12.664  22.614  0.00  0.00    -0.164 F 
ATOM     23  F   UNL     1      -2.143  11.084  23.651  0.00  0.00    -0.164 F 
ENDBRANCH  17  20
ENDBRANCH  11  14
ENDBRANCH   5  10
BRANCH   1  24
ATOM     24  C   UNL     1       4.507   5.855  18.104  0.00  0.00    +0.035 C 
ATOM     25  H   UNL     1       5.450   5.944  18.659  0.00  0.00    +0.046 HD
BRANCH  24  26
ATOM     26  C   UNL     1       4.514   6.914  16.997  0.00  0.00    -0.049 C 
ATOM     27  H   UNL     1       5.445   6.860  16.421  0.00  0.00    +0.024 HD
ATOM     28  H   UNL     1       3.690   6.764  16.291  0.00  0.00    +0.024 HD
ATOM     29  H   UNL     1       4.429   7.933  17.388  0.00  0.00    +0.024 HD
ENDBRANCH  24  26
BRANCH  24  30
ATOM     30  S   UNL     1       4.407   4.167  17.389  0.00  0.00    -0.078 S 
BRANCH  30  31
ATOM     31  C   UNL     1       5.460   4.306  16.028  0.00  0.00    +0.192 A 
ATOM     32  N   UNL     1       5.124   4.279  14.759  0.00  0.00    -0.123 NA
ATOM     33  N   UNL     1       6.275   4.418  14.017  0.00  0.00    -0.137 NA
ATOM     34  C   UNL     1       7.278   4.530  14.858  0.00  0.00    +0.120 A 
ATOM     35  N   UNL     1       6.811   4.463  16.137  0.00  0.00    -0.312 N 
ATOM     36  H   UNL     1       8.319   4.655  14.594  0.00  0.00    +0.105 HD
BRANCH  35  37
ATOM     37  C   UNL     1       7.607   4.550  17.331  0.00  0.00    +0.015 C 
ATOM     38  H   UNL     1       8.339   5.355  17.225  0.00  0.00    +0.046 HD
ATOM     39  H   UNL     1       8.128   3.601  17.477  0.00  0.00    +0.046 HD
ATOM     40  H   UNL     1       6.949   4.765  18.178  0.00  0.00    +0.046 HD
ENDBRANCH  35  37
ENDBRANCH  30  31
ENDBRANCH  24  30
ENDBRANCH   1  24
TORSDOF 8
ENDMDL
MODEL 21
REMARK VINA RESULT:    -6.352      3.051      4.394
REMARK INTER + INTRA:          -9.531
REMARK INTER:                  -9.418
REMARK INTRA:                  -0.113
REMARK UNBOUND:                -0.579
REMARK  Name = 
REMARK  8 active torsions:
REMARK  status: ('A' for Active; 'I' for Inactive)
REMARK    1  A    between atoms: C_1  and  C_2
REMARK    2  A    between atoms: C_2  and  C_3
REMARK    3  A    between atoms: C_2  and  S_21
REMARK    4  A    between atoms: C_7  and  N_9
REMARK    5  A    between atoms: C_10  and  C_11
REMARK    6  A    between atoms: C_14  and  C_15
REMARK    7  A    between atoms: S_21  and  C_22
REMARK    8  A    between atoms: N_26  and  C_27
REMARK                            x       y       z     vdW  Elec       q    Type
REMARK                         _______ _______ _______ _____ _____    ______ ____
ROOT
ATOM      1  C   UNL     1       0.070  10.894  20.869  0.00  0.00    -0.030 A 
ATOM      2  C   UNL     1       0.092  11.606  19.667  0.00  0.00    -0.039 A 
ATOM      3  C   UNL     1       0.637  11.001  18.548  0.00  0.00    +0.030 A 
ATOM      4  N   UNL     1       1.159   9.757  18.544  0.00  0.00    -0.240 NA
ATOM      5  C   UNL     1       1.147   9.074  19.708  0.00  0.00    +0.125 A 
ATOM      6  C   UNL     1       0.622   9.602  20.879  0.00  0.00    -0.017 A 
ATOM      7  H   UNL     1      -0.297  12.616  19.593  0.00  0.00    +0.064 HD
ATOM      8  H   UNL     1       0.672  11.521  17.595  0.00  0.00    +0.083 HD
ATOM      9  H   UNL     1       0.629   9.039  21.807  0.00  0.00    +0.065 HD
ENDROOT
BRANCH   5  10
ATOM     10  N   UNL     1       1.721   7.809  19.590  0.00  0.00    -0.265 N 
ATOM     11  C   UNL     1       2.668   7.377  18.688  0.00  0.00    +0.268 C 
ATOM     12  O   UNL     1       3.188   8.085  17.831  0.00  0.00    -0.268 OA
ATOM     13  H   UNL     1       1.389   7.193  20.316  0.00  0.00    +0.157 HD
BRANCH  11  14
ATOM     14  C   UNL     1       3.047   5.952  18.824  0.00  0.00    +0.133 A 
ATOM     15  C   UNL     1       4.267   5.459  19.256  0.00  0.00    +0.008 A 
ATOM     16  S   UNL     1       4.266   3.746  19.271  0.00  0.00    -0.071 S 
ATOM     17  C   UNL     1       2.634   3.741  18.717  0.00  0.00    +0.182 A 
ATOM     18  N   UNL     1       2.122   4.946  18.528  0.00  0.00    -0.231 NA
ATOM     19  H   UNL     1       5.150   5.994  19.576  0.00  0.00    +0.072 HD
BRANCH  17  20
ATOM     20  C   UNL     1       1.938   2.426  18.499  0.00  0.00    +0.441 C 
ATOM     21  F   UNL     1       2.172   1.548  19.513  0.00  0.00    -0.164 F 
ATOM     22  F   UNL     1       0.587   2.548  18.400  0.00  0.00    -0.164 F 
ATOM     23  F   UNL     1       2.353   1.813  17.356  0.00  0.00    -0.164 F 
ENDBRANCH  17  20
ENDBRANCH  11  14
ENDBRANCH   5  10
BRANCH   1  24
ATOM     24  C   UNL     1      -0.497  11.480  22.155  0.00  0.00    +0.035 C 
ATOM     25  H   UNL     1       0.287  12.087  22.624  0.00  0.00    +0.046 HD
BRANCH  24  26
ATOM     26  C   UNL     1      -0.910  10.396  23.156  0.00  0.00    -0.049 C 
ATOM     27  H   UNL     1      -1.908  10.011  22.914  0.00  0.00    +0.024 HD
ATOM     28  H   UNL     1      -0.223   9.543  23.132  0.00  0.00    +0.024 HD
ATOM     29  H   UNL     1      -0.942  10.763  24.187  0.00  0.00    +0.024 HD
ENDBRANCH  24  26
BRANCH  24  30
ATOM     30  S   UNL     1      -1.919  12.571  21.754  0.00  0.00    -0.078 S 
BRANCH  30  31
ATOM     31  C   UNL     1      -2.010  13.554  23.171  0.00  0.00    +0.192 A 
ATOM     32  N   UNL     1      -1.076  14.343  23.650  0.00  0.00    -0.123 NA
ATOM     33  N   UNL     1      -1.569  14.929  24.794  0.00  0.00    -0.137 NA
ATOM     34  C   UNL     1      -2.790  14.481  24.975  0.00  0.00    +0.120 A 
ATOM     35  N   UNL     1      -3.110  13.611  23.977  0.00  0.00    -0.312 N 
ATOM     36  H   UNL     1      -3.453  14.751  25.785  0.00  0.00    +0.105 HD
BRANCH  35  37
ATOM     37  C   UNL     1      -4.361  12.917  23.830  0.00  0.00    +0.015 C 
ATOM     38  H   UNL     1      -5.183  13.584  24.103  0.00  0.00    +0.046 HD
ATOM     39  H   UNL     1      -4.362  12.049  24.494  0.00  0.00    +0.046 HD
ATOM     40  H   UNL     1      -4.473  12.608  22.788  0.00  0.00    +0.046 HD
ENDBRANCH  35  37
ENDBRANCH  30  31
ENDBRANCH  24  30
ENDBRANCH   1  24
TORSDOF 8
ENDMDL
MODEL 22
REMARK VINA RESULT:    -6.289      3.156      4.145
REMARK INTER + INTRA:          -9.441
REMARK INTER:                  -8.859
REMARK INTRA:                  -0.582
REMARK UNBOUND:                -0.579
REMARK  Name = 
REMARK  8 active torsions:
REMARK  status: ('A' for Active; 'I' for Inactive)
REMARK    1  A    between atoms: C_1  and  C_2
REMARK    2  A    between atoms: C_2  and  C_3
REMARK    3  A    between atoms: C_2  and  S_21
REMARK    4  A    between atoms: C_7  and  N_9
REMARK    5  A    between atoms: C_10  and  C_11
REMARK    6  A    between atoms: C_14  and  C_15
REMARK    7  A    between atoms: S_21  and  C_22
REMARK    8  A    between atoms: N_26  and  C_27
REMARK                            x       y       z     vdW  Elec       q    Type
REMARK                         _______ _______ _______ _____ _____    ______ ____
ROOT
ATOM      1  C   UNL     1      -0.367  10.242  20.017  0.00  0.00    -0.030 A 
ATOM      2  C   UNL     1      -0.369  10.176  21.413  0.00  0.00    -0.039 A 
ATOM      3  C   UNL     1       0.534   9.335  22.039  0.00  0.00    +0.030 A 
ATOM      4  N   UNL     1       1.423   8.562  21.381  0.00  0.00    -0.240 NA
ATOM      5  C   UNL     1       1.418   8.618  20.033  0.00  0.00    +0.125 A 
ATOM      6  C   UNL     1       0.547   9.432  19.322  0.00  0.00    -0.017 A 
ATOM      7  H   UNL     1      -1.062  10.757  22.012  0.00  0.00    +0.064 HD
ATOM      8  H   UNL     1       0.564   9.257  23.122  0.00  0.00    +0.083 HD
ATOM      9  H   UNL     1       0.554   9.456  18.237  0.00  0.00    +0.065 HD
ENDROOT
BRANCH   5  10
ATOM     10  N   UNL     1       2.366   7.771  19.461  0.00  0.00    -0.265 N 
ATOM     11  C   UNL     1       2.494   6.407  19.599  0.00  0.00    +0.268 C 
ATOM     12  O   UNL     1       1.739   5.700  20.259  0.00  0.00    -0.268 OA
ATOM     13  H   UNL     1       2.978   8.281  18.843  0.00  0.00    +0.157 HD
BRANCH  11  14
ATOM     14  C   UNL     1       3.636   5.816  18.866  0.00  0.00    +0.133 A 
ATOM     15  C   UNL     1       4.567   4.921  19.367  0.00  0.00    +0.008 A 
ATOM     16  S   UNL     1       5.711   4.489  18.167  0.00  0.00    -0.071 S 
ATOM     17  C   UNL     1       4.903   5.502  17.031  0.00  0.00    +0.182 A 
ATOM     18  N   UNL     1       3.845   6.129  17.519  0.00  0.00    -0.231 NA
ATOM     19  H   UNL     1       4.638   4.484  20.353  0.00  0.00    +0.072 HD
BRANCH  17  20
ATOM     20  C   UNL     1       5.433   5.597  15.626  0.00  0.00    +0.441 C 
ATOM     21  F   UNL     1       5.003   6.721  14.991  0.00  0.00    -0.164 F 
ATOM     22  F   UNL     1       6.791   5.619  15.570  0.00  0.00    -0.164 F 
ATOM     23  F   UNL     1       5.034   4.544  14.858  0.00  0.00    -0.164 F 
ENDBRANCH  17  20
ENDBRANCH  11  14
ENDBRANCH   5  10
BRANCH   1  24
ATOM     24  C   UNL     1      -1.331  11.127  19.240  0.00  0.00    +0.035 C 
ATOM     25  H   UNL     1      -2.075  11.518  19.945  0.00  0.00    +0.046 HD
BRANCH  24  26
ATOM     26  C   UNL     1      -2.081  10.354  18.150  0.00  0.00    -0.049 C 
ATOM     27  H   UNL     1      -1.373   9.899  17.447  0.00  0.00    +0.024 HD
ATOM     28  H   UNL     1      -2.680   9.540  18.573  0.00  0.00    +0.024 HD
ATOM     29  H   UNL     1      -2.756  10.991  17.569  0.00  0.00    +0.024 HD
ENDBRANCH  24  26
BRANCH  24  30
ATOM     30  S   UNL     1      -0.411  12.543  18.516  0.00  0.00    -0.078 S 
BRANCH  30  31
ATOM     31  C   UNL     1       0.189  13.324  19.935  0.00  0.00    +0.192 A 
ATOM     32  N   UNL     1       1.426  13.330  20.374  0.00  0.00    -0.123 NA
ATOM     33  N   UNL     1       1.455  14.067  21.536  0.00  0.00    -0.137 NA
ATOM     34  C   UNL     1       0.233  14.490  21.768  0.00  0.00    +0.120 A 
ATOM     35  N   UNL     1      -0.599  14.045  20.785  0.00  0.00    -0.312 N 
ATOM     36  H   UNL     1      -0.081  15.098  22.605  0.00  0.00    +0.105 HD
BRANCH  35  37
ATOM     37  C   UNL     1      -2.010  14.305  20.691  0.00  0.00    +0.015 C 
ATOM     38  H   UNL     1      -2.243  15.242  21.205  0.00  0.00    +0.046 HD
ATOM     39  H   UNL     1      -2.552  13.484  21.168  0.00  0.00    +0.046 HD
ATOM     40  H   UNL     1      -2.283  14.390  19.636  0.00  0.00    +0.046 HD
ENDBRANCH  35  37
ENDBRANCH  30  31
ENDBRANCH  24  30
ENDBRANCH   1  24
TORSDOF 8
ENDMDL
MODEL 23
REMARK VINA RESULT:    -6.287      3.788      4.980
REMARK INTER + INTRA:          -9.439
REMARK INTER:                  -9.292
REMARK INTRA:                  -0.148
REMARK UNBOUND:                -0.579
REMARK  Name = 
REMARK  8 active torsions:
REMARK  status: ('A' for Active; 'I' for Inactive)
REMARK    1  A    between atoms: C_1  and  C_2
REMARK    2  A    between atoms: C_2  and  C_3
REMARK    3  A    between atoms: C_2  and  S_21
REMARK    4  A    between atoms: C_7  and  N_9
REMARK    5  A    between atoms: C_10  and  C_11
REMARK    6  A    between atoms: C_14  and  C_15
REMARK    7  A    between atoms: S_21  and  C_22
REMARK    8  A    between atoms: N_26  and  C_27
REMARK                            x       y       z     vdW  Elec       q    Type
REMARK                         _______ _______ _______ _____ _____    ______ ____
ROOT
ATOM      1  C   UNL     1       1.726   7.727  19.977  0.00  0.00    -0.030 A 
ATOM      2  C   UNL     1       1.475   6.669  20.855  0.00  0.00    -0.039 A 
ATOM      3  C   UNL     1       2.078   5.448  20.612  0.00  0.00    +0.030 A 
ATOM      4  N   UNL     1       2.898   5.207  19.568  0.00  0.00    -0.240 NA
ATOM      5  C   UNL     1       3.132   6.226  18.714  0.00  0.00    +0.125 A 
ATOM      6  C   UNL     1       2.569   7.484  18.879  0.00  0.00    -0.017 A 
ATOM      7  H   UNL     1       0.817   6.780  21.710  0.00  0.00    +0.064 HD
ATOM      8  H   UNL     1       1.908   4.602  21.272  0.00  0.00    +0.083 HD
ATOM      9  H   UNL     1       2.764   8.288  18.176  0.00  0.00    +0.065 HD
ENDROOT
BRANCH   5  10
ATOM     10  N   UNL     1       3.980   5.862  17.670  0.00  0.00    -0.265 N 
ATOM     11  C   UNL     1       4.076   4.649  17.024  0.00  0.00    +0.268 C 
ATOM     12  O   UNL     1       3.375   3.673  17.270  0.00  0.00    -0.268 OA
ATOM     13  H   UNL     1       4.537   6.647  17.368  0.00  0.00    +0.157 HD
BRANCH  11  14
ATOM     14  C   UNL     1       5.108   4.593  15.964  0.00  0.00    +0.133 A 
ATOM     15  C   UNL     1       6.417   5.037  16.059  0.00  0.00    +0.008 A 
ATOM     16  S   UNL     1       7.265   4.766  14.595  0.00  0.00    -0.071 S 
ATOM     17  C   UNL     1       5.853   4.056  13.908  0.00  0.00    +0.182 A 
ATOM     18  N   UNL     1       4.809   4.027  14.720  0.00  0.00    -0.231 NA
ATOM     19  H   UNL     1       6.930   5.487  16.897  0.00  0.00    +0.072 HD
BRANCH  17  20
ATOM     20  C   UNL     1       5.904   3.542  12.495  0.00  0.00    +0.441 C 
ATOM     21  F   UNL     1       6.893   4.134  11.770  0.00  0.00    -0.164 F 
ATOM     22  F   UNL     1       6.124   2.202  12.423  0.00  0.00    -0.164 F 
ATOM     23  F   UNL     1       4.742   3.777  11.824  0.00  0.00    -0.164 F 
ENDBRANCH  17  20
ENDBRANCH  11  14
ENDBRANCH   5  10
BRANCH   1  24
ATOM     24  C   UNL     1       1.098   9.103  20.154  0.00  0.00    +0.035 C 
ATOM     25  H   UNL     1       1.872   9.780  20.537  0.00  0.00    +0.046 HD
BRANCH  24  26
ATOM     26  C   UNL     1      -0.055   9.090  21.162  0.00  0.00    -0.049 C 
ATOM     27  H   UNL     1       0.332   9.132  22.188  0.00  0.00    +0.024 HD
ATOM     28  H   UNL     1      -0.714   9.956  21.032  0.00  0.00    +0.024 HD
ATOM     29  H   UNL     1      -0.675   8.191  21.083  0.00  0.00    +0.024 HD
ENDBRANCH  24  26
BRANCH  24  30
ATOM     30  S   UNL     1       0.530   9.728  18.524  0.00  0.00    -0.078 S 
BRANCH  30  31
ATOM     31  C   UNL     1      -0.187  11.237  18.964  0.00  0.00    +0.192 A 
ATOM     32  N   UNL     1      -1.455  11.471  19.209  0.00  0.00    -0.123 NA
ATOM     33  N   UNL     1      -1.583  12.807  19.516  0.00  0.00    -0.137 NA
ATOM     34  C   UNL     1      -0.386  13.345  19.452  0.00  0.00    +0.120 A 
ATOM     35  N   UNL     1       0.525  12.393  19.107  0.00  0.00    -0.312 N 
ATOM     36  H   UNL     1      -0.144  14.381  19.641  0.00  0.00    +0.105 HD
BRANCH  35  37
ATOM     37  C   UNL     1       1.938  12.598  18.940  0.00  0.00    +0.015 C 
ATOM     38  H   UNL     1       2.224  13.553  19.388  0.00  0.00    +0.046 HD
ATOM     39  H   UNL     1       2.168  12.614  17.872  0.00  0.00    +0.046 HD
ATOM     40  H   UNL     1       2.474  11.786  19.440  0.00  0.00    +0.046 HD
ENDBRANCH  35  37
ENDBRANCH  30  31
ENDBRANCH  24  30
ENDBRANCH   1  24
TORSDOF 8
ENDMDL
MODEL 24
REMARK VINA RESULT:    -6.260      5.490      9.427
REMARK INTER + INTRA:          -9.401
REMARK INTER:                  -8.942
REMARK INTRA:                  -0.459
REMARK UNBOUND:                -0.579
REMARK  Name = 
REMARK  8 active torsions:
REMARK  status: ('A' for Active; 'I' for Inactive)
REMARK    1  A    between atoms: C_1  and  C_2
REMARK    2  A    between atoms: C_2  and  C_3
REMARK    3  A    between atoms: C_2  and  S_21
REMARK    4  A    between atoms: C_7  and  N_9
REMARK    5  A    between atoms: C_10  and  C_11
REMARK    6  A    between atoms: C_14  and  C_15
REMARK    7  A    between atoms: S_21  and  C_22
REMARK    8  A    between atoms: N_26  and  C_27
REMARK                            x       y       z     vdW  Elec       q    Type
REMARK                         _______ _______ _______ _____ _____    ______ ____
ROOT
ATOM      1  C   UNL     1       2.070   7.336  19.244  0.00  0.00    -0.030 A 
ATOM      2  C   UNL     1       2.453   7.898  18.023  0.00  0.00    -0.039 A 
ATOM      3  C   UNL     1       2.181   9.235  17.793  0.00  0.00    +0.030 A 
ATOM      4  N   UNL     1       1.558  10.040  18.680  0.00  0.00    -0.240 NA
ATOM      5  C   UNL     1       1.179   9.494  19.855  0.00  0.00    +0.125 A 
ATOM      6  C   UNL     1       1.410   8.162  20.170  0.00  0.00    -0.017 A 
ATOM      7  H   UNL     1       2.946   7.313  17.254  0.00  0.00    +0.064 HD
ATOM      8  H   UNL     1       2.463   9.708  16.857  0.00  0.00    +0.083 HD
ATOM      9  H   UNL     1       1.090   7.742  21.117  0.00  0.00    +0.065 HD
ENDROOT
BRANCH   5  10
ATOM     10  N   UNL     1       0.537  10.411  20.685  0.00  0.00    -0.265 N 
ATOM     11  C   UNL     1      -0.695  11.005  20.518  0.00  0.00    +0.268 C 
ATOM     12  O   UNL     1      -1.454  10.782  19.579  0.00  0.00    -0.268 OA
ATOM     13  H   UNL     1       1.078  10.584  21.518  0.00  0.00    +0.157 HD
BRANCH  11  14
ATOM     14  C   UNL     1      -1.071  11.958  21.586  0.00  0.00    +0.133 A 
ATOM     15  C   UNL     1      -0.333  13.045  22.023  0.00  0.00    +0.008 A 
ATOM     16  S   UNL     1      -1.153  13.883  23.273  0.00  0.00    -0.071 S 
ATOM     17  C   UNL     1      -2.462  12.767  23.162  0.00  0.00    +0.182 A 
ATOM     18  N   UNL     1      -2.295  11.823  22.251  0.00  0.00    -0.231 NA
ATOM     19  H   UNL     1       0.626  13.408  21.678  0.00  0.00    +0.072 HD
BRANCH  17  20
ATOM     20  C   UNL     1      -3.649  12.939  24.070  0.00  0.00    +0.441 C 
ATOM     21  F   UNL     1      -4.013  11.770  24.664  0.00  0.00    -0.164 F 
ATOM     22  F   UNL     1      -3.429  13.828  25.074  0.00  0.00    -0.164 F 
ATOM     23  F   UNL     1      -4.746  13.385  23.395  0.00  0.00    -0.164 F 
ENDBRANCH  17  20
ENDBRANCH  11  14
ENDBRANCH   5  10
BRANCH   1  24
ATOM     24  C   UNL     1       2.314   5.872  19.582  0.00  0.00    +0.035 C 
ATOM     25  H   UNL     1       1.687   5.263  18.920  0.00  0.00    +0.046 HD
BRANCH  24  26
ATOM     26  C   UNL     1       1.932   5.538  21.028  0.00  0.00    -0.049 C 
ATOM     27  H   UNL     1       0.916   5.887  21.247  0.00  0.00    +0.024 HD
ATOM     28  H   UNL     1       1.946   4.458  21.209  0.00  0.00    +0.024 HD
ATOM     29  H   UNL     1       2.602   6.002  21.759  0.00  0.00    +0.024 HD
ENDBRANCH  24  26
BRANCH  24  30
ATOM     30  S   UNL     1       4.075   5.458  19.262  0.00  0.00    -0.078 S 
BRANCH  30  31
ATOM     31  C   UNL     1       4.009   3.735  19.156  0.00  0.00    +0.192 A 
ATOM     32  N   UNL     1       4.541   2.868  19.985  0.00  0.00    -0.123 NA
ATOM     33  N   UNL     1       4.250   1.607  19.517  0.00  0.00    -0.137 NA
ATOM     34  C   UNL     1       3.545   1.745  18.417  0.00  0.00    +0.120 A 
ATOM     35  N   UNL     1       3.369   3.069  18.151  0.00  0.00    -0.312 N 
ATOM     36  H   UNL     1       3.157   0.942  17.806  0.00  0.00    +0.105 HD
BRANCH  35  37
ATOM     37  C   UNL     1       2.648   3.617  17.034  0.00  0.00    +0.015 C 
ATOM     38  H   UNL     1       2.493   4.688  17.188  0.00  0.00    +0.046 HD
ATOM     39  H   UNL     1       1.680   3.116  16.960  0.00  0.00    +0.046 HD
ATOM     40  H   UNL     1       3.235   3.461  16.124  0.00  0.00    +0.046 HD
ENDBRANCH  35  37
ENDBRANCH  30  31
ENDBRANCH  24  30
ENDBRANCH   1  24
TORSDOF 8
ENDMDL
MODEL 25
REMARK VINA RESULT:    -6.259      5.246      9.243
REMARK INTER + INTRA:          -9.399
REMARK INTER:                  -8.780
REMARK INTRA:                  -0.620
REMARK UNBOUND:                -0.579
REMARK  Name = 
REMARK  8 active torsions:
REMARK  status: ('A' for Active; 'I' for Inactive)
REMARK    1  A    between atoms: C_1  and  C_2
REMARK    2  A    between atoms: C_2  and  C_3
REMARK    3  A    between atoms: C_2  and  S_21
REMARK    4  A    between atoms: C_7  and  N_9
REMARK    5  A    between atoms: C_10  and  C_11
REMARK    6  A    between atoms: C_14  and  C_15
REMARK    7  A    between atoms: S_21  and  C_22
REMARK    8  A    between atoms: N_26  and  C_27
REMARK                            x       y       z     vdW  Elec       q    Type
REMARK                         _______ _______ _______ _____ _____    ______ ____
ROOT
ATOM      1  C   UNL     1       3.022   5.399  18.778  0.00  0.00    -0.030 A 
ATOM      2  C   UNL     1       2.439   4.603  19.768  0.00  0.00    -0.039 A 
ATOM      3  C   UNL     1       1.646   5.210  20.725  0.00  0.00    +0.030 A 
ATOM      4  N   UNL     1       1.399   6.536  20.769  0.00  0.00    -0.240 NA
ATOM      5  C   UNL     1       1.971   7.306  19.819  0.00  0.00    +0.125 A 
ATOM      6  C   UNL     1       2.782   6.783  18.821  0.00  0.00    -0.017 A 
ATOM      7  H   UNL     1       2.600   3.531  19.808  0.00  0.00    +0.064 HD
ATOM      8  H   UNL     1       1.175   4.626  21.511  0.00  0.00    +0.083 HD
ATOM      9  H   UNL     1       3.238   7.421  18.071  0.00  0.00    +0.065 HD
ENDROOT
BRANCH   5  10
ATOM     10  N   UNL     1       1.659   8.656  19.968  0.00  0.00    -0.265 N 
ATOM     11  C   UNL     1       1.175   9.535  19.025  0.00  0.00    +0.268 C 
ATOM     12  O   UNL     1       0.913   9.236  17.864  0.00  0.00    -0.268 OA
ATOM     13  H   UNL     1       1.784   8.951  20.924  0.00  0.00    +0.157 HD
BRANCH  11  14
ATOM     14  C   UNL     1       0.972  10.917  19.514  0.00  0.00    +0.133 A 
ATOM     15  C   UNL     1       0.299  11.296  20.665  0.00  0.00    +0.008 A 
ATOM     16  S   UNL     1       0.315  13.000  20.851  0.00  0.00    -0.071 S 
ATOM     17  C   UNL     1       1.231  13.151  19.399  0.00  0.00    +0.182 A 
ATOM     18  N   UNL     1       1.505  12.000  18.807  0.00  0.00    -0.231 NA
ATOM     19  H   UNL     1      -0.185  10.683  21.411  0.00  0.00    +0.072 HD
BRANCH  17  20
ATOM     20  C   UNL     1       1.636  14.521  18.928  0.00  0.00    +0.441 C 
ATOM     21  F   UNL     1       0.569  15.258  18.516  0.00  0.00    -0.164 F 
ATOM     22  F   UNL     1       2.259  15.252  19.890  0.00  0.00    -0.164 F 
ATOM     23  F   UNL     1       2.495  14.464  17.872  0.00  0.00    -0.164 F 
ENDBRANCH  17  20
ENDBRANCH  11  14
ENDBRANCH   5  10
BRANCH   1  24
ATOM     24  C   UNL     1       3.920   4.824  17.691  0.00  0.00    +0.035 C 
ATOM     25  H   UNL     1       4.052   5.594  16.920  0.00  0.00    +0.046 HD
BRANCH  24  26
ATOM     26  C   UNL     1       3.306   3.591  17.022  0.00  0.00    -0.049 C 
ATOM     27  H   UNL     1       3.525   2.689  17.605  0.00  0.00    +0.024 HD
ATOM     28  H   UNL     1       2.216   3.671  16.952  0.00  0.00    +0.024 HD
ATOM     29  H   UNL     1       3.689   3.427  16.009  0.00  0.00    +0.024 HD
ENDBRANCH  24  26
BRANCH  24  30
ATOM     30  S   UNL     1       5.564   4.426  18.406  0.00  0.00    -0.078 S 
BRANCH  30  31
ATOM     31  C   UNL     1       6.445   5.872  18.068  0.00  0.00    +0.192 A 
ATOM     32  N   UNL     1       6.161   6.782  17.166  0.00  0.00    -0.123 NA
ATOM     33  N   UNL     1       7.129   7.759  17.236  0.00  0.00    -0.137 NA
ATOM     34  C   UNL     1       7.972   7.415  18.182  0.00  0.00    +0.120 A 
ATOM     35  N   UNL     1       7.582   6.232  18.733  0.00  0.00    -0.312 N 
ATOM     36  H   UNL     1       8.847   7.972  18.488  0.00  0.00    +0.105 HD
BRANCH  35  37
ATOM     37  C   UNL     1       8.251   5.536  19.799  0.00  0.00    +0.015 C 
ATOM     38  H   UNL     1       8.749   4.649  19.400  0.00  0.00    +0.046 HD
ATOM     39  H   UNL     1       7.509   5.233  20.542  0.00  0.00    +0.046 HD
ATOM     40  H   UNL     1       8.994   6.203  20.243  0.00  0.00    +0.046 HD
ENDBRANCH  35  37
ENDBRANCH  30  31
ENDBRANCH  24  30
ENDBRANCH   1  24
TORSDOF 8
ENDMDL
MODEL 26
REMARK VINA RESULT:    -6.258      1.914      2.250
REMARK INTER + INTRA:          -9.398
REMARK INTER:                  -9.073
REMARK INTRA:                  -0.326
REMARK UNBOUND:                -0.579
REMARK  Name = 
REMARK  8 active torsions:
REMARK  status: ('A' for Active; 'I' for Inactive)
REMARK    1  A    between atoms: C_1  and  C_2
REMARK    2  A    between atoms: C_2  and  C_3
REMARK    3  A    between atoms: C_2  and  S_21
REMARK    4  A    between atoms: C_7  and  N_9
REMARK    5  A    between atoms: C_10  and  C_11
REMARK    6  A    between atoms: C_14  and  C_15
REMARK    7  A    between atoms: S_21  and  C_22
REMARK    8  A    between atoms: N_26  and  C_27
REMARK                            x       y       z     vdW  Elec       q    Type
REMARK                         _______ _______ _______ _____ _____    ______ ____
ROOT
ATOM      1  C   UNL     1       0.323  11.368  21.058  0.00  0.00    -0.030 A 
ATOM      2  C   UNL     1      -0.458  11.412  22.216  0.00  0.00    -0.039 A 
ATOM      3  C   UNL     1      -0.625  10.251  22.948  0.00  0.00    +0.030 A 
ATOM      4  N   UNL     1      -0.081   9.062  22.610  0.00  0.00    -0.240 NA
ATOM      5  C   UNL     1       0.664   9.018  21.486  0.00  0.00    +0.125 A 
ATOM      6  C   UNL     1       0.884  10.133  20.690  0.00  0.00    -0.017 A 
ATOM      7  H   UNL     1      -0.939  12.326  22.546  0.00  0.00    +0.064 HD
ATOM      8  H   UNL     1      -1.224  10.244  23.854  0.00  0.00    +0.083 HD
ATOM      9  H   UNL     1       1.481  10.074  19.785  0.00  0.00    +0.065 HD
ENDROOT
BRANCH   5  10
ATOM     10  N   UNL     1       1.164   7.742  21.228  0.00  0.00    -0.265 N 
ATOM     11  C   UNL     1       1.879   7.305  20.136  0.00  0.00    +0.268 C 
ATOM     12  O   UNL     1       2.219   8.016  19.195  0.00  0.00    -0.268 OA
ATOM     13  H   UNL     1       0.983   7.121  22.001  0.00  0.00    +0.157 HD
BRANCH  11  14
ATOM     14  C   UNL     1       2.241   5.869  20.168  0.00  0.00    +0.133 A 
ATOM     15  C   UNL     1       1.583   4.866  20.860  0.00  0.00    +0.008 A 
ATOM     16  S   UNL     1       2.337   3.349  20.606  0.00  0.00    -0.071 S 
ATOM     17  C   UNL     1       3.495   4.097  19.572  0.00  0.00    +0.182 A 
ATOM     18  N   UNL     1       3.332   5.402  19.428  0.00  0.00    -0.231 NA
ATOM     19  H   UNL     1       0.702   4.926  21.485  0.00  0.00    +0.072 HD
BRANCH  17  20
ATOM     20  C   UNL     1       4.561   3.250  18.933  0.00  0.00    +0.441 C 
ATOM     21  F   UNL     1       4.933   2.209  19.727  0.00  0.00    -0.164 F 
ATOM     22  F   UNL     1       4.174   2.710  17.747  0.00  0.00    -0.164 F 
ATOM     23  F   UNL     1       5.694   3.963  18.679  0.00  0.00    -0.164 F 
ENDBRANCH  17  20
ENDBRANCH  11  14
ENDBRANCH   5  10
BRANCH   1  24
ATOM     24  C   UNL     1       0.553  12.591  20.180  0.00  0.00    +0.035 C 
ATOM     25  H   UNL     1       0.874  12.241  19.191  0.00  0.00    +0.046 HD
BRANCH  24  26
ATOM     26  C   UNL     1       1.652  13.504  20.733  0.00  0.00    -0.049 C 
ATOM     27  H   UNL     1       1.640  13.498  21.830  0.00  0.00    +0.024 HD
ATOM     28  H   UNL     1       2.648  13.172  20.421  0.00  0.00    +0.024 HD
ATOM     29  H   UNL     1       1.537  14.544  20.411  0.00  0.00    +0.024 HD
ENDBRANCH  24  26
BRANCH  24  30
ATOM     30  S   UNL     1      -1.024  13.512  19.991  0.00  0.00    -0.078 S 
BRANCH  30  31
ATOM     31  C   UNL     1      -1.921  12.451  18.965  0.00  0.00    +0.192 A 
ATOM     32  N   UNL     1      -1.484  11.824  17.897  0.00  0.00    -0.123 NA
ATOM     33  N   UNL     1      -2.531  11.092  17.383  0.00  0.00    -0.137 NA
ATOM     34  C   UNL     1      -3.574  11.293  18.157  0.00  0.00    +0.120 A 
ATOM     35  N   UNL     1      -3.235  12.144  19.166  0.00  0.00    -0.312 N 
ATOM     36  H   UNL     1      -4.555  10.860  18.028  0.00  0.00    +0.105 HD
BRANCH  35  37
ATOM     37  C   UNL     1      -4.108  12.600  20.214  0.00  0.00    +0.015 C 
ATOM     38  H   UNL     1      -4.993  11.959  20.257  0.00  0.00    +0.046 HD
ATOM     39  H   UNL     1      -4.413  13.626  19.997  0.00  0.00    +0.046 HD
ATOM     40  H   UNL     1      -3.573  12.547  21.166  0.00  0.00    +0.046 HD
ENDBRANCH  35  37
ENDBRANCH  30  31
ENDBRANCH  24  30
ENDBRANCH   1  24
TORSDOF 8
ENDMDL
MODEL 27
REMARK VINA RESULT:    -6.207      4.867      9.027
REMARK INTER + INTRA:          -9.326
REMARK INTER:                  -9.179
REMARK INTRA:                  -0.147
REMARK UNBOUND:                -0.579
REMARK  Name = 
REMARK  8 active torsions:
REMARK  status: ('A' for Active; 'I' for Inactive)
REMARK    1  A    between atoms: C_1  and  C_2
REMARK    2  A    between atoms: C_2  and  C_3
REMARK    3  A    between atoms: C_2  and  S_21
REMARK    4  A    between atoms: C_7  and  N_9
REMARK    5  A    between atoms: C_10  and  C_11
REMARK    6  A    between atoms: C_14  and  C_15
REMARK    7  A    between atoms: S_21  and  C_22
REMARK    8  A    between atoms: N_26  and  C_27
REMARK                            x       y       z     vdW  Elec       q    Type
REMARK                         _______ _______ _______ _____ _____    ______ ____
ROOT
ATOM      1  C   UNL     1       2.804   5.094  18.833  0.00  0.00    -0.030 A 
ATOM      2  C   UNL     1       2.520   4.351  19.981  0.00  0.00    -0.039 A 
ATOM      3  C   UNL     1       1.940   4.994  21.060  0.00  0.00    +0.030 A 
ATOM      4  N   UNL     1       1.633   6.308  21.079  0.00  0.00    -0.240 NA
ATOM      5  C   UNL     1       1.917   7.027  19.973  0.00  0.00    +0.125 A 
ATOM      6  C   UNL     1       2.499   6.466  18.844  0.00  0.00    -0.017 A 
ATOM      7  H   UNL     1       2.749   3.293  20.049  0.00  0.00    +0.064 HD
ATOM      8  H   UNL     1       1.703   4.451  21.971  0.00  0.00    +0.083 HD
ATOM      9  H   UNL     1       2.727   7.065  17.968  0.00  0.00    +0.065 HD
ENDROOT
BRANCH   5  10
ATOM     10  N   UNL     1       1.570   8.371  20.107  0.00  0.00    -0.265 N 
ATOM     11  C   UNL     1       0.532   8.922  20.825  0.00  0.00    +0.268 C 
ATOM     12  O   UNL     1      -0.263   8.279  21.504  0.00  0.00    -0.268 OA
ATOM     13  H   UNL     1       2.231   8.964  19.629  0.00  0.00    +0.157 HD
BRANCH  11  14
ATOM     14  C   UNL     1       0.432  10.396  20.735  0.00  0.00    +0.133 A 
ATOM     15  C   UNL     1       0.062  11.263  21.750  0.00  0.00    +0.008 A 
ATOM     16  S   UNL     1       0.093  12.889  21.210  0.00  0.00    -0.071 S 
ATOM     17  C   UNL     1       0.613  12.363  19.653  0.00  0.00    +0.182 A 
ATOM     18  N   UNL     1       0.751  11.052  19.542  0.00  0.00    -0.231 NA
ATOM     19  H   UNL     1      -0.208  11.047  22.774  0.00  0.00    +0.072 HD
BRANCH  17  20
ATOM     20  C   UNL     1       0.863  13.386  18.579  0.00  0.00    +0.441 C 
ATOM     21  F   UNL     1       1.888  13.028  17.759  0.00  0.00    -0.164 F 
ATOM     22  F   UNL     1      -0.216  13.593  17.779  0.00  0.00    -0.164 F 
ATOM     23  F   UNL     1       1.195  14.601  19.100  0.00  0.00    -0.164 F 
ENDBRANCH  17  20
ENDBRANCH  11  14
ENDBRANCH   5  10
BRANCH   1  24
ATOM     24  C   UNL     1       3.452   4.478  17.600  0.00  0.00    +0.035 C 
ATOM     25  H   UNL     1       3.433   5.227  16.799  0.00  0.00    +0.046 HD
BRANCH  24  26
ATOM     26  C   UNL     1       2.698   3.241  17.103  0.00  0.00    -0.049 C 
ATOM     27  H   UNL     1       1.797   3.073  17.705  0.00  0.00    +0.024 HD
ATOM     28  H   UNL     1       2.372   3.358  16.064  0.00  0.00    +0.024 HD
ATOM     29  H   UNL     1       3.301   2.329  17.157  0.00  0.00    +0.024 HD
ENDBRANCH  24  26
BRANCH  24  30
ATOM     30  S   UNL     1       5.203   4.066  17.974  0.00  0.00    -0.078 S 
BRANCH  30  31
ATOM     31  C   UNL     1       5.945   4.287  16.430  0.00  0.00    +0.192 A 
ATOM     32  N   UNL     1       5.808   3.528  15.368  0.00  0.00    -0.123 NA
ATOM     33  N   UNL     1       6.580   4.068  14.364  0.00  0.00    -0.137 NA
ATOM     34  C   UNL     1       7.161   5.143  14.845  0.00  0.00    +0.120 A 
ATOM     35  N   UNL     1       6.790   5.320  16.144  0.00  0.00    -0.312 N 
ATOM     36  H   UNL     1       7.832   5.798  14.307  0.00  0.00    +0.105 HD
BRANCH  35  37
ATOM     37  C   UNL     1       7.217   6.389  17.006  0.00  0.00    +0.015 C 
ATOM     38  H   UNL     1       7.326   6.014  18.027  0.00  0.00    +0.046 HD
ATOM     39  H   UNL     1       6.463   7.180  16.986  0.00  0.00    +0.046 HD
ATOM     40  H   UNL     1       8.181   6.764  16.651  0.00  0.00    +0.046 HD
ENDBRANCH  35  37
ENDBRANCH  30  31
ENDBRANCH  24  30
ENDBRANCH   1  24
TORSDOF 8
ENDMDL
MODEL 28
REMARK VINA RESULT:    -6.186      3.177      3.913
REMARK INTER + INTRA:          -9.296
REMARK INTER:                  -8.979
REMARK INTRA:                  -0.318
REMARK UNBOUND:                -0.579
REMARK  Name = 
REMARK  8 active torsions:
REMARK  status: ('A' for Active; 'I' for Inactive)
REMARK    1  A    between atoms: C_1  and  C_2
REMARK    2  A    between atoms: C_2  and  C_3
REMARK    3  A    between atoms: C_2  and  S_21
REMARK    4  A    between atoms: C_7  and  N_9
REMARK    5  A    between atoms: C_10  and  C_11
REMARK    6  A    between atoms: C_14  and  C_15
REMARK    7  A    between atoms: S_21  and  C_22
REMARK    8  A    between atoms: N_26  and  C_27
REMARK                            x       y       z     vdW  Elec       q    Type
REMARK                         _______ _______ _______ _____ _____    ______ ____
ROOT
ATOM      1  C   UNL     1      -0.320  10.272  20.674  0.00  0.00    -0.030 A 
ATOM      2  C   UNL     1      -0.114  10.273  22.056  0.00  0.00    -0.039 A 
ATOM      3  C   UNL     1       0.794   9.378  22.591  0.00  0.00    +0.030 A 
ATOM      4  N   UNL     1       1.498   8.489  21.858  0.00  0.00    -0.240 NA
ATOM      5  C   UNL     1       1.290   8.482  20.525  0.00  0.00    +0.125 A 
ATOM      6  C   UNL     1       0.398   9.343  19.902  0.00  0.00    -0.017 A 
ATOM      7  H   UNL     1      -0.651  10.948  22.713  0.00  0.00    +0.064 HD
ATOM      8  H   UNL     1       0.983   9.348  23.660  0.00  0.00    +0.083 HD
ATOM      9  H   UNL     1       0.240   9.315  18.829  0.00  0.00    +0.065 HD
ENDROOT
BRANCH   5  10
ATOM     10  N   UNL     1       2.058   7.519  19.872  0.00  0.00    -0.265 N 
ATOM     11  C   UNL     1       2.634   7.583  18.622  0.00  0.00    +0.268 C 
ATOM     12  O   UNL     1       2.573   8.555  17.876  0.00  0.00    -0.268 OA
ATOM     13  H   UNL     1       2.210   6.717  20.463  0.00  0.00    +0.157 HD
BRANCH  11  14
ATOM     14  C   UNL     1       3.373   6.365  18.219  0.00  0.00    +0.133 A 
ATOM     15  C   UNL     1       3.301   5.118  18.819  0.00  0.00    +0.008 A 
ATOM     16  S   UNL     1       4.318   3.993  18.019  0.00  0.00    -0.071 S 
ATOM     17  C   UNL     1       4.793   5.216  16.901  0.00  0.00    +0.182 A 
ATOM     18  N   UNL     1       4.231   6.395  17.115  0.00  0.00    -0.231 NA
ATOM     19  H   UNL     1       2.708   4.794  19.662  0.00  0.00    +0.072 HD
BRANCH  17  20
ATOM     20  C   UNL     1       5.769   4.872  15.810  0.00  0.00    +0.441 C 
ATOM     21  F   UNL     1       5.359   5.326  14.594  0.00  0.00    -0.164 F 
ATOM     22  F   UNL     1       7.007   5.394  16.018  0.00  0.00    -0.164 F 
ATOM     23  F   UNL     1       5.936   3.526  15.681  0.00  0.00    -0.164 F 
ENDBRANCH  17  20
ENDBRANCH  11  14
ENDBRANCH   5  10
BRANCH   1  24
ATOM     24  C   UNL     1      -1.308  11.211  19.994  0.00  0.00    +0.035 C 
ATOM     25  H   UNL     1      -2.315  10.798  20.130  0.00  0.00    +0.046 HD
BRANCH  24  26
ATOM     26  C   UNL     1      -1.052  11.335  18.489  0.00  0.00    -0.049 C 
ATOM     27  H   UNL     1      -1.832  11.943  18.015  0.00  0.00    +0.024 HD
ATOM     28  H   UNL     1      -0.094  11.824  18.282  0.00  0.00    +0.024 HD
ATOM     29  H   UNL     1      -1.041  10.364  17.982  0.00  0.00    +0.024 HD
ENDBRANCH  24  26
BRANCH  24  30
ATOM     30  S   UNL     1      -1.239  12.859  20.803  0.00  0.00    -0.078 S 
BRANCH  30  31
ATOM     31  C   UNL     1      -2.594  12.775  21.871  0.00  0.00    +0.192 A 
ATOM     32  N   UNL     1      -2.569  12.612  23.173  0.00  0.00    -0.123 NA
ATOM     33  N   UNL     1      -3.871  12.597  23.619  0.00  0.00    -0.137 NA
ATOM     34  C   UNL     1      -4.650  12.755  22.573  0.00  0.00    +0.120 A 
ATOM     35  N   UNL     1      -3.889  12.870  21.449  0.00  0.00    -0.312 N 
ATOM     36  H   UNL     1      -5.731  12.790  22.585  0.00  0.00    +0.105 HD
BRANCH  35  37
ATOM     37  C   UNL     1      -4.381  13.058  20.112  0.00  0.00    +0.015 C 
ATOM     38  H   UNL     1      -5.367  12.594  20.017  0.00  0.00    +0.046 HD
ATOM     39  H   UNL     1      -3.688  12.586  19.412  0.00  0.00    +0.046 HD
ATOM     40  H   UNL     1      -4.462  14.130  19.913  0.00  0.00    +0.046 HD
ENDBRANCH  35  37
ENDBRANCH  30  31
ENDBRANCH  24  30
ENDBRANCH   1  24
TORSDOF 8
ENDMDL
MODEL 29
REMARK VINA RESULT:    -6.165      5.517      9.230
REMARK INTER + INTRA:          -9.268
REMARK INTER:                  -8.688
REMARK INTRA:                  -0.579
REMARK UNBOUND:                -0.579
REMARK  Name = 
REMARK  8 active torsions:
REMARK  status: ('A' for Active; 'I' for Inactive)
REMARK    1  A    between atoms: C_1  and  C_2
REMARK    2  A    between atoms: C_2  and  C_3
REMARK    3  A    between atoms: C_2  and  S_21
REMARK    4  A    between atoms: C_7  and  N_9
REMARK    5  A    between atoms: C_10  and  C_11
REMARK    6  A    between atoms: C_14  and  C_15
REMARK    7  A    between atoms: S_21  and  C_22
REMARK    8  A    between atoms: N_26  and  C_27
REMARK                            x       y       z     vdW  Elec       q    Type
REMARK                         _______ _______ _______ _____ _____    ______ ____
ROOT
ATOM      1  C   UNL     1       2.120   7.302  19.133  0.00  0.00    -0.030 A 
ATOM      2  C   UNL     1       2.499   7.886  17.922  0.00  0.00    -0.039 A 
ATOM      3  C   UNL     1       2.210   9.223  17.711  0.00  0.00    +0.030 A 
ATOM      4  N   UNL     1       1.574  10.007  18.607  0.00  0.00    -0.240 NA
ATOM      5  C   UNL     1       1.200   9.439  19.773  0.00  0.00    +0.125 A 
ATOM      6  C   UNL     1       1.447   8.106  20.069  0.00  0.00    -0.017 A 
ATOM      7  H   UNL     1       3.002   7.319  17.146  0.00  0.00    +0.064 HD
ATOM      8  H   UNL     1       2.488   9.713  16.782  0.00  0.00    +0.083 HD
ATOM      9  H   UNL     1       1.130   7.668  21.010  0.00  0.00    +0.065 HD
ENDROOT
BRANCH   5  10
ATOM     10  N   UNL     1       0.543  10.336  20.614  0.00  0.00    -0.265 N 
ATOM     11  C   UNL     1      -0.686  10.932  20.442  0.00  0.00    +0.268 C 
ATOM     12  O   UNL     1      -1.430  10.732  19.487  0.00  0.00    -0.268 OA
ATOM     13  H   UNL     1       1.071  10.489  21.460  0.00  0.00    +0.157 HD
BRANCH  11  14
ATOM     14  C   UNL     1      -1.081  11.860  21.527  0.00  0.00    +0.133 A 
ATOM     15  C   UNL     1      -0.329  12.906  22.035  0.00  0.00    +0.008 A 
ATOM     16  S   UNL     1      -1.178  13.726  23.277  0.00  0.00    -0.071 S 
ATOM     17  C   UNL     1      -2.515  12.658  23.069  0.00  0.00    +0.182 A 
ATOM     18  N   UNL     1      -2.336  11.741  22.132  0.00  0.00    -0.231 NA
ATOM     19  H   UNL     1       0.655  13.249  21.746  0.00  0.00    +0.072 HD
BRANCH  17  20
ATOM     20  C   UNL     1      -3.736  12.837  23.929  0.00  0.00    +0.441 C 
ATOM     21  F   UNL     1      -4.844  13.123  23.192  0.00  0.00    -0.164 F 
ATOM     22  F   UNL     1      -4.037  11.733  24.663  0.00  0.00    -0.164 F 
ATOM     23  F   UNL     1      -3.589  13.860  24.816  0.00  0.00    -0.164 F 
ENDBRANCH  17  20
ENDBRANCH  11  14
ENDBRANCH   5  10
BRANCH   1  24
ATOM     24  C   UNL     1       2.383   5.837  19.451  0.00  0.00    +0.035 C 
ATOM     25  H   UNL     1       1.968   5.234  18.634  0.00  0.00    +0.046 HD
BRANCH  24  26
ATOM     26  C   UNL     1       1.704   5.393  20.751  0.00  0.00    -0.049 C 
ATOM     27  H   UNL     1       2.435   5.339  21.567  0.00  0.00    +0.024 HD
ATOM     28  H   UNL     1       0.928   6.100  21.062  0.00  0.00    +0.024 HD
ATOM     29  H   UNL     1       1.235   4.407  20.667  0.00  0.00    +0.024 HD
ENDBRANCH  24  26
BRANCH  24  30
ATOM     30  S   UNL     1       4.194   5.545  19.531  0.00  0.00    -0.078 S 
BRANCH  30  31
ATOM     31  C   UNL     1       4.514   4.932  17.948  0.00  0.00    +0.192 A 
ATOM     32  N   UNL     1       4.052   3.824  17.419  0.00  0.00    -0.123 NA
ATOM     33  N   UNL     1       4.564   3.723  16.145  0.00  0.00    -0.137 NA
ATOM     34  C   UNL     1       5.321   4.776  15.937  0.00  0.00    +0.120 A 
ATOM     35  N   UNL     1       5.320   5.565  17.047  0.00  0.00    -0.312 N 
ATOM     36  H   UNL     1       5.868   4.997  15.031  0.00  0.00    +0.105 HD
BRANCH  35  37
ATOM     37  C   UNL     1       6.030   6.807  17.201  0.00  0.00    +0.015 C 
ATOM     38  H   UNL     1       5.705   7.511  16.430  0.00  0.00    +0.046 HD
ATOM     39  H   UNL     1       7.100   6.616  17.092  0.00  0.00    +0.046 HD
ATOM     40  H   UNL     1       5.808   7.220  18.188  0.00  0.00    +0.046 HD
ENDBRANCH  35  37
ENDBRANCH  30  31
ENDBRANCH  24  30
ENDBRANCH   1  24
TORSDOF 8
ENDMDL
MODEL 30
REMARK VINA RESULT:    -6.159      5.311      9.215
REMARK INTER + INTRA:          -9.259
REMARK INTER:                  -8.542
REMARK INTRA:                  -0.716
REMARK UNBOUND:                -0.579
REMARK  Name = 
REMARK  8 active torsions:
REMARK  status: ('A' for Active; 'I' for Inactive)
REMARK    1  A    between atoms: C_1  and  C_2
REMARK    2  A    between atoms: C_2  and  C_3
REMARK    3  A    between atoms: C_2  and  S_21
REMARK    4  A    between atoms: C_7  and  N_9
REMARK    5  A    between atoms: C_10  and  C_11
REMARK    6  A    between atoms: C_14  and  C_15
REMARK    7  A    between atoms: S_21  and  C_22
REMARK    8  A    between atoms: N_26  and  C_27
REMARK                            x       y       z     vdW  Elec       q    Type
REMARK                         _______ _______ _______ _____ _____    ______ ____
ROOT
ATOM      1  C   UNL     1       2.529   5.390  18.910  0.00  0.00    -0.030 A 
ATOM      2  C   UNL     1       2.066   4.982  20.164  0.00  0.00    -0.039 A 
ATOM      3  C   UNL     1       1.581   5.941  21.036  0.00  0.00    +0.030 A 
ATOM      4  N   UNL     1       1.531   7.260  20.753  0.00  0.00    -0.240 NA
ATOM      5  C   UNL     1       1.988   7.654  19.546  0.00  0.00    +0.125 A 
ATOM      6  C   UNL     1       2.492   6.762  18.609  0.00  0.00    -0.017 A 
ATOM      7  H   UNL     1       2.086   3.942  20.470  0.00  0.00    +0.064 HD
ATOM      8  H   UNL     1       1.212   5.664  22.019  0.00  0.00    +0.083 HD
ATOM      9  H   UNL     1       2.863   7.101  17.647  0.00  0.00    +0.065 HD
ENDROOT
BRANCH   5  10
ATOM     10  N   UNL     1       1.899   9.033  19.367  0.00  0.00    -0.265 N 
ATOM     11  C   UNL     1       1.125   9.735  18.469  0.00  0.00    +0.268 C 
ATOM     12  O   UNL     1       0.343   9.223  17.674  0.00  0.00    -0.268 OA
ATOM     13  H   UNL     1       2.466   9.522  20.043  0.00  0.00    +0.157 HD
BRANCH  11  14
ATOM     14  C   UNL     1       1.289  11.205  18.529  0.00  0.00    +0.133 A 
ATOM     15  C   UNL     1       2.394  11.932  18.120  0.00  0.00    +0.008 A 
ATOM     16  S   UNL     1       2.149  13.611  18.361  0.00  0.00    -0.071 S 
ATOM     17  C   UNL     1       0.574  13.292  18.984  0.00  0.00    +0.182 A 
ATOM     18  N   UNL     1       0.252  12.009  19.015  0.00  0.00    -0.231 NA
ATOM     19  H   UNL     1       3.321  11.586  17.683  0.00  0.00    +0.072 HD
BRANCH  17  20
ATOM     20  C   UNL     1      -0.285  14.444  19.428  0.00  0.00    +0.441 C 
ATOM     21  F   UNL     1      -1.460  14.027  19.973  0.00  0.00    -0.164 F 
ATOM     22  F   UNL     1       0.315  15.227  20.364  0.00  0.00    -0.164 F 
ATOM     23  F   UNL     1      -0.611  15.266  18.392  0.00  0.00    -0.164 F 
ENDBRANCH  17  20
ENDBRANCH  11  14
ENDBRANCH   5  10
BRANCH   1  24
ATOM     24  C   UNL     1       3.093   4.411  17.889  0.00  0.00    +0.035 C 
ATOM     25  H   UNL     1       3.441   4.988  17.024  0.00  0.00    +0.046 HD
BRANCH  24  26
ATOM     26  C   UNL     1       2.038   3.416  17.394  0.00  0.00    -0.049 C 
ATOM     27  H   UNL     1       2.519   2.554  16.916  0.00  0.00    +0.024 HD
ATOM     28  H   UNL     1       1.431   3.028  18.219  0.00  0.00    +0.024 HD
ATOM     29  H   UNL     1       1.354   3.856  16.662  0.00  0.00    +0.024 HD
ENDBRANCH  24  26
BRANCH  24  30
ATOM     30  S   UNL     1       4.528   3.528  18.619  0.00  0.00    -0.078 S 
BRANCH  30  31
ATOM     31  C   UNL     1       5.806   4.655  18.335  0.00  0.00    +0.192 A 
ATOM     32  N   UNL     1       6.338   5.485  19.202  0.00  0.00    -0.123 NA
ATOM     33  N   UNL     1       7.318   6.199  18.550  0.00  0.00    -0.137 NA
ATOM     34  C   UNL     1       7.355   5.779  17.306  0.00  0.00    +0.120 A 
ATOM     35  N   UNL     1       6.418   4.807  17.125  0.00  0.00    -0.312 N 
ATOM     36  H   UNL     1       8.019   6.139  16.533  0.00  0.00    +0.105 HD
BRANCH  35  37
ATOM     37  C   UNL     1       6.159   4.103  15.898  0.00  0.00    +0.015 C 
ATOM     38  H   UNL     1       5.996   4.822  15.092  0.00  0.00    +0.046 HD
ATOM     39  H   UNL     1       5.263   3.490  16.026  0.00  0.00    +0.046 HD
ATOM     40  H   UNL     1       7.025   3.479  15.660  0.00  0.00    +0.046 HD
ENDBRANCH  35  37
ENDBRANCH  30  31
ENDBRANCH  24  30
ENDBRANCH   1  24
TORSDOF 8
ENDMDL
MODEL 31
REMARK VINA RESULT:    -6.154      5.111      9.207
REMARK INTER + INTRA:          -9.251
REMARK INTER:                  -8.906
REMARK INTRA:                  -0.346
REMARK UNBOUND:                -0.579
REMARK  Name = 
REMARK  8 active torsions:
REMARK  status: ('A' for Active; 'I' for Inactive)
REMARK    1  A    between atoms: C_1  and  C_2
REMARK    2  A    between atoms: C_2  and  C_3
REMARK    3  A    between atoms: C_2  and  S_21
REMARK    4  A    between atoms: C_7  and  N_9
REMARK    5  A    between atoms: C_10  and  C_11
REMARK    6  A    between atoms: C_14  and  C_15
REMARK    7  A    between atoms: S_21  and  C_22
REMARK    8  A    between atoms: N_26  and  C_27
REMARK                            x       y       z     vdW  Elec       q    Type
REMARK                         _______ _______ _______ _____ _____    ______ ____
ROOT
ATOM      1  C   UNL     1       2.863   6.244  18.898  0.00  0.00    -0.030 A 
ATOM      2  C   UNL     1       3.455   6.849  17.786  0.00  0.00    -0.039 A 
ATOM      3  C   UNL     1       3.150   8.169  17.509  0.00  0.00    +0.030 A 
ATOM      4  N   UNL     1       2.304   8.918  18.247  0.00  0.00    -0.240 NA
ATOM      5  C   UNL     1       1.725   8.330  19.315  0.00  0.00    +0.125 A 
ATOM      6  C   UNL     1       1.971   7.011  19.667  0.00  0.00    -0.017 A 
ATOM      7  H   UNL     1       4.136   6.309  17.136  0.00  0.00    +0.064 HD
ATOM      8  H   UNL     1       3.591   8.675  16.655  0.00  0.00    +0.083 HD
ATOM      9  H   UNL     1       1.488   6.555  20.525  0.00  0.00    +0.065 HD
ENDROOT
BRANCH   5  10
ATOM     10  N   UNL     1       0.864   9.190  19.994  0.00  0.00    -0.265 N 
ATOM     11  C   UNL     1       0.802   9.452  21.345  0.00  0.00    +0.268 C 
ATOM     12  O   UNL     1       1.550   8.961  22.185  0.00  0.00    -0.268 OA
ATOM     13  H   UNL     1       0.266   9.686  19.351  0.00  0.00    +0.157 HD
BRANCH  11  14
ATOM     14  C   UNL     1      -0.255  10.410  21.741  0.00  0.00    +0.133 A 
ATOM     15  C   UNL     1      -0.743  10.622  23.020  0.00  0.00    +0.008 A 
ATOM     16  S   UNL     1      -1.956  11.832  23.022  0.00  0.00    -0.071 S 
ATOM     17  C   UNL     1      -1.764  12.029  21.321  0.00  0.00    +0.182 A 
ATOM     18  N   UNL     1      -0.852  11.236  20.782  0.00  0.00    -0.231 NA
ATOM     19  H   UNL     1      -0.454  10.156  23.952  0.00  0.00    +0.072 HD
BRANCH  17  20
ATOM     20  C   UNL     1      -2.608  13.044  20.601  0.00  0.00    +0.441 C 
ATOM     21  F   UNL     1      -3.605  13.533  21.388  0.00  0.00    -0.164 F 
ATOM     22  F   UNL     1      -1.897  14.119  20.169  0.00  0.00    -0.164 F 
ATOM     23  F   UNL     1      -3.213  12.515  19.500  0.00  0.00    -0.164 F 
ENDBRANCH  17  20
ENDBRANCH  11  14
ENDBRANCH   5  10
BRANCH   1  24
ATOM     24  C   UNL     1       3.126   4.792  19.276  0.00  0.00    +0.035 C 
ATOM     25  H   UNL     1       2.815   4.162  18.433  0.00  0.00    +0.046 HD
BRANCH  24  26
ATOM     26  C   UNL     1       2.325   4.357  20.506  0.00  0.00    -0.049 C 
ATOM     27  H   UNL     1       2.940   3.730  21.163  0.00  0.00    +0.024 HD
ATOM     28  H   UNL     1       1.997   5.218  21.099  0.00  0.00    +0.024 HD
ATOM     29  H   UNL     1       1.432   3.780  20.246  0.00  0.00    +0.024 HD
ENDBRANCH  24  26
BRANCH  24  30
ATOM     30  S   UNL     1       4.926   4.551  19.552  0.00  0.00    -0.078 S 
BRANCH  30  31
ATOM     31  C   UNL     1       5.495   4.327  17.937  0.00  0.00    +0.192 A 
ATOM     32  N   UNL     1       4.911   3.648  16.978  0.00  0.00    -0.123 NA
ATOM     33  N   UNL     1       5.712   3.727  15.861  0.00  0.00    -0.137 NA
ATOM     34  C   UNL     1       6.759   4.456  16.174  0.00  0.00    +0.120 A 
ATOM     35  N   UNL     1       6.665   4.855  17.473  0.00  0.00    -0.312 N 
ATOM     36  H   UNL     1       7.578   4.709  15.516  0.00  0.00    +0.105 HD
BRANCH  35  37
ATOM     37  C   UNL     1       7.619   5.668  18.177  0.00  0.00    +0.015 C 
ATOM     38  H   UNL     1       8.501   5.822  17.551  0.00  0.00    +0.046 HD
ATOM     39  H   UNL     1       7.910   5.154  19.097  0.00  0.00    +0.046 HD
ATOM     40  H   UNL     1       7.159   6.635  18.403  0.00  0.00    +0.046 HD
ENDBRANCH  35  37
ENDBRANCH  30  31
ENDBRANCH  24  30
ENDBRANCH   1  24
TORSDOF 8
ENDMDL
MODEL 32
REMARK VINA RESULT:    -6.144      3.495      4.931
REMARK INTER + INTRA:          -9.237
REMARK INTER:                  -8.893
REMARK INTRA:                  -0.344
REMARK UNBOUND:                -0.579
REMARK  Name = 
REMARK  8 active torsions:
REMARK  status: ('A' for Active; 'I' for Inactive)
REMARK    1  A    between atoms: C_1  and  C_2
REMARK    2  A    between atoms: C_2  and  C_3
REMARK    3  A    between atoms: C_2  and  S_21
REMARK    4  A    between atoms: C_7  and  N_9
REMARK    5  A    between atoms: C_10  and  C_11
REMARK    6  A    between atoms: C_14  and  C_15
REMARK    7  A    between atoms: S_21  and  C_22
REMARK    8  A    between atoms: N_26  and  C_27
REMARK                            x       y       z     vdW  Elec       q    Type
REMARK                         _______ _______ _______ _____ _____    ______ ____
ROOT
ATOM      1  C   UNL     1       0.322  10.591  20.306  0.00  0.00    -0.030 A 
ATOM      2  C   UNL     1      -0.298  10.115  21.464  0.00  0.00    -0.039 A 
ATOM      3  C   UNL     1      -0.012   8.830  21.890  0.00  0.00    +0.030 A 
ATOM      4  N   UNL     1       0.832   7.995  21.248  0.00  0.00    -0.240 NA
ATOM      5  C   UNL     1       1.422   8.451  20.123  0.00  0.00    +0.125 A 
ATOM      6  C   UNL     1       1.193   9.726  19.623  0.00  0.00    -0.017 A 
ATOM      7  H   UNL     1      -0.999  10.722  22.028  0.00  0.00    +0.064 HD
ATOM      8  H   UNL     1      -0.473   8.424  22.785  0.00  0.00    +0.083 HD
ATOM      9  H   UNL     1       1.672  10.070  18.712  0.00  0.00    +0.065 HD
ENDROOT
BRANCH   5  10
ATOM     10  N   UNL     1       2.261   7.503  19.540  0.00  0.00    -0.265 N 
ATOM     11  C   UNL     1       2.743   7.461  18.250  0.00  0.00    +0.268 C 
ATOM     12  O   UNL     1       2.513   8.309  17.393  0.00  0.00    -0.268 OA
ATOM     13  H   UNL     1       2.550   6.813  20.215  0.00  0.00    +0.157 HD
BRANCH  11  14
ATOM     14  C   UNL     1       3.601   6.293  17.949  0.00  0.00    +0.133 A 
ATOM     15  C   UNL     1       3.213   4.963  17.939  0.00  0.00    +0.008 A 
ATOM     16  S   UNL     1       4.527   3.944  17.526  0.00  0.00    -0.071 S 
ATOM     17  C   UNL     1       5.547   5.323  17.364  0.00  0.00    +0.182 A 
ATOM     18  N   UNL     1       4.945   6.476  17.608  0.00  0.00    -0.231 NA
ATOM     19  H   UNL     1       2.242   4.529  18.132  0.00  0.00    +0.072 HD
BRANCH  17  20
ATOM     20  C   UNL     1       6.987   5.128  16.972  0.00  0.00    +0.441 C 
ATOM     21  F   UNL     1       7.112   4.422  15.816  0.00  0.00    -0.164 F 
ATOM     22  F   UNL     1       7.651   6.299  16.782  0.00  0.00    -0.164 F 
ATOM     23  F   UNL     1       7.684   4.440  17.920  0.00  0.00    -0.164 F 
ENDBRANCH  17  20
ENDBRANCH  11  14
ENDBRANCH   5  10
BRANCH   1  24
ATOM     24  C   UNL     1       0.060  11.986  19.753  0.00  0.00    +0.035 C 
ATOM     25  H   UNL     1      -0.047  12.671  20.603  0.00  0.00    +0.046 HD
BRANCH  24  26
ATOM     26  C   UNL     1      -1.231  12.052  18.932  0.00  0.00    -0.049 C 
ATOM     27  H   UNL     1      -1.404  11.103  18.410  0.00  0.00    +0.024 HD
ATOM     28  H   UNL     1      -2.105  12.233  19.568  0.00  0.00    +0.024 HD
ATOM     29  H   UNL     1      -1.209  12.842  18.174  0.00  0.00    +0.024 HD
ENDBRANCH  24  26
BRANCH  24  30
ATOM     30  S   UNL     1       1.499  12.523  18.747  0.00  0.00    -0.078 S 
BRANCH  30  31
ATOM     31  C   UNL     1       2.323  13.563  19.853  0.00  0.00    +0.192 A 
ATOM     32  N   UNL     1       2.048  13.747  21.123  0.00  0.00    -0.123 NA
ATOM     33  N   UNL     1       2.950  14.662  21.619  0.00  0.00    -0.137 NA
ATOM     34  C   UNL     1       3.749  15.005  20.634  0.00  0.00    +0.120 A 
ATOM     35  N   UNL     1       3.390  14.338  19.502  0.00  0.00    -0.312 N 
ATOM     36  H   UNL     1       4.568  15.707  20.696  0.00  0.00    +0.105 HD
BRANCH  35  37
ATOM     37  C   UNL     1       4.031  14.448  18.219  0.00  0.00    +0.015 C 
ATOM     38  H   UNL     1       3.390  15.014  17.538  0.00  0.00    +0.046 HD
ATOM     39  H   UNL     1       4.191  13.444  17.818  0.00  0.00    +0.046 HD
ATOM     40  H   UNL     1       4.982  14.972  18.344  0.00  0.00    +0.046 HD
ENDBRANCH  35  37
ENDBRANCH  30  31
ENDBRANCH  24  30
ENDBRANCH   1  24
TORSDOF 8
ENDMDL
MODEL 33
REMARK VINA RESULT:    -6.045      3.468      5.099
REMARK INTER + INTRA:          -9.098
REMARK INTER:                  -8.363
REMARK INTRA:                  -0.735
REMARK UNBOUND:                -0.579
REMARK  Name = 
REMARK  8 active torsions:
REMARK  status: ('A' for Active; 'I' for Inactive)
REMARK    1  A    between atoms: C_1  and  C_2
REMARK    2  A    between atoms: C_2  and  C_3
REMARK    3  A    between atoms: C_2  and  S_21
REMARK    4  A    between atoms: C_7  and  N_9
REMARK    5  A    between atoms: C_10  and  C_11
REMARK    6  A    between atoms: C_14  and  C_15
REMARK    7  A    between atoms: S_21  and  C_22
REMARK    8  A    between atoms: N_26  and  C_27
REMARK                            x       y       z     vdW  Elec       q    Type
REMARK                         _______ _______ _______ _____ _____    ______ ____
ROOT
ATOM      1  C   UNL     1      -0.068  11.584  20.388  0.00  0.00    -0.030 A 
ATOM      2  C   UNL     1      -1.051  11.769  19.412  0.00  0.00    -0.039 A 
ATOM      3  C   UNL     1      -1.075  10.912  18.325  0.00  0.00    +0.030 A 
ATOM      4  N   UNL     1      -0.198   9.903  18.142  0.00  0.00    -0.240 NA
ATOM      5  C   UNL     1       0.757   9.732  19.080  0.00  0.00    +0.125 A 
ATOM      6  C   UNL     1       0.858  10.544  20.201  0.00  0.00    -0.017 A 
ATOM      7  H   UNL     1      -1.783  12.566  19.481  0.00  0.00    +0.064 HD
ATOM      8  H   UNL     1      -1.824  11.022  17.546  0.00  0.00    +0.083 HD
ATOM      9  H   UNL     1       1.639  10.394  20.939  0.00  0.00    +0.065 HD
ENDROOT
BRANCH   5  10
ATOM     10  N   UNL     1       1.612   8.672  18.783  0.00  0.00    -0.265 N 
ATOM     11  C   UNL     1       1.996   7.626  19.592  0.00  0.00    +0.268 C 
ATOM     12  O   UNL     1       1.602   7.454  20.742  0.00  0.00    -0.268 OA
ATOM     13  H   UNL     1       1.916   8.712  17.822  0.00  0.00    +0.157 HD
BRANCH  11  14
ATOM     14  C   UNL     1       2.942   6.675  18.966  0.00  0.00    +0.133 A 
ATOM     15  C   UNL     1       3.264   5.407  19.422  0.00  0.00    +0.008 A 
ATOM     16  S   UNL     1       4.396   4.650  18.382  0.00  0.00    -0.071 S 
ATOM     17  C   UNL     1       4.392   6.040  17.364  0.00  0.00    +0.182 A 
ATOM     18  N   UNL     1       3.597   7.013  17.777  0.00  0.00    -0.231 NA
ATOM     19  H   UNL     1       2.897   4.875  20.288  0.00  0.00    +0.072 HD
BRANCH  17  20
ATOM     20  C   UNL     1       5.253   6.048  16.131  0.00  0.00    +0.441 C 
ATOM     21  F   UNL     1       4.856   6.992  15.234  0.00  0.00    -0.164 F 
ATOM     22  F   UNL     1       6.563   6.296  16.397  0.00  0.00    -0.164 F 
ATOM     23  F   UNL     1       5.214   4.854  15.474  0.00  0.00    -0.164 F 
ENDBRANCH  17  20
ENDBRANCH  11  14
ENDBRANCH   5  10
BRANCH   1  24
ATOM     24  C   UNL     1       0.047  12.483  21.611  0.00  0.00    +0.035 C 
ATOM     25  H   UNL     1       0.984  12.236  22.126  0.00  0.00    +0.046 HD
BRANCH  24  26
ATOM     26  C   UNL     1      -1.102  12.268  22.601  0.00  0.00    -0.049 C 
ATOM     27  H   UNL     1      -1.402  13.220  23.055  0.00  0.00    +0.024 HD
ATOM     28  H   UNL     1      -1.988  11.854  22.107  0.00  0.00    +0.024 HD
ATOM     29  H   UNL     1      -0.834  11.588  23.417  0.00  0.00    +0.024 HD
ENDBRANCH  24  26
BRANCH  24  30
ATOM     30  S   UNL     1       0.122  14.238  21.074  0.00  0.00    -0.078 S 
BRANCH  30  31
ATOM     31  C   UNL     1       1.826  14.484  20.940  0.00  0.00    +0.192 A 
ATOM     32  N   UNL     1       2.646  14.882  21.884  0.00  0.00    -0.123 NA
ATOM     33  N   UNL     1       3.910  14.948  21.341  0.00  0.00    -0.137 NA
ATOM     34  C   UNL     1       3.820  14.584  20.082  0.00  0.00    +0.120 A 
ATOM     35  N   UNL     1       2.525  14.284  19.785  0.00  0.00    -0.312 N 
ATOM     36  H   UNL     1       4.637  14.527  19.377  0.00  0.00    +0.105 HD
BRANCH  35  37
ATOM     37  C   UNL     1       2.032  13.844  18.508  0.00  0.00    +0.015 C 
ATOM     38  H   UNL     1       2.254  14.601  17.751  0.00  0.00    +0.046 HD
ATOM     39  H   UNL     1       0.951  13.705  18.577  0.00  0.00    +0.046 HD
ATOM     40  H   UNL     1       2.528  12.907  18.242  0.00  0.00    +0.046 HD
ENDBRANCH  35  37
ENDBRANCH  30  31
ENDBRANCH  24  30
ENDBRANCH   1  24
TORSDOF 8
ENDMDL
