MODEL 1
REMARK VINA RESULT:    -7.764      0.000      0.000
REMARK INTER + INTRA:         -11.720
REMARK INTER:                 -10.906
REMARK INTRA:                  -0.814
REMARK UNBOUND:                -0.779
REMARK  Name = 
REMARK  8 active torsions:
REMARK  status: ('A' for Active; 'I' for Inactive)
REMARK    1  A    between atoms: C_1  and  C_2
REMARK    2  A    between atoms: C_4  and  C_11
REMARK    3  A    between atoms: C_6  and  C_8
REMARK    4  A    between atoms: N_13  and  C_14
REMARK    5  A    between atoms: C_18  and  C_20
REMARK    6  A    between atoms: C_20  and  C_21
REMARK    7  A    between atoms: C_20  and  C_22
REMARK    8  A    between atoms: C_22  and  C_23
REMARK                            x       y       z     vdW  Elec       q    Type
REMARK                         _______ _______ _______ _____ _____    ______ ____
ROOT
ATOM      1  C   UNL     1       1.436   8.347  20.656  0.00  0.00    +0.034 A 
ATOM      2  C   UNL     1       1.115   8.551  22.000  0.00  0.00    -0.040 A 
ATOM      3  C   UNL     1       0.325   9.642  22.369  0.00  0.00    -0.060 A 
ATOM      4  C   UNL     1      -0.156  10.530  21.403  0.00  0.00    -0.058 A 
ATOM      5  C   UNL     1       0.153  10.342  20.050  0.00  0.00    -0.042 A 
ATOM      6  C   UNL     1       0.965   9.252  19.691  0.00  0.00    -0.037 A 
ATOM      7  H   UNL     1       1.490   7.889  22.781  0.00  0.00    +0.064 HD
ATOM      8  H   UNL     1       0.078   9.790  23.417  0.00  0.00    +0.062 HD
ATOM      9  H   UNL     1      -0.777  11.362  21.723  0.00  0.00    +0.062 HD
ATOM     10  H   UNL     1       1.200   9.088  18.637  0.00  0.00    +0.064 HD
ENDROOT
BRANCH   1  13
ATOM     11  C   UNL     1       1.948   5.922  20.301  0.00  0.00    +0.267 C 
ATOM     12  O   UNL     1       0.941   5.383  20.754  0.00  0.00    -0.268 OA
ATOM     13  N   UNL     1       2.226   7.277  20.201  0.00  0.00    -0.280 N 
ATOM     14  H   UNL     1       3.044   7.517  19.643  0.00  0.00    +0.155 HD
BRANCH  11  17
ATOM     15  C   UNL     1       3.695   3.158  18.563  0.00  0.00    +0.042 A 
ATOM     16  C   UNL     1       2.670   3.826  19.188  0.00  0.00    -0.010 A 
ATOM     17  C   UNL     1       3.002   5.077  19.671  0.00  0.00    +0.129 A 
ATOM     18  N   UNL     1       4.220   5.660  19.551  0.00  0.00    -0.227 NA
ATOM     19  C   UNL     1       5.171   4.931  18.949  0.00  0.00    +0.133 A 
ATOM     20  N   UNL     1       4.925   3.704  18.417  0.00  0.00    -0.237 NA
ATOM     21  H   UNL     1       1.671   3.414  19.290  0.00  0.00    +0.066 HD
BRANCH  19  22
ATOM     22  C   UNL     1       6.564   5.531  18.897  0.00  0.00    +0.019 C 
ATOM     23  C   UNL     1       7.026   6.321  17.690  0.00  0.00    -0.043 C 
ATOM     24  C   UNL     1       7.637   4.975  17.986  0.00  0.00    -0.043 C 
ATOM     25  H   UNL     1       6.915   5.905  19.856  0.00  0.00    +0.038 HD
ATOM     26  H   UNL     1       7.620   7.211  17.866  0.00  0.00    +0.027 HD
ATOM     27  H   UNL     1       6.373   6.397  16.822  0.00  0.00    +0.027 HD
ATOM     28  H   UNL     1       8.650   4.922  18.380  0.00  0.00    +0.027 HD
ATOM     29  H   UNL     1       7.379   4.145  17.331  0.00  0.00    +0.027 HD
ENDBRANCH  19  22
BRANCH  15  30
ATOM     30  C   UNL     1       3.470   1.800  17.978  0.00  0.00    -0.022 C 
ATOM     31  H   UNL     1       3.106   1.102  18.739  0.00  0.00    +0.029 HD
ATOM     32  H   UNL     1       4.401   1.389  17.561  0.00  0.00    +0.029 HD
ATOM     33  H   UNL     1       2.728   1.876  17.176  0.00  0.00    +0.029 HD
ENDBRANCH  15  30
ENDBRANCH  11  17
ENDBRANCH   1  13
BRANCH   5  34
ATOM     34  C   UNL     1      -0.411  11.240  18.956  0.00  0.00    -0.013 C 
ATOM     35  H   UNL     1      -0.514  10.636  18.043  0.00  0.00    +0.035 HD
BRANCH  34  36
ATOM     36  C   UNL     1       0.550  12.386  18.615  0.00  0.00    -0.058 C 
ATOM     37  H   UNL     1       0.192  13.333  19.029  0.00  0.00    +0.024 HD
ATOM     38  H   UNL     1       0.643  12.508  17.532  0.00  0.00    +0.024 HD
ATOM     39  H   UNL     1       1.557  12.209  19.012  0.00  0.00    +0.024 HD
ENDBRANCH  34  36
BRANCH  34  40
ATOM     40  C   UNL     1      -1.806  11.753  19.380  0.00  0.00    +0.004 C 
ATOM     41  H   UNL     1      -1.742  12.813  19.660  0.00  0.00    +0.034 HD
ATOM     42  H   UNL     1      -2.144  11.218  20.278  0.00  0.00    +0.034 HD
BRANCH  40  43
ATOM     43  C   UNL     1      -2.852  11.546  18.329  0.00  0.00    +0.095 C 
ATOM     44  N   UNL     1      -4.157  11.609  18.541  0.00  0.00    -0.147 NA
ATOM     45  N   UNL     1      -4.895  11.406  17.380  0.00  0.00    -0.150 NA
ATOM     46  C   UNL     1      -4.115  11.198  16.338  0.00  0.00    +0.081 C 
ATOM     47  S   UNL     1      -2.472  11.282  16.721  0.00  0.00    -0.094 S 
ATOM     48 CL   UNL     1      -2.053   9.361  16.537  0.00  0.00    -0.057 Cl
ATOM     49  H   UNL     1      -4.503  11.038  15.336  0.00  0.00    +0.092 HD
ATOM     50  H   UNL     1      -2.060  12.263  15.879  0.00  0.00    +0.109 HD
ENDBRANCH  40  43
ENDBRANCH  34  40
ENDBRANCH   5  34
TORSDOF 8
ENDMDL
MODEL 2
REMARK VINA RESULT:    -7.615      1.406      1.501
REMARK INTER + INTRA:         -11.510
REMARK INTER:                 -11.069
REMARK INTRA:                  -0.441
REMARK UNBOUND:                -0.779
REMARK  Name = 
REMARK  8 active torsions:
REMARK  status: ('A' for Active; 'I' for Inactive)
REMARK    1  A    between atoms: C_1  and  C_2
REMARK    2  A    between atoms: C_4  and  C_11
REMARK    3  A    between atoms: C_6  and  C_8
REMARK    4  A    between atoms: N_13  and  C_14
REMARK    5  A    between atoms: C_18  and  C_20
REMARK    6  A    between atoms: C_20  and  C_21
REMARK    7  A    between atoms: C_20  and  C_22
REMARK    8  A    between atoms: C_22  and  C_23
REMARK                            x       y       z     vdW  Elec       q    Type
REMARK                         _______ _______ _______ _____ _____    ______ ____
ROOT
ATOM      1  C   UNL     1       1.224   8.651  20.506  0.00  0.00    +0.034 A 
ATOM      2  C   UNL     1       0.957   8.596  21.876  0.00  0.00    -0.040 A 
ATOM      3  C   UNL     1       0.236   9.624  22.486  0.00  0.00    -0.060 A 
ATOM      4  C   UNL     1      -0.233  10.707  21.736  0.00  0.00    -0.058 A 
ATOM      5  C   UNL     1       0.021  10.779  20.361  0.00  0.00    -0.042 A 
ATOM      6  C   UNL     1       0.766   9.750  19.759  0.00  0.00    -0.037 A 
ATOM      7  H   UNL     1       1.325   7.777  22.493  0.00  0.00    +0.064 HD
ATOM      8  H   UNL     1       0.032   9.569  23.553  0.00  0.00    +0.062 HD
ATOM      9  H   UNL     1      -0.801  11.483  22.241  0.00  0.00    +0.062 HD
ATOM     10  H   UNL     1       0.957   9.790  18.685  0.00  0.00    +0.064 HD
ENDROOT
BRANCH   1  13
ATOM     11  C   UNL     1       2.349   7.684  18.489  0.00  0.00    +0.267 C 
ATOM     12  O   UNL     1       2.211   8.586  17.667  0.00  0.00    -0.268 OA
ATOM     13  N   UNL     1       1.944   7.661  19.815  0.00  0.00    -0.280 N 
ATOM     14  H   UNL     1       2.303   6.885  20.370  0.00  0.00    +0.155 HD
BRANCH  11  17
ATOM     15  C   UNL     1       3.276   4.214  17.590  0.00  0.00    +0.042 A 
ATOM     16  C   UNL     1       2.485   5.254  18.014  0.00  0.00    -0.010 A 
ATOM     17  C   UNL     1       3.128   6.472  18.111  0.00  0.00    +0.129 A 
ATOM     18  N   UNL     1       4.431   6.690  17.807  0.00  0.00    -0.227 NA
ATOM     19  C   UNL     1       5.140   5.617  17.424  0.00  0.00    +0.133 A 
ATOM     20  N   UNL     1       4.580   4.387  17.273  0.00  0.00    -0.237 NA
ATOM     21  H   UNL     1       1.431   5.137  18.247  0.00  0.00    +0.066 HD
BRANCH  19  22
ATOM     22  C   UNL     1       6.622   5.828  17.178  0.00  0.00    +0.019 C 
ATOM     23  C   UNL     1       7.605   5.872  18.330  0.00  0.00    -0.043 C 
ATOM     24  C   UNL     1       7.314   7.124  17.544  0.00  0.00    -0.043 C 
ATOM     25  H   UNL     1       6.989   5.343  16.276  0.00  0.00    +0.038 HD
ATOM     26  H   UNL     1       8.564   5.385  18.195  0.00  0.00    +0.027 HD
ATOM     27  H   UNL     1       7.230   5.820  19.351  0.00  0.00    +0.027 HD
ATOM     28  H   UNL     1       8.060   7.506  16.850  0.00  0.00    +0.027 HD
ATOM     29  H   UNL     1       6.728   7.903  18.027  0.00  0.00    +0.027 HD
ENDBRANCH  19  22
BRANCH  15  30
ATOM     30  C   UNL     1       2.703   2.842  17.426  0.00  0.00    -0.022 C 
ATOM     31  H   UNL     1       3.311   2.245  16.738  0.00  0.00    +0.029 HD
ATOM     32  H   UNL     1       1.681   2.885  17.024  0.00  0.00    +0.029 HD
ATOM     33  H   UNL     1       2.677   2.348  18.403  0.00  0.00    +0.029 HD
ENDBRANCH  15  30
ENDBRANCH  11  17
ENDBRANCH   1  13
BRANCH   5  34
ATOM     34  C   UNL     1      -0.534  11.900  19.491  0.00  0.00    -0.013 C 
ATOM     35  H   UNL     1      -0.442  11.590  18.441  0.00  0.00    +0.035 HD
BRANCH  34  36
ATOM     36  C   UNL     1       0.286  13.188  19.639  0.00  0.00    -0.058 C 
ATOM     37  H   UNL     1       0.915  13.355  18.759  0.00  0.00    +0.024 HD
ATOM     38  H   UNL     1       0.942  13.134  20.513  0.00  0.00    +0.024 HD
ATOM     39  H   UNL     1      -0.353  14.070  19.764  0.00  0.00    +0.024 HD
ENDBRANCH  34  36
BRANCH  34  40
ATOM     40  C   UNL     1      -2.028  12.117  19.823  0.00  0.00    +0.004 C 
ATOM     41  H   UNL     1      -2.189  13.153  20.148  0.00  0.00    +0.034 HD
ATOM     42  H   UNL     1      -2.319  11.480  20.670  0.00  0.00    +0.034 HD
BRANCH  40  43
ATOM     43  C   UNL     1      -2.938  11.772  18.685  0.00  0.00    +0.095 C 
ATOM     44  N   UNL     1      -4.258  11.721  18.764  0.00  0.00    -0.147 NA
ATOM     45  N   UNL     1      -4.851  11.405  17.546  0.00  0.00    -0.150 NA
ATOM     46  C   UNL     1      -3.953  11.229  16.598  0.00  0.00    +0.081 C 
ATOM     47  S   UNL     1      -2.372  11.481  17.137  0.00  0.00    -0.094 S 
ATOM     48 CL   UNL     1      -1.768   9.602  17.089  0.00  0.00    -0.057 Cl
ATOM     49  H   UNL     1      -4.220  10.994  15.571  0.00  0.00    +0.092 HD
ATOM     50  H   UNL     1      -1.964  12.463  16.294  0.00  0.00    +0.109 HD
ENDBRANCH  40  43
ENDBRANCH  34  40
ENDBRANCH   5  34
TORSDOF 8
ENDMDL
MODEL 3
REMARK VINA RESULT:    -7.469      1.575      2.702
REMARK INTER + INTRA:         -11.305
REMARK INTER:                 -10.688
REMARK INTRA:                  -0.617
REMARK UNBOUND:                -0.779
REMARK  Name = 
REMARK  8 active torsions:
REMARK  status: ('A' for Active; 'I' for Inactive)
REMARK    1  A    between atoms: C_1  and  C_2
REMARK    2  A    between atoms: C_4  and  C_11
REMARK    3  A    between atoms: C_6  and  C_8
REMARK    4  A    between atoms: N_13  and  C_14
REMARK    5  A    between atoms: C_18  and  C_20
REMARK    6  A    between atoms: C_20  and  C_21
REMARK    7  A    between atoms: C_20  and  C_22
REMARK    8  A    between atoms: C_22  and  C_23
REMARK                            x       y       z     vdW  Elec       q    Type
REMARK                         _______ _______ _______ _____ _____    ______ ____
ROOT
ATOM      1  C   UNL     1       0.975   8.811  20.667  0.00  0.00    +0.034 A 
ATOM      2  C   UNL     1       0.797   8.897  22.050  0.00  0.00    -0.040 A 
ATOM      3  C   UNL     1       0.129   9.994  22.598  0.00  0.00    -0.060 A 
ATOM      4  C   UNL     1      -0.372  11.006  21.775  0.00  0.00    -0.058 A 
ATOM      5  C   UNL     1      -0.206  10.937  20.386  0.00  0.00    -0.042 A 
ATOM      6  C   UNL     1       0.485   9.839  19.844  0.00  0.00    -0.037 A 
ATOM      7  H   UNL     1       1.192   8.135  22.722  0.00  0.00    +0.064 HD
ATOM      8  H   UNL     1      -0.007  10.049  23.676  0.00  0.00    +0.062 HD
ATOM      9  H   UNL     1      -0.896  11.840  22.233  0.00  0.00    +0.062 HD
ATOM     10  H   UNL     1       0.608   9.769  18.762  0.00  0.00    +0.064 HD
ENDROOT
BRANCH   1  13
ATOM     11  C   UNL     1       2.336   7.775  18.838  0.00  0.00    +0.267 C 
ATOM     12  O   UNL     1       2.565   8.742  18.116  0.00  0.00    -0.268 OA
ATOM     13  N   UNL     1       1.636   7.743  20.035  0.00  0.00    -0.280 N 
ATOM     14  H   UNL     1       1.704   6.872  20.559  0.00  0.00    +0.155 HD
BRANCH  11  17
ATOM     15  C   UNL     1       4.446   5.138  17.320  0.00  0.00    +0.042 A 
ATOM     16  C   UNL     1       3.903   6.385  17.510  0.00  0.00    -0.010 A 
ATOM     17  C   UNL     1       2.939   6.456  18.496  0.00  0.00    +0.129 A 
ATOM     18  N   UNL     1       2.533   5.415  19.264  0.00  0.00    -0.227 NA
ATOM     19  C   UNL     1       3.095   4.226  18.998  0.00  0.00    +0.133 A 
ATOM     20  N   UNL     1       4.073   4.072  18.067  0.00  0.00    -0.237 NA
ATOM     21  H   UNL     1       4.209   7.256  16.938  0.00  0.00    +0.066 HD
BRANCH  19  22
ATOM     22  C   UNL     1       2.578   3.034  19.782  0.00  0.00    +0.019 C 
ATOM     23  C   UNL     1       1.402   2.223  19.278  0.00  0.00    -0.043 C 
ATOM     24  C   UNL     1       1.253   3.075  20.512  0.00  0.00    -0.043 C 
ATOM     25  H   UNL     1       3.361   2.459  20.271  0.00  0.00    +0.038 HD
ATOM     26  H   UNL     1       1.445   1.146  19.394  0.00  0.00    +0.027 HD
ATOM     27  H   UNL     1       0.880   2.544  18.379  0.00  0.00    +0.027 HD
ATOM     28  H   UNL     1       1.206   2.599  21.490  0.00  0.00    +0.027 HD
ATOM     29  H   UNL     1       0.650   3.978  20.436  0.00  0.00    +0.027 HD
ENDBRANCH  19  22
BRANCH  15  30
ATOM     30  C   UNL     1       5.513   4.922  16.295  0.00  0.00    -0.022 C 
ATOM     31  H   UNL     1       6.332   5.636  16.427  0.00  0.00    +0.029 HD
ATOM     32  H   UNL     1       5.115   5.047  15.277  0.00  0.00    +0.029 HD
ATOM     33  H   UNL     1       5.904   3.903  16.397  0.00  0.00    +0.029 HD
ENDBRANCH  15  30
ENDBRANCH  11  17
ENDBRANCH   1  13
BRANCH   5  34
ATOM     34  C   UNL     1      -0.800  11.977  19.444  0.00  0.00    -0.013 C 
ATOM     35  H   UNL     1      -0.673  11.613  18.415  0.00  0.00    +0.035 HD
BRANCH  34  36
ATOM     36  C   UNL     1      -0.048  13.312  19.531  0.00  0.00    -0.058 C 
ATOM     37  H   UNL     1      -0.397  13.902  20.383  0.00  0.00    +0.024 HD
ATOM     38  H   UNL     1      -0.204  13.906  18.626  0.00  0.00    +0.024 HD
ATOM     39  H   UNL     1       1.032  13.168  19.646  0.00  0.00    +0.024 HD
ENDBRANCH  34  36
BRANCH  34  40
ATOM     40  C   UNL     1      -2.309  12.136  19.740  0.00  0.00    +0.004 C 
ATOM     41  H   UNL     1      -2.523  13.172  20.033  0.00  0.00    +0.034 HD
ATOM     42  H   UNL     1      -2.590  11.509  20.598  0.00  0.00    +0.034 HD
BRANCH  40  43
ATOM     43  C   UNL     1      -3.179  11.720  18.594  0.00  0.00    +0.095 C 
ATOM     44  N   UNL     1      -4.494  11.590  18.655  0.00  0.00    -0.147 NA
ATOM     45  N   UNL     1      -5.049  11.221  17.433  0.00  0.00    -0.150 NA
ATOM     46  C   UNL     1      -4.127  11.088  16.501  0.00  0.00    +0.081 C 
ATOM     47  S   UNL     1      -2.572  11.443  17.060  0.00  0.00    -0.094 S 
ATOM     48 CL   UNL     1      -1.855   9.603  17.048  0.00  0.00    -0.057 Cl
ATOM     49  H   UNL     1      -4.363  10.823  15.474  0.00  0.00    +0.092 HD
ATOM     50  H   UNL     1      -2.211  12.436  16.208  0.00  0.00    +0.109 HD
ENDBRANCH  40  43
ENDBRANCH  34  40
ENDBRANCH   5  34
TORSDOF 8
ENDMDL
MODEL 4
REMARK VINA RESULT:    -7.237      2.732      3.374
REMARK INTER + INTRA:         -10.978
REMARK INTER:                 -10.178
REMARK INTRA:                  -0.800
REMARK UNBOUND:                -0.779
REMARK  Name = 
REMARK  8 active torsions:
REMARK  status: ('A' for Active; 'I' for Inactive)
REMARK    1  A    between atoms: C_1  and  C_2
REMARK    2  A    between atoms: C_4  and  C_11
REMARK    3  A    between atoms: C_6  and  C_8
REMARK    4  A    between atoms: N_13  and  C_14
REMARK    5  A    between atoms: C_18  and  C_20
REMARK    6  A    between atoms: C_20  and  C_21
REMARK    7  A    between atoms: C_20  and  C_22
REMARK    8  A    between atoms: C_22  and  C_23
REMARK                            x       y       z     vdW  Elec       q    Type
REMARK                         _______ _______ _______ _____ _____    ______ ____
ROOT
ATOM      1  C   UNL     1       1.650   9.669  18.153  0.00  0.00    +0.034 A 
ATOM      2  C   UNL     1       2.379  10.860  18.188  0.00  0.00    -0.040 A 
ATOM      3  C   UNL     1       1.725  12.070  18.428  0.00  0.00    -0.060 A 
ATOM      4  C   UNL     1       0.344  12.101  18.641  0.00  0.00    -0.058 A 
ATOM      5  C   UNL     1      -0.405  10.918  18.612  0.00  0.00    -0.042 A 
ATOM      6  C   UNL     1       0.260   9.707  18.351  0.00  0.00    -0.037 A 
ATOM      7  H   UNL     1       3.454  10.874  18.006  0.00  0.00    +0.064 HD
ATOM      8  H   UNL     1       2.303  12.991  18.456  0.00  0.00    +0.062 HD
ATOM      9  H   UNL     1      -0.132  13.059  18.837  0.00  0.00    +0.062 HD
ATOM     10  H   UNL     1      -0.313   8.778  18.340  0.00  0.00    +0.064 HD
ENDROOT
BRANCH   1  13
ATOM     11  C   UNL     1       2.403   7.378  18.825  0.00  0.00    +0.267 C 
ATOM     12  O   UNL     1       2.042   7.328  19.998  0.00  0.00    -0.268 OA
ATOM     13  N   UNL     1       2.230   8.411  17.916  0.00  0.00    -0.280 N 
ATOM     14  H   UNL     1       2.456   8.186  16.948  0.00  0.00    +0.155 HD
BRANCH  11  17
ATOM     15  C   UNL     1       2.981   3.933  17.597  0.00  0.00    +0.042 A 
ATOM     16  C   UNL     1       2.359   4.964  18.258  0.00  0.00    -0.010 A 
ATOM     17  C   UNL     1       3.024   6.173  18.206  0.00  0.00    +0.129 A 
ATOM     18  N   UNL     1       4.192   6.392  17.553  0.00  0.00    -0.227 NA
ATOM     19  C   UNL     1       4.746   5.327  16.954  0.00  0.00    +0.133 A 
ATOM     20  N   UNL     1       4.145   4.107  16.929  0.00  0.00    -0.237 NA
ATOM     21  H   UNL     1       1.412   4.848  18.776  0.00  0.00    +0.066 HD
BRANCH  19  22
ATOM     22  C   UNL     1       6.102   5.535  16.305  0.00  0.00    +0.019 C 
ATOM     23  C   UNL     1       7.325   4.793  16.803  0.00  0.00    -0.043 C 
ATOM     24  C   UNL     1       7.214   6.282  17.008  0.00  0.00    -0.043 C 
ATOM     25  H   UNL     1       6.054   5.677  15.227  0.00  0.00    +0.038 HD
ATOM     26  H   UNL     1       8.026   4.422  16.064  0.00  0.00    +0.027 HD
ATOM     27  H   UNL     1       7.240   4.157  17.682  0.00  0.00    +0.027 HD
ATOM     28  H   UNL     1       7.825   6.952  16.405  0.00  0.00    +0.027 HD
ATOM     29  H   UNL     1       7.035   6.644  18.018  0.00  0.00    +0.027 HD
ENDBRANCH  19  22
BRANCH  15  30
ATOM     30  C   UNL     1       2.362   2.572  17.559  0.00  0.00    -0.022 C 
ATOM     31  H   UNL     1       1.384   2.574  18.051  0.00  0.00    +0.029 HD
ATOM     32  H   UNL     1       2.997   1.834  18.071  0.00  0.00    +0.029 HD
ATOM     33  H   UNL     1       2.238   2.267  16.514  0.00  0.00    +0.029 HD
ENDBRANCH  15  30
ENDBRANCH  11  17
ENDBRANCH   1  13
BRANCH   5  34
ATOM     34  C   UNL     1      -1.898  10.895  18.915  0.00  0.00    -0.013 C 
ATOM     35  H   UNL     1      -2.067  10.173  19.726  0.00  0.00    +0.035 HD
BRANCH  34  36
ATOM     36  C   UNL     1      -2.710  10.397  17.712  0.00  0.00    -0.058 C 
ATOM     37  H   UNL     1      -2.050  10.034  16.918  0.00  0.00    +0.024 HD
ATOM     38  H   UNL     1      -3.322  11.201  17.295  0.00  0.00    +0.024 HD
ATOM     39  H   UNL     1      -3.386   9.577  17.983  0.00  0.00    +0.024 HD
ENDBRANCH  34  36
BRANCH  34  40
ATOM     40  C   UNL     1      -2.350  12.297  19.385  0.00  0.00    +0.004 C 
ATOM     41  H   UNL     1      -3.215  12.625  18.794  0.00  0.00    +0.034 HD
ATOM     42  H   UNL     1      -1.552  13.029  19.197  0.00  0.00    +0.034 HD
BRANCH  40  43
ATOM     43  C   UNL     1      -2.657  12.354  20.849  0.00  0.00    +0.095 C 
ATOM     44  N   UNL     1      -3.834  12.678  21.361  0.00  0.00    -0.147 NA
ATOM     45  N   UNL     1      -3.844  12.619  22.751  0.00  0.00    -0.150 NA
ATOM     46  C   UNL     1      -2.672  12.253  23.231  0.00  0.00    +0.081 C 
ATOM     47  S   UNL     1      -1.539  11.930  22.020  0.00  0.00    -0.094 S 
ATOM     48 CL   UNL     1      -0.381  13.504  22.307  0.00  0.00    -0.057 Cl
ATOM     49  H   UNL     1      -2.485  12.131  24.294  0.00  0.00    +0.092 HD
ATOM     50  H   UNL     1      -1.211  10.645  22.309  0.00  0.00    +0.109 HD
ENDBRANCH  40  43
ENDBRANCH  34  40
ENDBRANCH   5  34
TORSDOF 8
ENDMDL
MODEL 5
REMARK VINA RESULT:    -7.220      2.612      3.159
REMARK INTER + INTRA:         -10.954
REMARK INTER:                  -9.994
REMARK INTRA:                  -0.960
REMARK UNBOUND:                -0.779
REMARK  Name = 
REMARK  8 active torsions:
REMARK  status: ('A' for Active; 'I' for Inactive)
REMARK    1  A    between atoms: C_1  and  C_2
REMARK    2  A    between atoms: C_4  and  C_11
REMARK    3  A    between atoms: C_6  and  C_8
REMARK    4  A    between atoms: N_13  and  C_14
REMARK    5  A    between atoms: C_18  and  C_20
REMARK    6  A    between atoms: C_20  and  C_21
REMARK    7  A    between atoms: C_20  and  C_22
REMARK    8  A    between atoms: C_22  and  C_23
REMARK                            x       y       z     vdW  Elec       q    Type
REMARK                         _______ _______ _______ _____ _____    ______ ____
ROOT
ATOM      1  C   UNL     1       1.466   8.276  20.760  0.00  0.00    +0.034 A 
ATOM      2  C   UNL     1       1.165   8.498  22.105  0.00  0.00    -0.040 A 
ATOM      3  C   UNL     1       0.370   9.587  22.470  0.00  0.00    -0.060 A 
ATOM      4  C   UNL     1      -0.137  10.454  21.498  0.00  0.00    -0.058 A 
ATOM      5  C   UNL     1       0.151  10.247  20.143  0.00  0.00    -0.042 A 
ATOM      6  C   UNL     1       0.969   9.160  19.788  0.00  0.00    -0.037 A 
ATOM      7  H   UNL     1       1.561   7.853  22.890  0.00  0.00    +0.064 HD
ATOM      8  H   UNL     1       0.140   9.749  23.520  0.00  0.00    +0.062 HD
ATOM      9  H   UNL     1      -0.762  11.285  21.816  0.00  0.00    +0.062 HD
ATOM     10  H   UNL     1       1.187   8.982  18.733  0.00  0.00    +0.064 HD
ENDROOT
BRANCH   1  13
ATOM     11  C   UNL     1       1.953   5.855  20.345  0.00  0.00    +0.267 C 
ATOM     12  O   UNL     1       0.914   5.321  20.725  0.00  0.00    -0.268 OA
ATOM     13  N   UNL     1       2.260   7.207  20.308  0.00  0.00    -0.280 N 
ATOM     14  H   UNL     1       3.110   7.450  19.802  0.00  0.00    +0.155 HD
BRANCH  11  17
ATOM     15  C   UNL     1       3.753   3.077  18.686  0.00  0.00    +0.042 A 
ATOM     16  C   UNL     1       2.715   3.744  19.290  0.00  0.00    -0.010 A 
ATOM     17  C   UNL     1       3.023   5.012  19.741  0.00  0.00    +0.129 A 
ATOM     18  N   UNL     1       4.231   5.613  19.609  0.00  0.00    -0.227 NA
ATOM     19  C   UNL     1       5.197   4.885  19.029  0.00  0.00    +0.133 A 
ATOM     20  N   UNL     1       4.974   3.640  18.530  0.00  0.00    -0.237 NA
ATOM     21  H   UNL     1       1.723   3.317  19.400  0.00  0.00    +0.066 HD
BRANCH  19  22
ATOM     22  C   UNL     1       6.580   5.508  18.965  0.00  0.00    +0.019 C 
ATOM     23  C   UNL     1       7.016   6.311  17.757  0.00  0.00    -0.043 C 
ATOM     24  C   UNL     1       7.651   4.974  18.039  0.00  0.00    -0.043 C 
ATOM     25  H   UNL     1       6.935   5.882  19.923  0.00  0.00    +0.038 HD
ATOM     26  H   UNL     1       7.598   7.209  17.932  0.00  0.00    +0.027 HD
ATOM     27  H   UNL     1       6.352   6.381  16.897  0.00  0.00    +0.027 HD
ATOM     28  H   UNL     1       8.669   4.935  18.423  0.00  0.00    +0.027 HD
ATOM     29  H   UNL     1       7.400   4.143  17.383  0.00  0.00    +0.027 HD
ENDBRANCH  19  22
BRANCH  15  30
ATOM     30  C   UNL     1       3.554   1.700  18.137  0.00  0.00    -0.022 C 
ATOM     31  H   UNL     1       2.501   1.407  18.190  0.00  0.00    +0.029 HD
ATOM     32  H   UNL     1       4.141   0.960  18.701  0.00  0.00    +0.029 HD
ATOM     33  H   UNL     1       3.879   1.684  17.090  0.00  0.00    +0.029 HD
ENDBRANCH  15  30
ENDBRANCH  11  17
ENDBRANCH   1  13
BRANCH   5  34
ATOM     34  C   UNL     1      -0.441  11.121  19.045  0.00  0.00    -0.013 C 
ATOM     35  H   UNL     1      -1.172  11.799  19.509  0.00  0.00    +0.035 HD
BRANCH  34  36
ATOM     36  C   UNL     1      -1.213  10.286  18.015  0.00  0.00    -0.058 C 
ATOM     37  H   UNL     1      -1.363   9.264  18.374  0.00  0.00    +0.024 HD
ATOM     38  H   UNL     1      -0.666  10.232  17.069  0.00  0.00    +0.024 HD
ATOM     39  H   UNL     1      -2.200  10.711  17.798  0.00  0.00    +0.024 HD
ENDBRANCH  34  36
BRANCH  34  40
ATOM     40  C   UNL     1       0.682  11.962  18.394  0.00  0.00    +0.004 C 
ATOM     41  H   UNL     1       0.369  12.287  17.393  0.00  0.00    +0.034 HD
ATOM     42  H   UNL     1       1.577  11.341  18.250  0.00  0.00    +0.034 HD
BRANCH  40  43
ATOM     43  C   UNL     1       1.094  13.135  19.227  0.00  0.00    +0.095 C 
ATOM     44  N   UNL     1       2.247  13.236  19.869  0.00  0.00    -0.147 NA
ATOM     45  N   UNL     1       2.378  14.448  20.539  0.00  0.00    -0.150 NA
ATOM     46  C   UNL     1       1.317  15.212  20.375  0.00  0.00    +0.081 C 
ATOM     47  S   UNL     1       0.150  14.509  19.375  0.00  0.00    -0.094 S 
ATOM     48 CL   UNL     1      -1.202  14.130  20.764  0.00  0.00    -0.057 Cl
ATOM     49  H   UNL     1       1.236  16.206  20.805  0.00  0.00    +0.092 HD
ATOM     50  H   UNL     1       0.041  15.449  18.403  0.00  0.00    +0.109 HD
ENDBRANCH  40  43
ENDBRANCH  34  40
ENDBRANCH   5  34
TORSDOF 8
ENDMDL
MODEL 6
REMARK VINA RESULT:    -7.190      1.757      2.421
REMARK INTER + INTRA:         -10.912
REMARK INTER:                 -10.013
REMARK INTRA:                  -0.899
REMARK UNBOUND:                -0.779
REMARK  Name = 
REMARK  8 active torsions:
REMARK  status: ('A' for Active; 'I' for Inactive)
REMARK    1  A    between atoms: C_1  and  C_2
REMARK    2  A    between atoms: C_4  and  C_11
REMARK    3  A    between atoms: C_6  and  C_8
REMARK    4  A    between atoms: N_13  and  C_14
REMARK    5  A    between atoms: C_18  and  C_20
REMARK    6  A    between atoms: C_20  and  C_21
REMARK    7  A    between atoms: C_20  and  C_22
REMARK    8  A    between atoms: C_22  and  C_23
REMARK                            x       y       z     vdW  Elec       q    Type
REMARK                         _______ _______ _______ _____ _____    ______ ____
ROOT
ATOM      1  C   UNL     1       1.955   7.814  19.928  0.00  0.00    +0.034 A 
ATOM      2  C   UNL     1       1.259   7.411  21.070  0.00  0.00    -0.040 A 
ATOM      3  C   UNL     1       0.158   8.147  21.511  0.00  0.00    -0.060 A 
ATOM      4  C   UNL     1      -0.263   9.283  20.813  0.00  0.00    -0.058 A 
ATOM      5  C   UNL     1       0.419   9.703  19.664  0.00  0.00    -0.042 A 
ATOM      6  C   UNL     1       1.539   8.967  19.240  0.00  0.00    -0.037 A 
ATOM      7  H   UNL     1       1.573   6.542  21.649  0.00  0.00    +0.064 HD
ATOM      8  H   UNL     1      -0.378   7.822  22.399  0.00  0.00    +0.062 HD
ATOM      9  H   UNL     1      -1.131   9.827  21.177  0.00  0.00    +0.062 HD
ATOM     10  H   UNL     1       2.069   9.278  18.337  0.00  0.00    +0.064 HD
ENDROOT
BRANCH   1  13
ATOM     11  C   UNL     1       3.078   6.045  18.558  0.00  0.00    +0.267 C 
ATOM     12  O   UNL     1       2.119   5.492  18.025  0.00  0.00    -0.268 OA
ATOM     13  N   UNL     1       3.074   7.132  19.420  0.00  0.00    -0.280 N 
ATOM     14  H   UNL     1       3.986   7.539  19.616  0.00  0.00    +0.155 HD
BRANCH  11  17
ATOM     15  C   UNL     1       6.715   5.359  18.686  0.00  0.00    +0.042 A 
ATOM     16  C   UNL     1       5.498   5.865  19.073  0.00  0.00    -0.010 A 
ATOM     17  C   UNL     1       4.458   5.607  18.202  0.00  0.00    +0.129 A 
ATOM     18  N   UNL     1       4.564   4.899  17.051  0.00  0.00    -0.227 NA
ATOM     19  C   UNL     1       5.791   4.461  16.734  0.00  0.00    +0.133 A 
ATOM     20  N   UNL     1       6.865   4.643  17.547  0.00  0.00    -0.237 NA
ATOM     21  H   UNL     1       5.354   6.418  19.996  0.00  0.00    +0.066 HD
BRANCH  19  22
ATOM     22  C   UNL     1       5.942   3.754  15.400  0.00  0.00    +0.019 C 
ATOM     23  C   UNL     1       6.794   4.348  14.296  0.00  0.00    -0.043 C 
ATOM     24  C   UNL     1       5.296   4.287  14.139  0.00  0.00    -0.043 C 
ATOM     25  H   UNL     1       5.981   2.670  15.481  0.00  0.00    +0.038 HD
ATOM     26  H   UNL     1       7.405   3.671  13.710  0.00  0.00    +0.027 HD
ATOM     27  H   UNL     1       7.245   5.328  14.441  0.00  0.00    +0.027 HD
ATOM     28  H   UNL     1       4.859   3.561  13.456  0.00  0.00    +0.027 HD
ATOM     29  H   UNL     1       4.741   5.221  14.198  0.00  0.00    +0.027 HD
ENDBRANCH  19  22
BRANCH  15  30
ATOM     30  C   UNL     1       7.924   5.551  19.544  0.00  0.00    -0.022 C 
ATOM     31  H   UNL     1       8.368   4.587  19.816  0.00  0.00    +0.029 HD
ATOM     32  H   UNL     1       7.670   6.080  20.474  0.00  0.00    +0.029 HD
ATOM     33  H   UNL     1       8.662   6.143  18.992  0.00  0.00    +0.029 HD
ENDBRANCH  15  30
ENDBRANCH  11  17
ENDBRANCH   1  13
BRANCH   5  34
ATOM     34  C   UNL     1      -0.049  10.889  18.830  0.00  0.00    -0.013 C 
ATOM     35  H   UNL     1      -0.352  10.510  17.844  0.00  0.00    +0.035 HD
BRANCH  34  36
ATOM     36  C   UNL     1       1.088  11.888  18.583  0.00  0.00    -0.058 C 
ATOM     37  H   UNL     1       0.693  12.883  18.355  0.00  0.00    +0.024 HD
ATOM     38  H   UNL     1       1.707  11.573  17.738  0.00  0.00    +0.024 HD
ATOM     39  H   UNL     1       1.748  11.984  19.453  0.00  0.00    +0.024 HD
ENDBRANCH  34  36
BRANCH  34  40
ATOM     40  C   UNL     1      -1.269  11.549  19.513  0.00  0.00    +0.004 C 
ATOM     41  H   UNL     1      -1.007  12.564  19.841  0.00  0.00    +0.034 HD
ATOM     42  H   UNL     1      -1.536  10.991  20.422  0.00  0.00    +0.034 HD
BRANCH  40  43
ATOM     43  C   UNL     1      -2.487  11.572  18.643  0.00  0.00    +0.095 C 
ATOM     44  N   UNL     1      -3.709  11.856  19.064  0.00  0.00    -0.147 NA
ATOM     45  N   UNL     1      -4.645  11.834  18.034  0.00  0.00    -0.150 NA
ATOM     46  C   UNL     1      -4.089  11.534  16.878  0.00  0.00    +0.081 C 
ATOM     47  S   UNL     1      -2.418  11.311  16.991  0.00  0.00    -0.094 S 
ATOM     48 CL   UNL     1      -2.388   9.355  16.720  0.00  0.00    -0.057 Cl
ATOM     49  H   UNL     1      -4.652  11.486  15.950  0.00  0.00    +0.092 HD
ATOM     50  H   UNL     1      -1.972  12.237  16.106  0.00  0.00    +0.109 HD
ENDBRANCH  40  43
ENDBRANCH  34  40
ENDBRANCH   5  34
TORSDOF 8
ENDMDL
MODEL 7
REMARK VINA RESULT:    -7.184      3.588      8.536
REMARK INTER + INTRA:         -10.903
REMARK INTER:                 -10.644
REMARK INTRA:                  -0.259
REMARK UNBOUND:                -0.779
REMARK  Name = 
REMARK  8 active torsions:
REMARK  status: ('A' for Active; 'I' for Inactive)
REMARK    1  A    between atoms: C_1  and  C_2
REMARK    2  A    between atoms: C_4  and  C_11
REMARK    3  A    between atoms: C_6  and  C_8
REMARK    4  A    between atoms: N_13  and  C_14
REMARK    5  A    between atoms: C_18  and  C_20
REMARK    6  A    between atoms: C_20  and  C_21
REMARK    7  A    between atoms: C_20  and  C_22
REMARK    8  A    between atoms: C_22  and  C_23
REMARK                            x       y       z     vdW  Elec       q    Type
REMARK                         _______ _______ _______ _____ _____    ______ ____
ROOT
ATOM      1  C   UNL     1       1.848   4.842  20.676  0.00  0.00    +0.034 A 
ATOM      2  C   UNL     1       2.010   4.003  21.781  0.00  0.00    -0.040 A 
ATOM      3  C   UNL     1       2.412   2.679  21.596  0.00  0.00    -0.060 A 
ATOM      4  C   UNL     1       2.664   2.184  20.313  0.00  0.00    -0.058 A 
ATOM      5  C   UNL     1       2.509   3.010  19.192  0.00  0.00    -0.042 A 
ATOM      6  C   UNL     1       2.084   4.336  19.387  0.00  0.00    -0.037 A 
ATOM      7  H   UNL     1       1.803   4.351  22.793  0.00  0.00    +0.064 HD
ATOM      8  H   UNL     1       2.539   2.035  22.463  0.00  0.00    +0.062 HD
ATOM      9  H   UNL     1       2.987   1.152  20.205  0.00  0.00    +0.062 HD
ATOM     10  H   UNL     1       1.975   4.992  18.520  0.00  0.00    +0.064 HD
ENDROOT
BRANCH   1  13
ATOM     11  C   UNL     1       1.923   7.264  20.047  0.00  0.00    +0.267 C 
ATOM     12  O   UNL     1       2.751   7.263  19.139  0.00  0.00    -0.268 OA
ATOM     13  N   UNL     1       1.444   6.185  20.774  0.00  0.00    -0.280 N 
ATOM     14  H   UNL     1       0.639   6.378  21.367  0.00  0.00    +0.155 HD
BRANCH  11  17
ATOM     15  C   UNL     1       0.065   9.894  21.876  0.00  0.00    +0.042 A 
ATOM     16  C   UNL     1       0.612   8.659  21.624  0.00  0.00    -0.010 A 
ATOM     17  C   UNL     1       1.231   8.537  20.395  0.00  0.00    +0.129 A 
ATOM     18  N   UNL     1       1.340   9.529  19.477  0.00  0.00    -0.227 NA
ATOM     19  C   UNL     1       0.758  10.696  19.791  0.00  0.00    +0.133 A 
ATOM     20  N   UNL     1       0.154  10.913  20.990  0.00  0.00    -0.237 NA
ATOM     21  H   UNL     1       0.573   7.839  22.334  0.00  0.00    +0.066 HD
BRANCH  19  22
ATOM     22  C   UNL     1       0.786  11.782  18.732  0.00  0.00    +0.019 C 
ATOM     23  C   UNL     1       1.994  12.683  18.573  0.00  0.00    -0.043 C 
ATOM     24  C   UNL     1       0.697  13.249  19.093  0.00  0.00    -0.043 C 
ATOM     25  H   UNL     1       0.294  11.500  17.804  0.00  0.00    +0.038 HD
ATOM     26  H   UNL     1       2.304  12.938  17.566  0.00  0.00    +0.027 HD
ATOM     27  H   UNL     1       2.821  12.593  19.275  0.00  0.00    +0.027 HD
ATOM     28  H   UNL     1       0.095  13.887  18.449  0.00  0.00    +0.027 HD
ATOM     29  H   UNL     1       0.647  13.520  20.146  0.00  0.00    +0.027 HD
ENDBRANCH  19  22
BRANCH  15  30
ATOM     30  C   UNL     1      -0.622  10.169  23.176  0.00  0.00    -0.022 C 
ATOM     31  H   UNL     1      -0.847   9.236  23.704  0.00  0.00    +0.029 HD
ATOM     32  H   UNL     1      -1.568  10.706  23.018  0.00  0.00    +0.029 HD
ATOM     33  H   UNL     1       0.034  10.786  23.801  0.00  0.00    +0.029 HD
ENDBRANCH  15  30
ENDBRANCH  11  17
ENDBRANCH   1  13
BRANCH   5  34
ATOM     34  C   UNL     1       2.845   2.537  17.783  0.00  0.00    -0.013 C 
ATOM     35  H   UNL     1       1.931   2.115  17.342  0.00  0.00    +0.035 HD
BRANCH  34  36
ATOM     36  C   UNL     1       3.884   1.409  17.799  0.00  0.00    -0.058 C 
ATOM     37  H   UNL     1       3.904   0.910  18.772  0.00  0.00    +0.024 HD
ATOM     38  H   UNL     1       4.886   1.800  17.603  0.00  0.00    +0.024 HD
ATOM     39  H   UNL     1       3.675   0.647  17.038  0.00  0.00    +0.024 HD
ENDBRANCH  34  36
BRANCH  34  40
ATOM     40  C   UNL     1       3.304   3.744  16.931  0.00  0.00    +0.004 C 
ATOM     41  H   UNL     1       2.679   4.618  17.160  0.00  0.00    +0.034 HD
ATOM     42  H   UNL     1       3.151   3.527  15.864  0.00  0.00    +0.034 HD
BRANCH  40  43
ATOM     43  C   UNL     1       4.754   4.068  17.107  0.00  0.00    +0.095 C 
ATOM     44  N   UNL     1       5.311   4.436  18.249  0.00  0.00    -0.147 NA
ATOM     45  N   UNL     1       6.681   4.646  18.130  0.00  0.00    -0.150 NA
ATOM     46  C   UNL     1       7.102   4.426  16.900  0.00  0.00    +0.081 C 
ATOM     47  S   UNL     1       5.865   3.922  15.864  0.00  0.00    -0.094 S 
ATOM     48 CL   UNL     1       5.735   5.567  14.780  0.00  0.00    -0.057 Cl
ATOM     49  H   UNL     1       8.144   4.518  16.610  0.00  0.00    +0.092 HD
ATOM     50  H   UNL     1       6.356   2.732  15.436  0.00  0.00    +0.109 HD
ENDBRANCH  40  43
ENDBRANCH  34  40
ENDBRANCH   5  34
TORSDOF 8
ENDMDL
MODEL 8
REMARK VINA RESULT:    -7.175      2.837      3.660
REMARK INTER + INTRA:         -10.890
REMARK INTER:                 -10.353
REMARK INTRA:                  -0.537
REMARK UNBOUND:                -0.779
REMARK  Name = 
REMARK  8 active torsions:
REMARK  status: ('A' for Active; 'I' for Inactive)
REMARK    1  A    between atoms: C_1  and  C_2
REMARK    2  A    between atoms: C_4  and  C_11
REMARK    3  A    between atoms: C_6  and  C_8
REMARK    4  A    between atoms: N_13  and  C_14
REMARK    5  A    between atoms: C_18  and  C_20
REMARK    6  A    between atoms: C_20  and  C_21
REMARK    7  A    between atoms: C_20  and  C_22
REMARK    8  A    between atoms: C_22  and  C_23
REMARK                            x       y       z     vdW  Elec       q    Type
REMARK                         _______ _______ _______ _____ _____    ______ ____
ROOT
ATOM      1  C   UNL     1       1.490   8.606  19.394  0.00  0.00    +0.034 A 
ATOM      2  C   UNL     1       1.050   9.327  18.282  0.00  0.00    -0.040 A 
ATOM      3  C   UNL     1       0.244  10.454  18.458  0.00  0.00    -0.060 A 
ATOM      4  C   UNL     1      -0.120  10.875  19.740  0.00  0.00    -0.058 A 
ATOM      5  C   UNL     1       0.314  10.167  20.869  0.00  0.00    -0.042 A 
ATOM      6  C   UNL     1       1.108   9.022  20.681  0.00  0.00    -0.037 A 
ATOM      7  H   UNL     1       1.298   9.014  17.268  0.00  0.00    +0.064 HD
ATOM      8  H   UNL     1      -0.091  11.009  17.585  0.00  0.00    +0.062 HD
ATOM      9  H   UNL     1      -0.738  11.763  19.842  0.00  0.00    +0.062 HD
ATOM     10  H   UNL     1       1.463   8.472  21.554  0.00  0.00    +0.064 HD
ENDROOT
BRANCH   1  13
ATOM     11  C   UNL     1       2.153   6.268  19.998  0.00  0.00    +0.267 C 
ATOM     12  O   UNL     1       1.264   5.949  20.783  0.00  0.00    -0.268 OA
ATOM     13  N   UNL     1       2.301   7.461  19.305  0.00  0.00    -0.280 N 
ATOM     14  H   UNL     1       3.014   7.460  18.578  0.00  0.00    +0.155 HD
BRANCH  11  17
ATOM     15  C   UNL     1       3.810   3.116  18.981  0.00  0.00    +0.042 A 
ATOM     16  C   UNL     1       2.800   3.950  19.396  0.00  0.00    -0.010 A 
ATOM     17  C   UNL     1       3.182   5.259  19.617  0.00  0.00    +0.129 A 
ATOM     18  N   UNL     1       4.435   5.745  19.438  0.00  0.00    -0.227 NA
ATOM     19  C   UNL     1       5.367   4.859  19.056  0.00  0.00    +0.133 A 
ATOM     20  N   UNL     1       5.074   3.560  18.786  0.00  0.00    -0.237 NA
ATOM     21  H   UNL     1       1.776   3.617  19.532  0.00  0.00    +0.066 HD
BRANCH  19  22
ATOM     22  C   UNL     1       6.792   5.369  18.948  0.00  0.00    +0.019 C 
ATOM     23  C   UNL     1       7.212   6.270  17.805  0.00  0.00    -0.043 C 
ATOM     24  C   UNL     1       7.741   4.861  17.884  0.00  0.00    -0.043 C 
ATOM     25  H   UNL     1       7.249   5.597  19.908  0.00  0.00    +0.038 HD
ATOM     26  H   UNL     1       7.885   7.090  18.029  0.00  0.00    +0.027 HD
ATOM     27  H   UNL     1       6.498   6.496  17.015  0.00  0.00    +0.027 HD
ATOM     28  H   UNL     1       8.776   4.693  18.175  0.00  0.00    +0.027 HD
ATOM     29  H   UNL     1       7.368   4.137  17.162  0.00  0.00    +0.027 HD
ENDBRANCH  19  22
BRANCH  15  30
ATOM     30  C   UNL     1       3.533   1.676  18.690  0.00  0.00    -0.022 C 
ATOM     31  H   UNL     1       4.293   1.031  19.144  0.00  0.00    +0.029 HD
ATOM     32  H   UNL     1       3.529   1.484  17.607  0.00  0.00    +0.029 HD
ATOM     33  H   UNL     1       2.550   1.413  19.097  0.00  0.00    +0.029 HD
ENDBRANCH  15  30
ENDBRANCH  11  17
ENDBRANCH   1  13
BRANCH   5  34
ATOM     34  C   UNL     1       0.006  10.632  22.286  0.00  0.00    -0.013 C 
ATOM     35  H   UNL     1       0.840  11.263  22.624  0.00  0.00    +0.035 HD
BRANCH  34  36
ATOM     36  C   UNL     1      -0.071   9.452  23.263  0.00  0.00    -0.058 C 
ATOM     37  H   UNL     1      -0.695   9.699  24.127  0.00  0.00    +0.024 HD
ATOM     38  H   UNL     1       0.923   9.187  23.633  0.00  0.00    +0.024 HD
ATOM     39  H   UNL     1      -0.495   8.557  22.792  0.00  0.00    +0.024 HD
ENDBRANCH  34  36
BRANCH  34  40
ATOM     40  C   UNL     1      -1.291  11.473  22.282  0.00  0.00    +0.004 C 
ATOM     41  H   UNL     1      -2.044  10.999  22.926  0.00  0.00    +0.034 HD
ATOM     42  H   UNL     1      -1.721  11.492  21.270  0.00  0.00    +0.034 HD
BRANCH  40  43
ATOM     43  C   UNL     1      -1.070  12.897  22.688  0.00  0.00    +0.095 C 
ATOM     44  N   UNL     1      -1.644  13.483  23.725  0.00  0.00    -0.147 NA
ATOM     45  N   UNL     1      -1.233  14.802  23.886  0.00  0.00    -0.150 NA
ATOM     46  C   UNL     1      -0.363  15.157  22.962  0.00  0.00    +0.081 C 
ATOM     47  S   UNL     1       0.013  13.899  21.898  0.00  0.00    -0.094 S 
ATOM     48 CL   UNL     1      -0.914  14.607  20.305  0.00  0.00    -0.057 Cl
ATOM     49  H   UNL     1       0.090  16.143  22.929  0.00  0.00    +0.092 HD
ATOM     50  H   UNL     1       1.359  13.819  22.058  0.00  0.00    +0.109 HD
ENDBRANCH  40  43
ENDBRANCH  34  40
ENDBRANCH   5  34
TORSDOF 8
ENDMDL
MODEL 9
REMARK VINA RESULT:    -7.167      2.911      4.290
REMARK INTER + INTRA:         -10.879
REMARK INTER:                 -10.082
REMARK INTRA:                  -0.796
REMARK UNBOUND:                -0.779
REMARK  Name = 
REMARK  8 active torsions:
REMARK  status: ('A' for Active; 'I' for Inactive)
REMARK    1  A    between atoms: C_1  and  C_2
REMARK    2  A    between atoms: C_4  and  C_11
REMARK    3  A    between atoms: C_6  and  C_8
REMARK    4  A    between atoms: N_13  and  C_14
REMARK    5  A    between atoms: C_18  and  C_20
REMARK    6  A    between atoms: C_20  and  C_21
REMARK    7  A    between atoms: C_20  and  C_22
REMARK    8  A    between atoms: C_22  and  C_23
REMARK                            x       y       z     vdW  Elec       q    Type
REMARK                         _______ _______ _______ _____ _____    ______ ____
ROOT
ATOM      1  C   UNL     1       1.245  10.340  18.559  0.00  0.00    +0.034 A 
ATOM      2  C   UNL     1       1.971  11.530  18.473  0.00  0.00    -0.040 A 
ATOM      3  C   UNL     1       1.320  12.755  18.633  0.00  0.00    -0.060 A 
ATOM      4  C   UNL     1      -0.053  12.802  18.888  0.00  0.00    -0.058 A 
ATOM      5  C   UNL     1      -0.799  11.620  18.980  0.00  0.00    -0.042 A 
ATOM      6  C   UNL     1      -0.138  10.392  18.798  0.00  0.00    -0.037 A 
ATOM      7  H   UNL     1       3.039  11.529  18.255  0.00  0.00    +0.064 HD
ATOM      8  H   UNL     1       1.895  13.675  18.567  0.00  0.00    +0.062 HD
ATOM      9  H   UNL     1      -0.526  13.772  19.019  0.00  0.00    +0.062 HD
ATOM     10  H   UNL     1      -0.708   9.465  18.883  0.00  0.00    +0.064 HD
ENDROOT
BRANCH   1  13
ATOM     11  C   UNL     1       1.988   8.095  19.385  0.00  0.00    +0.267 C 
ATOM     12  O   UNL     1       1.622   8.124  20.557  0.00  0.00    -0.268 OA
ATOM     13  N   UNL     1       1.822   9.067  18.409  0.00  0.00    -0.280 N 
ATOM     14  H   UNL     1       2.051   8.777  17.459  0.00  0.00    +0.155 HD
BRANCH  11  17
ATOM     15  C   UNL     1       4.067   5.739  17.426  0.00  0.00    +0.042 A 
ATOM     16  C   UNL     1       3.499   6.934  17.798  0.00  0.00    -0.010 A 
ATOM     17  C   UNL     1       2.607   6.850  18.849  0.00  0.00    +0.129 A 
ATOM     18  N   UNL     1       2.292   5.712  19.514  0.00  0.00    -0.227 NA
ATOM     19  C   UNL     1       2.872   4.585  19.072  0.00  0.00    +0.133 A 
ATOM     20  N   UNL     1       3.784   4.580  18.064  0.00  0.00    -0.237 NA
ATOM     21  H   UNL     1       3.735   7.876  17.314  0.00  0.00    +0.066 HD
BRANCH  19  22
ATOM     22  C   UNL     1       2.452   3.290  19.742  0.00  0.00    +0.019 C 
ATOM     23  C   UNL     1       1.228   2.531  19.270  0.00  0.00    -0.043 C 
ATOM     24  C   UNL     1       1.218   3.210  20.615  0.00  0.00    -0.043 C 
ATOM     25  H   UNL     1       3.287   2.670  20.058  0.00  0.00    +0.038 HD
ATOM     26  H   UNL     1       1.288   1.449  19.235  0.00  0.00    +0.027 HD
ATOM     27  H   UNL     1       0.607   2.959  18.486  0.00  0.00    +0.027 HD
ATOM     28  H   UNL     1       1.284   2.608  21.519  0.00  0.00    +0.027 HD
ATOM     29  H   UNL     1       0.607   4.103  20.729  0.00  0.00    +0.027 HD
ENDBRANCH  19  22
BRANCH  15  30
ATOM     30  C   UNL     1       5.063   5.687  16.311  0.00  0.00    -0.022 C 
ATOM     31  H   UNL     1       6.082   5.815  16.691  0.00  0.00    +0.029 HD
ATOM     32  H   UNL     1       4.875   6.481  15.574  0.00  0.00    +0.029 HD
ATOM     33  H   UNL     1       4.987   4.715  15.811  0.00  0.00    +0.029 HD
ENDBRANCH  15  30
ENDBRANCH  11  17
ENDBRANCH   1  13
BRANCH   5  34
ATOM     34  C   UNL     1      -2.281  11.620  19.332  0.00  0.00    -0.013 C 
ATOM     35  H   UNL     1      -2.465  10.785  20.022  0.00  0.00    +0.035 HD
BRANCH  34  36
ATOM     36  C   UNL     1      -3.154  11.365  18.096  0.00  0.00    -0.058 C 
ATOM     37  H   UNL     1      -2.557  10.959  17.273  0.00  0.00    +0.024 HD
ATOM     38  H   UNL     1      -3.616  12.293  17.748  0.00  0.00    +0.024 HD
ATOM     39  H   UNL     1      -3.962  10.654  18.303  0.00  0.00    +0.024 HD
ENDBRANCH  34  36
BRANCH  34  40
ATOM     40  C   UNL     1      -2.642  12.947  20.039  0.00  0.00    +0.004 C 
ATOM     41  H   UNL     1      -3.406  13.481  19.459  0.00  0.00    +0.034 HD
ATOM     42  H   UNL     1      -1.763  13.606  20.070  0.00  0.00    +0.034 HD
BRANCH  40  43
ATOM     43  C   UNL     1      -3.092  12.754  21.454  0.00  0.00    +0.095 C 
ATOM     44  N   UNL     1      -4.329  12.940  21.884  0.00  0.00    -0.147 NA
ATOM     45  N   UNL     1      -4.469  12.658  23.239  0.00  0.00    -0.150 NA
ATOM     46  C   UNL     1      -3.330  12.272  23.776  0.00  0.00    +0.081 C 
ATOM     47  S   UNL     1      -2.068  12.197  22.655  0.00  0.00    -0.094 S 
ATOM     48 CL   UNL     1      -1.039  13.753  23.302  0.00  0.00    -0.057 Cl
ATOM     49  H   UNL     1      -3.238  11.988  24.821  0.00  0.00    +0.092 HD
ATOM     50  H   UNL     1      -1.692  10.898  22.774  0.00  0.00    +0.109 HD
ENDBRANCH  40  43
ENDBRANCH  34  40
ENDBRANCH   5  34
TORSDOF 8
ENDMDL
MODEL 10
REMARK VINA RESULT:    -7.035      3.373      4.685
REMARK INTER + INTRA:         -10.693
REMARK INTER:                 -10.266
REMARK INTRA:                  -0.427
REMARK UNBOUND:                -0.779
REMARK  Name = 
REMARK  8 active torsions:
REMARK  status: ('A' for Active; 'I' for Inactive)
REMARK    1  A    between atoms: C_1  and  C_2
REMARK    2  A    between atoms: C_4  and  C_11
REMARK    3  A    between atoms: C_6  and  C_8
REMARK    4  A    between atoms: N_13  and  C_14
REMARK    5  A    between atoms: C_18  and  C_20
REMARK    6  A    between atoms: C_20  and  C_21
REMARK    7  A    between atoms: C_20  and  C_22
REMARK    8  A    between atoms: C_22  and  C_23
REMARK                            x       y       z     vdW  Elec       q    Type
REMARK                         _______ _______ _______ _____ _____    ______ ____
ROOT
ATOM      1  C   UNL     1       1.241   8.939  19.466  0.00  0.00    +0.034 A 
ATOM      2  C   UNL     1       0.879   9.772  18.405  0.00  0.00    -0.040 A 
ATOM      3  C   UNL     1       0.095  10.903  18.644  0.00  0.00    -0.060 A 
ATOM      4  C   UNL     1      -0.325  11.216  19.941  0.00  0.00    -0.058 A 
ATOM      5  C   UNL     1       0.029  10.395  21.018  0.00  0.00    -0.042 A 
ATOM      6  C   UNL     1       0.802   9.247  20.765  0.00  0.00    -0.037 A 
ATOM      7  H   UNL     1       1.173   9.547  17.380  0.00  0.00    +0.064 HD
ATOM      8  H   UNL     1      -0.178  11.547  17.812  0.00  0.00    +0.062 HD
ATOM      9  H   UNL     1      -0.924  12.110  20.093  0.00  0.00    +0.062 HD
ATOM     10  H   UNL     1       1.095   8.608  21.600  0.00  0.00    +0.064 HD
ENDROOT
BRANCH   1  13
ATOM     11  C   UNL     1       2.857   7.463  18.249  0.00  0.00    +0.267 C 
ATOM     12  O   UNL     1       3.121   8.141  17.259  0.00  0.00    -0.268 OA
ATOM     13  N   UNL     1       2.024   7.782  19.312  0.00  0.00    -0.280 N 
ATOM     14  H   UNL     1       2.073   7.152  20.111  0.00  0.00    +0.155 HD
BRANCH  11  17
ATOM     15  C   UNL     1       5.422   4.793  18.236  0.00  0.00    +0.042 A 
ATOM     16  C   UNL     1       4.833   5.998  17.938  0.00  0.00    -0.010 A 
ATOM     17  C   UNL     1       3.561   6.165  18.448  0.00  0.00    +0.129 A 
ATOM     18  N   UNL     1       2.901   5.256  19.207  0.00  0.00    -0.227 NA
ATOM     19  C   UNL     1       3.536   4.096  19.431  0.00  0.00    +0.133 A 
ATOM     20  N   UNL     1       4.801   3.858  18.994  0.00  0.00    -0.237 NA
ATOM     21  H   UNL     1       5.327   6.768  17.354  0.00  0.00    +0.066 HD
BRANCH  19  22
ATOM     22  C   UNL     1       2.769   3.032  20.195  0.00  0.00    +0.019 C 
ATOM     23  C   UNL     1       1.766   2.140  19.491  0.00  0.00    -0.043 C 
ATOM     24  C   UNL     1       1.290   3.170  20.484  0.00  0.00    -0.043 C 
ATOM     25  H   UNL     1       3.353   2.547  20.974  0.00  0.00    +0.038 HD
ATOM     26  H   UNL     1       1.735   1.094  19.774  0.00  0.00    +0.027 HD
ATOM     27  H   UNL     1       1.545   2.315  18.440  0.00  0.00    +0.027 HD
ATOM     28  H   UNL     1       0.939   2.849  21.462  0.00  0.00    +0.027 HD
ATOM     29  H   UNL     1       0.768   4.044  20.098  0.00  0.00    +0.027 HD
ENDBRANCH  19  22
BRANCH  15  30
ATOM     30  C   UNL     1       6.806   4.486  17.760  0.00  0.00    -0.022 C 
ATOM     31  H   UNL     1       7.532   4.596  18.572  0.00  0.00    +0.029 HD
ATOM     32  H   UNL     1       7.103   5.161  16.945  0.00  0.00    +0.029 HD
ATOM     33  H   UNL     1       6.834   3.454  17.391  0.00  0.00    +0.029 HD
ENDBRANCH  15  30
ENDBRANCH  11  17
ENDBRANCH   1  13
BRANCH   5  34
ATOM     34  C   UNL     1      -0.342  10.737  22.456  0.00  0.00    -0.013 C 
ATOM     35  H   UNL     1       0.273  11.593  22.769  0.00  0.00    +0.035 HD
BRANCH  34  36
ATOM     36  C   UNL     1      -0.007   9.586  23.414  0.00  0.00    -0.058 C 
ATOM     37  H   UNL     1      -0.632   9.630  24.311  0.00  0.00    +0.024 HD
ATOM     38  H   UNL     1       1.038   9.635  23.731  0.00  0.00    +0.024 HD
ATOM     39  H   UNL     1      -0.162   8.605  22.948  0.00  0.00    +0.024 HD
ENDBRANCH  34  36
BRANCH  34  40
ATOM     40  C   UNL     1      -1.834  11.137  22.521  0.00  0.00    +0.004 C 
ATOM     41  H   UNL     1      -2.393  10.391  23.101  0.00  0.00    +0.034 HD
ATOM     42  H   UNL     1      -2.267  11.130  21.511  0.00  0.00    +0.034 HD
BRANCH  40  43
ATOM     43  C   UNL     1      -2.049  12.510  23.077  0.00  0.00    +0.095 C 
ATOM     44  N   UNL     1      -1.082  13.341  23.430  0.00  0.00    -0.147 NA
ATOM     45  N   UNL     1      -1.569  14.562  23.886  0.00  0.00    -0.150 NA
ATOM     46  C   UNL     1      -2.886  14.601  23.859  0.00  0.00    +0.081 C 
ATOM     47  S   UNL     1      -3.572  13.184  23.244  0.00  0.00    -0.094 S 
ATOM     48 CL   UNL     1      -4.325  12.494  24.933  0.00  0.00    -0.057 Cl
ATOM     49  H   UNL     1      -3.454  15.477  24.158  0.00  0.00    +0.092 HD
ATOM     50  H   UNL     1      -4.290  13.675  22.202  0.00  0.00    +0.109 HD
ENDBRANCH  40  43
ENDBRANCH  34  40
ENDBRANCH   5  34
TORSDOF 8
ENDMDL
MODEL 11
REMARK VINA RESULT:    -7.018      3.132      3.745
REMARK INTER + INTRA:         -10.669
REMARK INTER:                 -10.251
REMARK INTRA:                  -0.418
REMARK UNBOUND:                -0.779
REMARK  Name = 
REMARK  8 active torsions:
REMARK  status: ('A' for Active; 'I' for Inactive)
REMARK    1  A    between atoms: C_1  and  C_2
REMARK    2  A    between atoms: C_4  and  C_11
REMARK    3  A    between atoms: C_6  and  C_8
REMARK    4  A    between atoms: N_13  and  C_14
REMARK    5  A    between atoms: C_18  and  C_20
REMARK    6  A    between atoms: C_20  and  C_21
REMARK    7  A    between atoms: C_20  and  C_22
REMARK    8  A    between atoms: C_22  and  C_23
REMARK                            x       y       z     vdW  Elec       q    Type
REMARK                         _______ _______ _______ _____ _____    ______ ____
ROOT
ATOM      1  C   UNL     1       1.234   8.657  20.611  0.00  0.00    +0.034 A 
ATOM      2  C   UNL     1       0.951   8.541  21.974  0.00  0.00    -0.040 A 
ATOM      3  C   UNL     1       0.235   9.548  22.625  0.00  0.00    -0.060 A 
ATOM      4  C   UNL     1      -0.211  10.671  21.922  0.00  0.00    -0.058 A 
ATOM      5  C   UNL     1       0.060  10.805  20.554  0.00  0.00    -0.042 A 
ATOM      6  C   UNL     1       0.798   9.795  19.912  0.00  0.00    -0.037 A 
ATOM      7  H   UNL     1       1.302   7.689  22.556  0.00  0.00    +0.064 HD
ATOM      8  H   UNL     1       0.018   9.446  23.685  0.00  0.00    +0.062 HD
ATOM      9  H   UNL     1      -0.775  11.430  22.456  0.00  0.00    +0.062 HD
ATOM     10  H   UNL     1       1.002   9.884  18.843  0.00  0.00    +0.064 HD
ENDROOT
BRANCH   1  13
ATOM     11  C   UNL     1       2.360   7.767  18.559  0.00  0.00    +0.267 C 
ATOM     12  O   UNL     1       2.231   8.704  17.775  0.00  0.00    -0.268 OA
ATOM     13  N   UNL     1       1.949   7.692  19.882  0.00  0.00    -0.280 N 
ATOM     14  H   UNL     1       2.301   6.891  20.405  0.00  0.00    +0.155 HD
BRANCH  11  17
ATOM     15  C   UNL     1       3.269   4.324  17.545  0.00  0.00    +0.042 A 
ATOM     16  C   UNL     1       2.486   5.352  18.011  0.00  0.00    -0.010 A 
ATOM     17  C   UNL     1       3.132   6.566  18.134  0.00  0.00    +0.129 A 
ATOM     18  N   UNL     1       4.431   6.792  17.817  0.00  0.00    -0.227 NA
ATOM     19  C   UNL     1       5.132   5.730  17.392  0.00  0.00    +0.133 A 
ATOM     20  N   UNL     1       4.569   4.506  17.212  0.00  0.00    -0.237 NA
ATOM     21  H   UNL     1       1.436   5.229  18.257  0.00  0.00    +0.066 HD
BRANCH  19  22
ATOM     22  C   UNL     1       6.611   5.947  17.129  0.00  0.00    +0.019 C 
ATOM     23  C   UNL     1       7.611   5.956  18.267  0.00  0.00    -0.043 C 
ATOM     24  C   UNL     1       7.309   7.231  17.523  0.00  0.00    -0.043 C 
ATOM     25  H   UNL     1       6.963   5.490  16.207  0.00  0.00    +0.038 HD
ATOM     26  H   UNL     1       8.567   5.473  18.102  0.00  0.00    +0.027 HD
ATOM     27  H   UNL     1       7.251   5.874  19.292  0.00  0.00    +0.027 HD
ATOM     28  H   UNL     1       8.045   7.633  16.829  0.00  0.00    +0.027 HD
ATOM     29  H   UNL     1       6.732   7.996  18.039  0.00  0.00    +0.027 HD
ENDBRANCH  19  22
BRANCH  15  30
ATOM     30  C   UNL     1       2.693   2.958  17.348  0.00  0.00    -0.022 C 
ATOM     31  H   UNL     1       2.967   2.295  18.175  0.00  0.00    +0.029 HD
ATOM     32  H   UNL     1       3.057   2.505  16.415  0.00  0.00    +0.029 HD
ATOM     33  H   UNL     1       1.601   3.037  17.299  0.00  0.00    +0.029 HD
ENDBRANCH  15  30
ENDBRANCH  11  17
ENDBRANCH   1  13
BRANCH   5  34
ATOM     34  C   UNL     1      -0.471  11.973  19.732  0.00  0.00    -0.013 C 
ATOM     35  H   UNL     1      -0.431  12.874  20.360  0.00  0.00    +0.035 HD
BRANCH  34  36
ATOM     36  C   UNL     1      -1.944  11.771  19.352  0.00  0.00    -0.058 C 
ATOM     37  H   UNL     1      -2.108  10.770  18.943  0.00  0.00    +0.024 HD
ATOM     38  H   UNL     1      -2.253  12.496  18.594  0.00  0.00    +0.024 HD
ATOM     39  H   UNL     1      -2.611  11.893  20.213  0.00  0.00    +0.024 HD
ENDBRANCH  34  36
BRANCH  34  40
ATOM     40  C   UNL     1       0.430  12.182  18.494  0.00  0.00    +0.004 C 
ATOM     41  H   UNL     1      -0.189  12.445  17.625  0.00  0.00    +0.034 HD
ATOM     42  H   UNL     1       0.936  11.241  18.237  0.00  0.00    +0.034 HD
BRANCH  40  43
ATOM     43  C   UNL     1       1.499  13.207  18.712  0.00  0.00    +0.095 C 
ATOM     44  N   UNL     1       2.724  13.135  18.216  0.00  0.00    -0.147 NA
ATOM     45  N   UNL     1       3.499  14.241  18.553  0.00  0.00    -0.150 NA
ATOM     46  C   UNL     1       2.825  15.101  19.290  0.00  0.00    +0.081 C 
ATOM     47  S   UNL     1       1.228  14.622  19.562  0.00  0.00    -0.094 S 
ATOM     48 CL   UNL     1       1.402  14.183  21.480  0.00  0.00    -0.057 Cl
ATOM     49  H   UNL     1       3.252  16.038  19.637  0.00  0.00    +0.092 HD
ATOM     50  H   UNL     1       0.549  15.681  19.054  0.00  0.00    +0.109 HD
ENDBRANCH  40  43
ENDBRANCH  34  40
ENDBRANCH   5  34
TORSDOF 8
ENDMDL
MODEL 12
REMARK VINA RESULT:    -7.011      3.695      4.490
REMARK INTER + INTRA:         -10.659
REMARK INTER:                 -10.317
REMARK INTRA:                  -0.342
REMARK UNBOUND:                -0.779
REMARK  Name = 
REMARK  8 active torsions:
REMARK  status: ('A' for Active; 'I' for Inactive)
REMARK    1  A    between atoms: C_1  and  C_2
REMARK    2  A    between atoms: C_4  and  C_11
REMARK    3  A    between atoms: C_6  and  C_8
REMARK    4  A    between atoms: N_13  and  C_14
REMARK    5  A    between atoms: C_18  and  C_20
REMARK    6  A    between atoms: C_20  and  C_21
REMARK    7  A    between atoms: C_20  and  C_22
REMARK    8  A    between atoms: C_22  and  C_23
REMARK                            x       y       z     vdW  Elec       q    Type
REMARK                         _______ _______ _______ _____ _____    ______ ____
ROOT
ATOM      1  C   UNL     1       1.118   9.659  19.589  0.00  0.00    +0.034 A 
ATOM      2  C   UNL     1       1.218  10.600  18.562  0.00  0.00    -0.040 A 
ATOM      3  C   UNL     1       0.675  11.875  18.731  0.00  0.00    -0.060 A 
ATOM      4  C   UNL     1       0.037  12.224  19.925  0.00  0.00    -0.058 A 
ATOM      5  C   UNL     1      -0.072  11.295  20.968  0.00  0.00    -0.042 A 
ATOM      6  C   UNL     1       0.461  10.007  20.781  0.00  0.00    -0.037 A 
ATOM      7  H   UNL     1       1.691  10.355  17.611  0.00  0.00    +0.064 HD
ATOM      8  H   UNL     1       0.761  12.601  17.927  0.00  0.00    +0.062 HD
ATOM      9  H   UNL     1      -0.364  13.228  20.028  0.00  0.00    +0.062 HD
ATOM     10  H   UNL     1       0.394   9.281  21.593  0.00  0.00    +0.064 HD
ENDROOT
BRANCH   1  13
ATOM     11  C   UNL     1       2.319   7.790  18.432  0.00  0.00    +0.267 C 
ATOM     12  O   UNL     1       2.658   8.323  17.379  0.00  0.00    -0.268 OA
ATOM     13  N   UNL     1       1.635   8.355  19.499  0.00  0.00    -0.280 N 
ATOM     14  H   UNL     1       1.600   7.789  20.346  0.00  0.00    +0.155 HD
BRANCH  11  17
ATOM     15  C   UNL     1       2.709   4.452  19.985  0.00  0.00    +0.042 A 
ATOM     16  C   UNL     1       2.314   5.761  19.858  0.00  0.00    -0.010 A 
ATOM     17  C   UNL     1       2.750   6.391  18.710  0.00  0.00    +0.129 A 
ATOM     18  N   UNL     1       3.495   5.809  17.738  0.00  0.00    -0.227 NA
ATOM     19  C   UNL     1       3.859   4.536  17.950  0.00  0.00    +0.133 A 
ATOM     20  N   UNL     1       3.450   3.830  19.038  0.00  0.00    -0.237 NA
ATOM     21  H   UNL     1       1.699   6.267  20.596  0.00  0.00    +0.066 HD
BRANCH  19  22
ATOM     22  C   UNL     1       4.775   3.904  16.918  0.00  0.00    +0.019 C 
ATOM     23  C   UNL     1       6.221   4.338  16.793  0.00  0.00    -0.043 C 
ATOM     24  C   UNL     1       5.241   4.665  15.696  0.00  0.00    -0.043 C 
ATOM     25  H   UNL     1       4.596   2.842  16.766  0.00  0.00    +0.038 HD
ATOM     26  H   UNL     1       6.965   3.570  16.612  0.00  0.00    +0.027 HD
ATOM     27  H   UNL     1       6.585   5.162  17.404  0.00  0.00    +0.027 HD
ATOM     28  H   UNL     1       5.288   4.119  14.755  0.00  0.00    +0.027 HD
ATOM     29  H   UNL     1       4.931   5.702  15.583  0.00  0.00    +0.027 HD
ENDBRANCH  19  22
BRANCH  15  30
ATOM     30  C   UNL     1       2.294   3.645  21.174  0.00  0.00    -0.022 C 
ATOM     31  H   UNL     1       1.560   2.883  20.893  0.00  0.00    +0.029 HD
ATOM     32  H   UNL     1       1.840   4.283  21.946  0.00  0.00    +0.029 HD
ATOM     33  H   UNL     1       3.178   3.154  21.597  0.00  0.00    +0.029 HD
ENDBRANCH  15  30
ENDBRANCH  11  17
ENDBRANCH   1  13
BRANCH   5  34
ATOM     34  C   UNL     1      -0.690  11.654  22.314  0.00  0.00    -0.013 C 
ATOM     35  H   UNL     1       0.046  12.245  22.877  0.00  0.00    +0.035 HD
BRANCH  34  36
ATOM     36  C   UNL     1      -0.980  10.403  23.153  0.00  0.00    -0.058 C 
ATOM     37  H   UNL     1      -2.021  10.390  23.488  0.00  0.00    +0.024 HD
ATOM     38  H   UNL     1      -0.342  10.373  24.040  0.00  0.00    +0.024 HD
ATOM     39  H   UNL     1      -0.801   9.480  22.589  0.00  0.00    +0.024 HD
ENDBRANCH  34  36
BRANCH  34  40
ATOM     40  C   UNL     1      -1.956  12.512  22.086  0.00  0.00    +0.004 C 
ATOM     41  H   UNL     1      -2.816  11.859  21.890  0.00  0.00    +0.034 HD
ATOM     42  H   UNL     1      -1.829  13.133  21.188  0.00  0.00    +0.034 HD
BRANCH  40  43
ATOM     43  C   UNL     1      -2.246  13.443  23.222  0.00  0.00    +0.095 C 
ATOM     44  N   UNL     1      -1.330  14.122  23.893  0.00  0.00    -0.147 NA
ATOM     45  N   UNL     1      -1.885  14.934  24.877  0.00  0.00    -0.150 NA
ATOM     46  C   UNL     1      -3.199  14.833  24.907  0.00  0.00    +0.081 C 
ATOM     47  S   UNL     1      -3.805  13.790  23.723  0.00  0.00    -0.094 S 
ATOM     48 CL   UNL     1      -4.364  12.322  24.919  0.00  0.00    -0.057 Cl
ATOM     49  H   UNL     1      -3.817  15.404  25.594  0.00  0.00    +0.092 HD
ATOM     50  H   UNL     1      -4.640  14.620  23.049  0.00  0.00    +0.109 HD
ENDBRANCH  40  43
ENDBRANCH  34  40
ENDBRANCH   5  34
TORSDOF 8
ENDMDL
MODEL 13
REMARK VINA RESULT:    -6.971      2.863      3.476
REMARK INTER + INTRA:         -10.603
REMARK INTER:                 -10.239
REMARK INTRA:                  -0.363
REMARK UNBOUND:                -0.779
REMARK  Name = 
REMARK  8 active torsions:
REMARK  status: ('A' for Active; 'I' for Inactive)
REMARK    1  A    between atoms: C_1  and  C_2
REMARK    2  A    between atoms: C_4  and  C_11
REMARK    3  A    between atoms: C_6  and  C_8
REMARK    4  A    between atoms: N_13  and  C_14
REMARK    5  A    between atoms: C_18  and  C_20
REMARK    6  A    between atoms: C_20  and  C_21
REMARK    7  A    between atoms: C_20  and  C_22
REMARK    8  A    between atoms: C_22  and  C_23
REMARK                            x       y       z     vdW  Elec       q    Type
REMARK                         _______ _______ _______ _____ _____    ______ ____
ROOT
ATOM      1  C   UNL     1       1.232   8.591  20.498  0.00  0.00    +0.034 A 
ATOM      2  C   UNL     1       1.147   8.678  21.890  0.00  0.00    -0.040 A 
ATOM      3  C   UNL     1       0.404   9.703  22.478  0.00  0.00    -0.060 A 
ATOM      4  C   UNL     1      -0.265  10.641  21.686  0.00  0.00    -0.058 A 
ATOM      5  C   UNL     1      -0.195  10.570  20.290  0.00  0.00    -0.042 A 
ATOM      6  C   UNL     1       0.572   9.546  19.706  0.00  0.00    -0.037 A 
ATOM      7  H   UNL     1       1.673   7.976  22.536  0.00  0.00    +0.064 HD
ATOM      8  H   UNL     1       0.342   9.760  23.562  0.00  0.00    +0.062 HD
ATOM      9  H   UNL     1      -0.844  11.419  22.177  0.00  0.00    +0.062 HD
ATOM     10  H   UNL     1       0.622   9.472  18.618  0.00  0.00    +0.064 HD
ENDROOT
BRANCH   1  13
ATOM     11  C   UNL     1       2.423   7.622  18.519  0.00  0.00    +0.267 C 
ATOM     12  O   UNL     1       2.340   8.537  17.703  0.00  0.00    -0.268 OA
ATOM     13  N   UNL     1       1.960   7.593  19.827  0.00  0.00    -0.280 N 
ATOM     14  H   UNL     1       2.277   6.803  20.386  0.00  0.00    +0.155 HD
BRANCH  11  17
ATOM     15  C   UNL     1       3.317   4.132  17.666  0.00  0.00    +0.042 A 
ATOM     16  C   UNL     1       2.534   5.185  18.072  0.00  0.00    -0.010 A 
ATOM     17  C   UNL     1       3.191   6.397  18.160  0.00  0.00    +0.129 A 
ATOM     18  N   UNL     1       4.498   6.597  17.863  0.00  0.00    -0.227 NA
ATOM     19  C   UNL     1       5.198   5.512  17.497  0.00  0.00    +0.133 A 
ATOM     20  N   UNL     1       4.625   4.287  17.355  0.00  0.00    -0.237 NA
ATOM     21  H   UNL     1       1.478   5.083  18.300  0.00  0.00    +0.066 HD
BRANCH  19  22
ATOM     22  C   UNL     1       6.684   5.704  17.258  0.00  0.00    +0.019 C 
ATOM     23  C   UNL     1       7.646   5.852  18.419  0.00  0.00    -0.043 C 
ATOM     24  C   UNL     1       7.368   7.028  17.520  0.00  0.00    -0.043 C 
ATOM     25  H   UNL     1       7.066   5.142  16.409  0.00  0.00    +0.038 HD
ATOM     26  H   UNL     1       8.608   5.357  18.344  0.00  0.00    +0.027 HD
ATOM     27  H   UNL     1       7.254   5.890  19.434  0.00  0.00    +0.027 HD
ATOM     28  H   UNL     1       8.126   7.349  16.808  0.00  0.00    +0.027 HD
ATOM     29  H   UNL     1       6.773   7.846  17.922  0.00  0.00    +0.027 HD
ENDBRANCH  19  22
BRANCH  15  30
ATOM     30  C   UNL     1       2.730   2.765  17.513  0.00  0.00    -0.022 C 
ATOM     31  H   UNL     1       3.471   1.993  17.744  0.00  0.00    +0.029 HD
ATOM     32  H   UNL     1       2.378   2.598  16.484  0.00  0.00    +0.029 HD
ATOM     33  H   UNL     1       1.880   2.664  18.197  0.00  0.00    +0.029 HD
ENDBRANCH  15  30
ENDBRANCH  11  17
ENDBRANCH   1  13
BRANCH   5  34
ATOM     34  C   UNL     1      -0.968  11.523  19.387  0.00  0.00    -0.013 C 
ATOM     35  H   UNL     1      -1.581  12.172  20.028  0.00  0.00    +0.035 HD
BRANCH  34  36
ATOM     36  C   UNL     1      -1.941  10.769  18.472  0.00  0.00    -0.058 C 
ATOM     37  H   UNL     1      -2.969  11.108  18.629  0.00  0.00    +0.024 HD
ATOM     38  H   UNL     1      -1.909   9.694  18.672  0.00  0.00    +0.024 HD
ATOM     39  H   UNL     1      -1.702  10.912  17.412  0.00  0.00    +0.024 HD
ENDBRANCH  34  36
BRANCH  34  40
ATOM     40  C   UNL     1       0.027  12.398  18.590  0.00  0.00    +0.004 C 
ATOM     41  H   UNL     1      -0.488  12.861  17.738  0.00  0.00    +0.034 HD
ATOM     42  H   UNL     1       0.820  11.767  18.164  0.00  0.00    +0.034 HD
BRANCH  40  43
ATOM     43  C   UNL     1       0.699  13.437  19.431  0.00  0.00    +0.095 C 
ATOM     44  N   UNL     1       0.074  14.417  20.062  0.00  0.00    -0.147 NA
ATOM     45  N   UNL     1       0.943  15.219  20.795  0.00  0.00    -0.150 NA
ATOM     46  C   UNL     1       2.191  14.809  20.685  0.00  0.00    +0.081 C 
ATOM     47  S   UNL     1       2.346  13.424  19.731  0.00  0.00    -0.094 S 
ATOM     48 CL   UNL     1       3.221  14.266  18.174  0.00  0.00    -0.057 Cl
ATOM     49  H   UNL     1       3.016  15.294  21.199  0.00  0.00    +0.092 HD
ATOM     50  H   UNL     1       2.940  12.572  20.605  0.00  0.00    +0.109 HD
ENDBRANCH  40  43
ENDBRANCH  34  40
ENDBRANCH   5  34
TORSDOF 8
ENDMDL
MODEL 14
REMARK VINA RESULT:    -6.970      3.170      4.326
REMARK INTER + INTRA:         -10.602
REMARK INTER:                 -10.114
REMARK INTRA:                  -0.488
REMARK UNBOUND:                -0.779
REMARK  Name = 
REMARK  8 active torsions:
REMARK  status: ('A' for Active; 'I' for Inactive)
REMARK    1  A    between atoms: C_1  and  C_2
REMARK    2  A    between atoms: C_4  and  C_11
REMARK    3  A    between atoms: C_6  and  C_8
REMARK    4  A    between atoms: N_13  and  C_14
REMARK    5  A    between atoms: C_18  and  C_20
REMARK    6  A    between atoms: C_20  and  C_21
REMARK    7  A    between atoms: C_20  and  C_22
REMARK    8  A    between atoms: C_22  and  C_23
REMARK                            x       y       z     vdW  Elec       q    Type
REMARK                         _______ _______ _______ _____ _____    ______ ____
ROOT
ATOM      1  C   UNL     1       0.714   8.992  21.086  0.00  0.00    +0.034 A 
ATOM      2  C   UNL     1       0.384   8.953  22.443  0.00  0.00    -0.040 A 
ATOM      3  C   UNL     1      -0.309  10.019  23.021  0.00  0.00    -0.060 A 
ATOM      4  C   UNL     1      -0.685  11.124  22.251  0.00  0.00    -0.058 A 
ATOM      5  C   UNL     1      -0.366  11.180  20.889  0.00  0.00    -0.042 A 
ATOM      6  C   UNL     1       0.349  10.112  20.320  0.00  0.00    -0.037 A 
ATOM      7  H   UNL     1       0.680   8.117  23.076  0.00  0.00    +0.064 HD
ATOM      8  H   UNL     1      -0.563   9.978  24.077  0.00  0.00    +0.062 HD
ATOM      9  H   UNL     1      -1.234  11.931  22.730  0.00  0.00    +0.062 HD
ATOM     10  H   UNL     1       0.590  10.140  19.256  0.00  0.00    +0.064 HD
ENDROOT
BRANCH   1  13
ATOM     11  C   UNL     1       1.971   8.002  19.160  0.00  0.00    +0.267 C 
ATOM     12  O   UNL     1       2.020   8.949  18.379  0.00  0.00    -0.268 OA
ATOM     13  N   UNL     1       1.411   7.964  20.428  0.00  0.00    -0.280 N 
ATOM     14  H   UNL     1       1.624   7.132  20.976  0.00  0.00    +0.155 HD
BRANCH  11  17
ATOM     15  C   UNL     1       4.247   5.533  17.599  0.00  0.00    +0.042 A 
ATOM     16  C   UNL     1       3.612   6.735  17.799  0.00  0.00    -0.010 A 
ATOM     17  C   UNL     1       2.668   6.734  18.807  0.00  0.00    +0.129 A 
ATOM     18  N   UNL     1       2.362   5.666  19.585  0.00  0.00    -0.227 NA
ATOM     19  C   UNL     1       3.010   4.524  19.309  0.00  0.00    +0.133 A 
ATOM     20  N   UNL     1       3.975   4.444  18.355  0.00  0.00    -0.237 NA
ATOM     21  H   UNL     1       3.836   7.625  17.219  0.00  0.00    +0.066 HD
BRANCH  19  22
ATOM     22  C   UNL     1       2.606   3.298  20.106  0.00  0.00    +0.019 C 
ATOM     23  C   UNL     1       1.588   2.317  19.561  0.00  0.00    -0.043 C 
ATOM     24  C   UNL     1       1.240   3.180  20.747  0.00  0.00    -0.043 C 
ATOM     25  H   UNL     1       3.423   2.852  20.667  0.00  0.00    +0.038 HD
ATOM     26  H   UNL     1       1.768   1.260  19.724  0.00  0.00    +0.027 HD
ATOM     27  H   UNL     1       1.091   2.534  18.618  0.00  0.00    +0.027 HD
ATOM     28  H   UNL     1       1.189   2.734  21.738  0.00  0.00    +0.027 HD
ATOM     29  H   UNL     1       0.526   3.988  20.595  0.00  0.00    +0.027 HD
ENDBRANCH  19  22
BRANCH  15  30
ATOM     30  C   UNL     1       5.303   5.398  16.550  0.00  0.00    -0.022 C 
ATOM     31  H   UNL     1       6.253   5.822  16.893  0.00  0.00    +0.029 HD
ATOM     32  H   UNL     1       5.014   5.921  15.626  0.00  0.00    +0.029 HD
ATOM     33  H   UNL     1       5.446   4.335  16.323  0.00  0.00    +0.029 HD
ENDBRANCH  15  30
ENDBRANCH  11  17
ENDBRANCH   1  13
BRANCH   5  34
ATOM     34  C   UNL     1      -0.821  12.327  19.995  0.00  0.00    -0.013 C 
ATOM     35  H   UNL     1      -0.625  13.269  20.528  0.00  0.00    +0.035 HD
BRANCH  34  36
ATOM     36  C   UNL     1      -2.333  12.277  19.739  0.00  0.00    -0.058 C 
ATOM     37  H   UNL     1      -2.741  11.296  19.999  0.00  0.00    +0.024 HD
ATOM     38  H   UNL     1      -2.555  12.463  18.684  0.00  0.00    +0.024 HD
ATOM     39  H   UNL     1      -2.874  13.028  20.325  0.00  0.00    +0.024 HD
ENDBRANCH  34  36
BRANCH  34  40
ATOM     40  C   UNL     1      -0.004  12.312  18.683  0.00  0.00    +0.004 C 
ATOM     41  H   UNL     1      -0.653  12.582  17.839  0.00  0.00    +0.034 HD
ATOM     42  H   UNL     1       0.358  11.294  18.480  0.00  0.00    +0.034 HD
BRANCH  40  43
ATOM     43  C   UNL     1       1.200  13.201  18.730  0.00  0.00    +0.095 C 
ATOM     44  N   UNL     1       2.345  12.953  18.116  0.00  0.00    -0.147 NA
ATOM     45  N   UNL     1       3.281  13.964  18.307  0.00  0.00    -0.150 NA
ATOM     46  C   UNL     1       2.802  14.935  19.058  0.00  0.00    +0.081 C 
ATOM     47  S   UNL     1       1.197  14.676  19.521  0.00  0.00    -0.094 S 
ATOM     48 CL   UNL     1       1.525  14.304  21.433  0.00  0.00    -0.057 Cl
ATOM     49  H   UNL     1       3.375  15.824  19.306  0.00  0.00    +0.092 HD
ATOM     50  H   UNL     1       0.602  15.790  19.025  0.00  0.00    +0.109 HD
ENDBRANCH  40  43
ENDBRANCH  34  40
ENDBRANCH   5  34
TORSDOF 8
ENDMDL
MODEL 15
REMARK VINA RESULT:    -6.947      3.441      8.833
REMARK INTER + INTRA:         -10.569
REMARK INTER:                 -10.235
REMARK INTRA:                  -0.334
REMARK UNBOUND:                -0.779
REMARK  Name = 
REMARK  8 active torsions:
REMARK  status: ('A' for Active; 'I' for Inactive)
REMARK    1  A    between atoms: C_1  and  C_2
REMARK    2  A    between atoms: C_4  and  C_11
REMARK    3  A    between atoms: C_6  and  C_8
REMARK    4  A    between atoms: N_13  and  C_14
REMARK    5  A    between atoms: C_18  and  C_20
REMARK    6  A    between atoms: C_20  and  C_21
REMARK    7  A    between atoms: C_20  and  C_22
REMARK    8  A    between atoms: C_22  and  C_23
REMARK                            x       y       z     vdW  Elec       q    Type
REMARK                         _______ _______ _______ _____ _____    ______ ____
ROOT
ATOM      1  C   UNL     1       3.393   6.002  19.447  0.00  0.00    +0.034 A 
ATOM      2  C   UNL     1       3.068   4.697  19.828  0.00  0.00    -0.040 A 
ATOM      3  C   UNL     1       4.017   3.680  19.703  0.00  0.00    -0.060 A 
ATOM      4  C   UNL     1       5.295   3.956  19.209  0.00  0.00    -0.058 A 
ATOM      5  C   UNL     1       5.641   5.257  18.824  0.00  0.00    -0.042 A 
ATOM      6  C   UNL     1       4.673   6.271  18.934  0.00  0.00    -0.037 A 
ATOM      7  H   UNL     1       2.075   4.444  20.198  0.00  0.00    +0.064 HD
ATOM      8  H   UNL     1       3.755   2.669  20.006  0.00  0.00    +0.062 HD
ATOM      9  H   UNL     1       6.013   3.143  19.136  0.00  0.00    +0.062 HD
ATOM     10  H   UNL     1       4.937   7.292  18.650  0.00  0.00    +0.064 HD
ENDROOT
BRANCH   1  13
ATOM     11  C   UNL     1       2.247   8.052  18.578  0.00  0.00    +0.267 C 
ATOM     12  O   UNL     1       2.710   8.137  17.444  0.00  0.00    -0.268 OA
ATOM     13  N   UNL     1       2.497   7.082  19.537  0.00  0.00    -0.280 N 
ATOM     14  H   UNL     1       1.885   7.101  20.351  0.00  0.00    +0.155 HD
BRANCH  11  17
ATOM     15  C   UNL     1      -0.643  10.367  18.586  0.00  0.00    +0.042 A 
ATOM     16  C   UNL     1       0.325   9.537  18.076  0.00  0.00    -0.010 A 
ATOM     17  C   UNL     1       1.202   9.023  19.010  0.00  0.00    +0.129 A 
ATOM     18  N   UNL     1       1.150   9.265  20.343  0.00  0.00    -0.227 NA
ATOM     19  C   UNL     1       0.189  10.105  20.757  0.00  0.00    +0.133 A 
ATOM     20  N   UNL     1      -0.734  10.633  19.911  0.00  0.00    -0.237 NA
ATOM     21  H   UNL     1       0.397   9.292  17.020  0.00  0.00    +0.066 HD
BRANCH  19  22
ATOM     22  C   UNL     1       0.182  10.464  22.231  0.00  0.00    +0.019 C 
ATOM     23  C   UNL     1      -0.355   9.494  23.265  0.00  0.00    -0.043 C 
ATOM     24  C   UNL     1      -1.104  10.769  22.970  0.00  0.00    -0.043 C 
ATOM     25  H   UNL     1       1.048  11.042  22.545  0.00  0.00    +0.038 HD
ATOM     26  H   UNL     1       0.179   9.412  24.205  0.00  0.00    +0.027 HD
ATOM     27  H   UNL     1      -0.804   8.559  22.935  0.00  0.00    +0.027 HD
ATOM     28  H   UNL     1      -1.084  11.581  23.693  0.00  0.00    +0.027 HD
ATOM     29  H   UNL     1      -2.043  10.692  22.425  0.00  0.00    +0.027 HD
ENDBRANCH  19  22
BRANCH  15  30
ATOM     30  C   UNL     1      -1.668  10.981  17.688  0.00  0.00    -0.022 C 
ATOM     31  H   UNL     1      -1.480  12.051  17.554  0.00  0.00    +0.029 HD
ATOM     32  H   UNL     1      -2.680  10.864  18.102  0.00  0.00    +0.029 HD
ATOM     33  H   UNL     1      -1.628  10.485  16.711  0.00  0.00    +0.029 HD
ENDBRANCH  15  30
ENDBRANCH  11  17
ENDBRANCH   1  13
BRANCH   5  34
ATOM     34  C   UNL     1       7.044   5.619  18.352  0.00  0.00    -0.013 C 
ATOM     35  H   UNL     1       7.675   5.752  19.241  0.00  0.00    +0.035 HD
BRANCH  34  36
ATOM     36  C   UNL     1       7.059   6.956  17.601  0.00  0.00    -0.058 C 
ATOM     37  H   UNL     1       7.963   7.526  17.835  0.00  0.00    +0.024 HD
ATOM     38  H   UNL     1       6.196   7.569  17.878  0.00  0.00    +0.024 HD
ATOM     39  H   UNL     1       7.026   6.818  16.514  0.00  0.00    +0.024 HD
ENDBRANCH  34  36
BRANCH  34  40
ATOM     40  C   UNL     1       7.613   4.462  17.499  0.00  0.00    +0.004 C 
ATOM     41  H   UNL     1       7.398   3.502  17.986  0.00  0.00    +0.034 HD
ATOM     42  H   UNL     1       8.708   4.542  17.445  0.00  0.00    +0.034 HD
BRANCH  40  43
ATOM     43  C   UNL     1       7.107   4.467  16.090  0.00  0.00    +0.095 C 
ATOM     44  N   UNL     1       7.626   5.181  15.105  0.00  0.00    -0.147 NA
ATOM     45  N   UNL     1       6.975   4.968  13.894  0.00  0.00    -0.150 NA
ATOM     46  C   UNL     1       5.990   4.101  14.016  0.00  0.00    +0.081 C 
ATOM     47  S   UNL     1       5.848   3.487  15.585  0.00  0.00    -0.094 S 
ATOM     48 CL   UNL     1       4.170   4.404  16.081  0.00  0.00    -0.057 Cl
ATOM     49  H   UNL     1       5.374   3.788  13.178  0.00  0.00    +0.092 HD
ATOM     50  H   UNL     1       5.982   2.157  15.355  0.00  0.00    +0.109 HD
ENDBRANCH  40  43
ENDBRANCH  34  40
ENDBRANCH   5  34
TORSDOF 8
ENDMDL
MODEL 16
REMARK VINA RESULT:    -6.888      3.522      8.785
REMARK INTER + INTRA:         -10.487
REMARK INTER:                  -9.891
REMARK INTRA:                  -0.595
REMARK UNBOUND:                -0.779
REMARK  Name = 
REMARK  8 active torsions:
REMARK  status: ('A' for Active; 'I' for Inactive)
REMARK    1  A    between atoms: C_1  and  C_2
REMARK    2  A    between atoms: C_4  and  C_11
REMARK    3  A    between atoms: C_6  and  C_8
REMARK    4  A    between atoms: N_13  and  C_14
REMARK    5  A    between atoms: C_18  and  C_20
REMARK    6  A    between atoms: C_20  and  C_21
REMARK    7  A    between atoms: C_20  and  C_22
REMARK    8  A    between atoms: C_22  and  C_23
REMARK                            x       y       z     vdW  Elec       q    Type
REMARK                         _______ _______ _______ _____ _____    ______ ____
ROOT
ATOM      1  C   UNL     1       1.978   6.495  19.988  0.00  0.00    +0.034 A 
ATOM      2  C   UNL     1       1.375   5.654  20.927  0.00  0.00    -0.040 A 
ATOM      3  C   UNL     1       1.664   4.288  20.924  0.00  0.00    -0.060 A 
ATOM      4  C   UNL     1       2.560   3.752  19.994  0.00  0.00    -0.058 A 
ATOM      5  C   UNL     1       3.176   4.578  19.046  0.00  0.00    -0.042 A 
ATOM      6  C   UNL     1       2.864   5.949  19.044  0.00  0.00    -0.037 A 
ATOM      7  H   UNL     1       0.657   6.036  21.652  0.00  0.00    +0.064 HD
ATOM      8  H   UNL     1       1.192   3.643  21.661  0.00  0.00    +0.062 HD
ATOM      9  H   UNL     1       2.771   2.687  20.028  0.00  0.00    +0.062 HD
ATOM     10  H   UNL     1       3.351   6.604  18.318  0.00  0.00    +0.064 HD
ENDROOT
BRANCH   1  13
ATOM     11  C   UNL     1       1.672   8.668  18.782  0.00  0.00    +0.267 C 
ATOM     12  O   UNL     1       1.750   8.317  17.607  0.00  0.00    -0.268 OA
ATOM     13  N   UNL     1       1.740   7.878  19.920  0.00  0.00    -0.280 N 
ATOM     14  H   UNL     1       1.485   8.342  20.791  0.00  0.00    +0.155 HD
BRANCH  11  17
ATOM     15  C   UNL     1       1.650  12.370  18.748  0.00  0.00    +0.042 A 
ATOM     16  C   UNL     1       2.056  11.094  18.442  0.00  0.00    -0.010 A 
ATOM     17  C   UNL     1       1.365  10.092  19.094  0.00  0.00    +0.129 A 
ATOM     18  N   UNL     1       0.344  10.289  19.964  0.00  0.00    -0.227 NA
ATOM     19  C   UNL     1       0.026  11.566  20.227  0.00  0.00    +0.133 A 
ATOM     20  N   UNL     1       0.632  12.613  19.608  0.00  0.00    -0.237 NA
ATOM     21  H   UNL     1       2.852  10.881  17.736  0.00  0.00    +0.066 HD
BRANCH  19  22
ATOM     22  C   UNL     1      -1.048  11.802  21.273  0.00  0.00    +0.019 C 
ATOM     23  C   UNL     1      -0.756  12.616  22.517  0.00  0.00    -0.043 C 
ATOM     24  C   UNL     1      -0.998  11.133  22.630  0.00  0.00    -0.043 C 
ATOM     25  H   UNL     1      -2.043  11.936  20.856  0.00  0.00    +0.038 HD
ATOM     26  H   UNL     1      -1.525  13.295  22.868  0.00  0.00    +0.027 HD
ATOM     27  H   UNL     1       0.257  12.975  22.693  0.00  0.00    +0.027 HD
ATOM     28  H   UNL     1      -1.938  10.774  23.045  0.00  0.00    +0.027 HD
ATOM     29  H   UNL     1      -0.147  10.495  22.860  0.00  0.00    +0.027 HD
ENDBRANCH  19  22
BRANCH  15  30
ATOM     30  C   UNL     1       2.302  13.550  18.102  0.00  0.00    -0.022 C 
ATOM     31  H   UNL     1       1.553  14.223  17.669  0.00  0.00    +0.029 HD
ATOM     32  H   UNL     1       2.980  13.236  17.295  0.00  0.00    +0.029 HD
ATOM     33  H   UNL     1       2.880  14.095  18.856  0.00  0.00    +0.029 HD
ENDBRANCH  15  30
ENDBRANCH  11  17
ENDBRANCH   1  13
BRANCH   5  34
ATOM     34  C   UNL     1       4.216   4.053  18.064  0.00  0.00    -0.013 C 
ATOM     35  H   UNL     1       4.233   4.727  17.197  0.00  0.00    +0.035 HD
BRANCH  34  36
ATOM     36  C   UNL     1       3.837   2.665  17.531  0.00  0.00    -0.058 C 
ATOM     37  H   UNL     1       3.577   1.989  18.351  0.00  0.00    +0.024 HD
ATOM     38  H   UNL     1       4.669   2.218  16.981  0.00  0.00    +0.024 HD
ATOM     39  H   UNL     1       2.979   2.707  16.850  0.00  0.00    +0.024 HD
ENDBRANCH  34  36
BRANCH  34  40
ATOM     40  C   UNL     1       5.609   4.061  18.735  0.00  0.00    +0.004 C 
ATOM     41  H   UNL     1       6.129   3.118  18.522  0.00  0.00    +0.034 HD
ATOM     42  H   UNL     1       5.497   4.111  19.828  0.00  0.00    +0.034 HD
BRANCH  40  43
ATOM     43  C   UNL     1       6.449   5.232  18.330  0.00  0.00    +0.095 C 
ATOM     44  N   UNL     1       7.246   5.905  19.143  0.00  0.00    -0.147 NA
ATOM     45  N   UNL     1       7.931   6.926  18.491  0.00  0.00    -0.150 NA
ATOM     46  C   UNL     1       7.621   6.980  17.211  0.00  0.00    +0.081 C 
ATOM     47  S   UNL     1       6.528   5.777  16.749  0.00  0.00    -0.094 S 
ATOM     48 CL   UNL     1       4.956   6.937  16.462  0.00  0.00    -0.057 Cl
ATOM     49  H   UNL     1       8.066   7.698  16.528  0.00  0.00    +0.092 HD
ATOM     50  H   UNL     1       7.232   5.147  15.776  0.00  0.00    +0.109 HD
ENDBRANCH  40  43
ENDBRANCH  34  40
ENDBRANCH   5  34
TORSDOF 8
ENDMDL
MODEL 17
REMARK VINA RESULT:    -6.870      3.424      8.575
REMARK INTER + INTRA:         -10.461
REMARK INTER:                  -9.920
REMARK INTRA:                  -0.541
REMARK UNBOUND:                -0.779
REMARK  Name = 
REMARK  8 active torsions:
REMARK  status: ('A' for Active; 'I' for Inactive)
REMARK    1  A    between atoms: C_1  and  C_2
REMARK    2  A    between atoms: C_4  and  C_11
REMARK    3  A    between atoms: C_6  and  C_8
REMARK    4  A    between atoms: N_13  and  C_14
REMARK    5  A    between atoms: C_18  and  C_20
REMARK    6  A    between atoms: C_20  and  C_21
REMARK    7  A    between atoms: C_20  and  C_22
REMARK    8  A    between atoms: C_22  and  C_23
REMARK                            x       y       z     vdW  Elec       q    Type
REMARK                         _______ _______ _______ _____ _____    ______ ____
ROOT
ATOM      1  C   UNL     1       1.940   6.738  19.747  0.00  0.00    +0.034 A 
ATOM      2  C   UNL     1       1.758   6.088  20.970  0.00  0.00    -0.040 A 
ATOM      3  C   UNL     1       2.138   4.752  21.111  0.00  0.00    -0.060 A 
ATOM      4  C   UNL     1       2.708   4.058  20.040  0.00  0.00    -0.058 A 
ATOM      5  C   UNL     1       2.902   4.692  18.807  0.00  0.00    -0.042 A 
ATOM      6  C   UNL     1       2.498   6.032  18.668  0.00  0.00    -0.037 A 
ATOM      7  H   UNL     1       1.297   6.594  21.819  0.00  0.00    +0.064 HD
ATOM      8  H   UNL     1       1.994   4.257  22.068  0.00  0.00    +0.062 HD
ATOM      9  H   UNL     1       3.003   3.023  20.188  0.00  0.00    +0.062 HD
ATOM     10  H   UNL     1       2.657   6.540  17.715  0.00  0.00    +0.064 HD
ENDROOT
BRANCH   1  13
ATOM     11  C   UNL     1       1.879   8.854  18.409  0.00  0.00    +0.267 C 
ATOM     12  O   UNL     1       2.461   8.518  17.380  0.00  0.00    -0.268 OA
ATOM     13  N   UNL     1       1.583   8.079  19.520  0.00  0.00    -0.280 N 
ATOM     14  H   UNL     1       0.948   8.504  20.194  0.00  0.00    +0.155 HD
BRANCH  11  17
ATOM     15  C   UNL     1      -0.452  11.683  18.934  0.00  0.00    +0.042 A 
ATOM     16  C   UNL     1      -0.036  10.380  18.801  0.00  0.00    -0.010 A 
ATOM     17  C   UNL     1       1.303  10.225  18.501  0.00  0.00    +0.129 A 
ATOM     18  N   UNL     1       2.191  11.239  18.356  0.00  0.00    -0.227 NA
ATOM     19  C   UNL     1       1.699  12.482  18.477  0.00  0.00    +0.133 A 
ATOM     20  N   UNL     1       0.401  12.726  18.801  0.00  0.00    -0.237 NA
ATOM     21  H   UNL     1      -0.701   9.532  18.930  0.00  0.00    +0.066 HD
BRANCH  19  22
ATOM     22  C   UNL     1       2.660  13.627  18.219  0.00  0.00    +0.019 C 
ATOM     23  C   UNL     1       3.332  14.353  19.366  0.00  0.00    -0.043 C 
ATOM     24  C   UNL     1       2.293  15.061  18.535  0.00  0.00    -0.043 C 
ATOM     25  H   UNL     1       3.277  13.489  17.334  0.00  0.00    +0.038 HD
ATOM     26  H   UNL     1       4.373  14.633  19.245  0.00  0.00    +0.027 HD
ATOM     27  H   UNL     1       3.067  14.092  20.389  0.00  0.00    +0.027 HD
ATOM     28  H   UNL     1       2.605  15.825  17.826  0.00  0.00    +0.027 HD
ATOM     29  H   UNL     1       1.325  15.258  18.992  0.00  0.00    +0.027 HD
ENDBRANCH  19  22
BRANCH  15  30
ATOM     30  C   UNL     1      -1.874  11.995  19.273  0.00  0.00    -0.022 C 
ATOM     31  H   UNL     1      -2.183  11.470  20.184  0.00  0.00    +0.029 HD
ATOM     32  H   UNL     1      -2.551  11.691  18.462  0.00  0.00    +0.029 HD
ATOM     33  H   UNL     1      -1.974  13.075  19.430  0.00  0.00    +0.029 HD
ENDBRANCH  15  30
ENDBRANCH  11  17
ENDBRANCH   1  13
BRANCH   5  34
ATOM     34  C   UNL     1       3.589   4.000  17.636  0.00  0.00    -0.013 C 
ATOM     35  H   UNL     1       3.619   4.707  16.796  0.00  0.00    +0.035 HD
BRANCH  34  36
ATOM     36  C   UNL     1       2.790   2.782  17.154  0.00  0.00    -0.058 C 
ATOM     37  H   UNL     1       2.693   2.784  16.064  0.00  0.00    +0.024 HD
ATOM     38  H   UNL     1       1.783   2.783  17.579  0.00  0.00    +0.024 HD
ATOM     39  H   UNL     1       3.266   1.838  17.443  0.00  0.00    +0.024 HD
ENDBRANCH  34  36
BRANCH  34  40
ATOM     40  C   UNL     1       5.036   3.630  18.035  0.00  0.00    +0.004 C 
ATOM     41  H   UNL     1       5.387   2.791  17.419  0.00  0.00    +0.034 HD
ATOM     42  H   UNL     1       5.059   3.279  19.076  0.00  0.00    +0.034 HD
BRANCH  40  43
ATOM     43  C   UNL     1       5.983   4.786  17.944  0.00  0.00    +0.095 C 
ATOM     44  N   UNL     1       6.580   5.354  18.979  0.00  0.00    -0.147 NA
ATOM     45  N   UNL     1       7.432   6.387  18.601  0.00  0.00    -0.150 NA
ATOM     46  C   UNL     1       7.442   6.555  17.294  0.00  0.00    +0.081 C 
ATOM     47  S   UNL     1       6.457   5.447  16.482  0.00  0.00    -0.094 S 
ATOM     48 CL   UNL     1       5.036   6.703  15.931  0.00  0.00    -0.057 Cl
ATOM     49  H   UNL     1       8.059   7.301  16.802  0.00  0.00    +0.092 HD
ATOM     50  H   UNL     1       7.357   4.861  15.653  0.00  0.00    +0.109 HD
ENDBRANCH  40  43
ENDBRANCH  34  40
ENDBRANCH   5  34
TORSDOF 8
ENDMDL
MODEL 18
REMARK VINA RESULT:    -6.856      3.058      3.771
REMARK INTER + INTRA:         -10.441
REMARK INTER:                  -9.563
REMARK INTRA:                  -0.878
REMARK UNBOUND:                -0.779
REMARK  Name = 
REMARK  8 active torsions:
REMARK  status: ('A' for Active; 'I' for Inactive)
REMARK    1  A    between atoms: C_1  and  C_2
REMARK    2  A    between atoms: C_4  and  C_11
REMARK    3  A    between atoms: C_6  and  C_8
REMARK    4  A    between atoms: N_13  and  C_14
REMARK    5  A    between atoms: C_18  and  C_20
REMARK    6  A    between atoms: C_20  and  C_21
REMARK    7  A    between atoms: C_20  and  C_22
REMARK    8  A    between atoms: C_22  and  C_23
REMARK                            x       y       z     vdW  Elec       q    Type
REMARK                         _______ _______ _______ _____ _____    ______ ____
ROOT
ATOM      1  C   UNL     1       0.643   9.662  18.062  0.00  0.00    +0.034 A 
ATOM      2  C   UNL     1      -0.718   9.653  17.745  0.00  0.00    -0.040 A 
ATOM      3  C   UNL     1      -1.491  10.795  17.966  0.00  0.00    -0.060 A 
ATOM      4  C   UNL     1      -0.914  11.953  18.494  0.00  0.00    -0.058 A 
ATOM      5  C   UNL     1       0.448  11.984  18.816  0.00  0.00    -0.042 A 
ATOM      6  C   UNL     1       1.215  10.823  18.608  0.00  0.00    -0.037 A 
ATOM      7  H   UNL     1      -1.203   8.760  17.351  0.00  0.00    +0.064 HD
ATOM      8  H   UNL     1      -2.548  10.778  17.713  0.00  0.00    +0.062 HD
ATOM      9  H   UNL     1      -1.543  12.827  18.642  0.00  0.00    +0.062 HD
ATOM     10  H   UNL     1       2.281  10.841  18.843  0.00  0.00    +0.064 HD
ENDROOT
BRANCH   1  13
ATOM     11  C   UNL     1       2.093   7.779  18.851  0.00  0.00    +0.267 C 
ATOM     12  O   UNL     1       1.969   7.861  20.071  0.00  0.00    -0.268 OA
ATOM     13  N   UNL     1       1.491   8.557  17.873  0.00  0.00    -0.280 N 
ATOM     14  H   UNL     1       1.596   8.219  16.918  0.00  0.00    +0.155 HD
BRANCH  11  17
ATOM     15  C   UNL     1       3.143   4.461  17.587  0.00  0.00    +0.042 A 
ATOM     16  C   UNL     1       2.347   5.401  18.197  0.00  0.00    -0.010 A 
ATOM     17  C   UNL     1       2.897   6.665  18.277  0.00  0.00    +0.129 A 
ATOM     18  N   UNL     1       4.114   7.016  17.791  0.00  0.00    -0.227 NA
ATOM     19  C   UNL     1       4.837   6.034  17.233  0.00  0.00    +0.133 A 
ATOM     20  N   UNL     1       4.361   4.769  17.085  0.00  0.00    -0.237 NA
ATOM     21  H   UNL     1       1.357   5.177  18.581  0.00  0.00    +0.066 HD
BRANCH  19  22
ATOM     22  C   UNL     1       6.239   6.391  16.776  0.00  0.00    +0.019 C 
ATOM     23  C   UNL     1       7.448   6.018  17.610  0.00  0.00    -0.043 C 
ATOM     24  C   UNL     1       7.052   7.465  17.467  0.00  0.00    -0.043 C 
ATOM     25  H   UNL     1       6.380   6.321  15.700  0.00  0.00    +0.038 HD
ATOM     26  H   UNL     1       8.332   5.668  17.089  0.00  0.00    +0.027 HD
ATOM     27  H   UNL     1       7.300   5.550  18.581  0.00  0.00    +0.027 HD
ATOM     28  H   UNL     1       7.648   8.124  16.838  0.00  0.00    +0.027 HD
ATOM     29  H   UNL     1       6.621   7.962  18.334  0.00  0.00    +0.027 HD
ENDBRANCH  19  22
BRANCH  15  30
ATOM     30  C   UNL     1       2.664   3.054  17.420  0.00  0.00    -0.022 C 
ATOM     31  H   UNL     1       1.793   2.859  18.055  0.00  0.00    +0.029 HD
ATOM     32  H   UNL     1       3.449   2.334  17.691  0.00  0.00    +0.029 HD
ATOM     33  H   UNL     1       2.386   2.896  16.372  0.00  0.00    +0.029 HD
ENDBRANCH  15  30
ENDBRANCH  11  17
ENDBRANCH   1  13
BRANCH   5  34
ATOM     34  C   UNL     1       1.135  13.246  19.322  0.00  0.00    -0.013 C 
ATOM     35  H   UNL     1       0.439  14.086  19.189  0.00  0.00    +0.035 HD
BRANCH  34  36
ATOM     36  C   UNL     1       2.384  13.579  18.495  0.00  0.00    -0.058 C 
ATOM     37  H   UNL     1       3.200  12.887  18.724  0.00  0.00    +0.024 HD
ATOM     38  H   UNL     1       2.735  14.592  18.709  0.00  0.00    +0.024 HD
ATOM     39  H   UNL     1       2.191  13.520  17.417  0.00  0.00    +0.024 HD
ENDBRANCH  34  36
BRANCH  34  40
ATOM     40  C   UNL     1       1.454  13.090  20.827  0.00  0.00    +0.004 C 
ATOM     41  H   UNL     1       2.067  13.936  21.165  0.00  0.00    +0.034 HD
ATOM     42  H   UNL     1       2.059  12.187  20.989  0.00  0.00    +0.034 HD
BRANCH  40  43
ATOM     43  C   UNL     1       0.229  12.952  21.675  0.00  0.00    +0.095 C 
ATOM     44  N   UNL     1      -0.240  11.806  22.141  0.00  0.00    -0.147 NA
ATOM     45  N   UNL     1      -1.376  11.976  22.927  0.00  0.00    -0.150 NA
ATOM     46  C   UNL     1      -1.716  13.245  23.021  0.00  0.00    +0.081 C 
ATOM     47  S   UNL     1      -0.655  14.272  22.200  0.00  0.00    -0.094 S 
ATOM     48 CL   UNL     1      -1.862  14.782  20.723  0.00  0.00    -0.057 Cl
ATOM     49  H   UNL     1      -2.565  13.584  23.608  0.00  0.00    +0.092 HD
ATOM     50  H   UNL     1      -0.253  15.088  23.208  0.00  0.00    +0.109 HD
ENDBRANCH  40  43
ENDBRANCH  34  40
ENDBRANCH   5  34
TORSDOF 8
ENDMDL
MODEL 19
REMARK VINA RESULT:    -6.833      2.889      3.110
REMARK INTER + INTRA:         -10.409
REMARK INTER:                 -10.060
REMARK INTRA:                  -0.349
REMARK UNBOUND:                -0.779
REMARK  Name = 
REMARK  8 active torsions:
REMARK  status: ('A' for Active; 'I' for Inactive)
REMARK    1  A    between atoms: C_1  and  C_2
REMARK    2  A    between atoms: C_4  and  C_11
REMARK    3  A    between atoms: C_6  and  C_8
REMARK    4  A    between atoms: N_13  and  C_14
REMARK    5  A    between atoms: C_18  and  C_20
REMARK    6  A    between atoms: C_20  and  C_21
REMARK    7  A    between atoms: C_20  and  C_22
REMARK    8  A    between atoms: C_22  and  C_23
REMARK                            x       y       z     vdW  Elec       q    Type
REMARK                         _______ _______ _______ _____ _____    ______ ____
ROOT
ATOM      1  C   UNL     1       1.177   8.538  20.654  0.00  0.00    +0.034 A 
ATOM      2  C   UNL     1       1.286   8.607  22.045  0.00  0.00    -0.040 A 
ATOM      3  C   UNL     1       0.632   9.622  22.745  0.00  0.00    -0.060 A 
ATOM      4  C   UNL     1      -0.141  10.569  22.067  0.00  0.00    -0.058 A 
ATOM      5  C   UNL     1      -0.266  10.517  20.673  0.00  0.00    -0.042 A 
ATOM      6  C   UNL     1       0.413   9.502  19.975  0.00  0.00    -0.037 A 
ATOM      7  H   UNL     1       1.897   7.897  22.602  0.00  0.00    +0.064 HD
ATOM      8  H   UNL     1       0.721   9.664  23.828  0.00  0.00    +0.062 HD
ATOM      9  H   UNL     1      -0.647  11.339  22.644  0.00  0.00    +0.062 HD
ATOM     10  H   UNL     1       0.311   9.444  18.890  0.00  0.00    +0.064 HD
ENDROOT
BRANCH   1  13
ATOM     11  C   UNL     1       2.388   7.708  18.626  0.00  0.00    +0.267 C 
ATOM     12  O   UNL     1       2.523   8.740  17.973  0.00  0.00    -0.268 OA
ATOM     13  N   UNL     1       1.805   7.551  19.874  0.00  0.00    -0.280 N 
ATOM     14  H   UNL     1       1.944   6.642  20.312  0.00  0.00    +0.155 HD
BRANCH  11  17
ATOM     15  C   UNL     1       2.931   4.153  17.743  0.00  0.00    +0.042 A 
ATOM     16  C   UNL     1       2.327   5.249  18.311  0.00  0.00    -0.010 A 
ATOM     17  C   UNL     1       2.991   6.444  18.117  0.00  0.00    +0.129 A 
ATOM     18  N   UNL     1       4.141   6.590  17.414  0.00  0.00    -0.227 NA
ATOM     19  C   UNL     1       4.679   5.468  16.913  0.00  0.00    +0.133 A 
ATOM     20  N   UNL     1       4.077   4.254  17.030  0.00  0.00    -0.237 NA
ATOM     21  H   UNL     1       1.395   5.189  18.863  0.00  0.00    +0.066 HD
BRANCH  19  22
ATOM     22  C   UNL     1       6.017   5.604  16.211  0.00  0.00    +0.019 C 
ATOM     23  C   UNL     1       6.200   5.122  14.786  0.00  0.00    -0.043 C 
ATOM     24  C   UNL     1       6.888   4.401  15.917  0.00  0.00    -0.043 C 
ATOM     25  H   UNL     1       6.553   6.516  16.463  0.00  0.00    +0.038 HD
ATOM     26  H   UNL     1       6.799   5.733  14.120  0.00  0.00    +0.027 HD
ATOM     27  H   UNL     1       5.379   4.610  14.288  0.00  0.00    +0.027 HD
ATOM     28  H   UNL     1       7.961   4.516  16.051  0.00  0.00    +0.027 HD
ATOM     29  H   UNL     1       6.516   3.416  16.191  0.00  0.00    +0.027 HD
ENDBRANCH  19  22
BRANCH  15  30
ATOM     30  C   UNL     1       2.311   2.798  17.861  0.00  0.00    -0.022 C 
ATOM     31  H   UNL     1       1.312   2.784  17.413  0.00  0.00    +0.029 HD
ATOM     32  H   UNL     1       2.213   2.497  18.915  0.00  0.00    +0.029 HD
ATOM     33  H   UNL     1       2.946   2.069  17.344  0.00  0.00    +0.029 HD
ENDBRANCH  15  30
ENDBRANCH  11  17
ENDBRANCH   1  13
BRANCH   5  34
ATOM     34  C   UNL     1      -1.157  11.480  19.901  0.00  0.00    -0.013 C 
ATOM     35  H   UNL     1      -2.098  10.960  19.672  0.00  0.00    +0.035 HD
BRANCH  34  36
ATOM     36  C   UNL     1      -0.534  11.869  18.554  0.00  0.00    -0.058 C 
ATOM     37  H   UNL     1      -1.259  11.757  17.741  0.00  0.00    +0.024 HD
ATOM     38  H   UNL     1       0.326  11.234  18.325  0.00  0.00    +0.024 HD
ATOM     39  H   UNL     1      -0.185  12.908  18.547  0.00  0.00    +0.024 HD
ENDBRANCH  34  36
BRANCH  34  40
ATOM     40  C   UNL     1      -1.466  12.714  20.781  0.00  0.00    +0.004 C 
ATOM     41  H   UNL     1      -1.166  13.629  20.253  0.00  0.00    +0.034 HD
ATOM     42  H   UNL     1      -0.864  12.677  21.700  0.00  0.00    +0.034 HD
BRANCH  40  43
ATOM     43  C   UNL     1      -2.900  12.791  21.202  0.00  0.00    +0.095 C 
ATOM     44  N   UNL     1      -3.923  12.920  20.373  0.00  0.00    -0.147 NA
ATOM     45  N   UNL     1      -5.146  12.934  21.036  0.00  0.00    -0.150 NA
ATOM     46  C   UNL     1      -4.994  12.815  22.340  0.00  0.00    +0.081 C 
ATOM     47  S   UNL     1      -3.377  12.641  22.799  0.00  0.00    -0.094 S 
ATOM     48 CL   UNL     1      -3.143  14.414  23.637  0.00  0.00    -0.057 Cl
ATOM     49  H   UNL     1      -5.833  12.786  23.029  0.00  0.00    +0.092 HD
ATOM     50  H   UNL     1      -3.421  11.456  23.458  0.00  0.00    +0.109 HD
ENDBRANCH  40  43
ENDBRANCH  34  40
ENDBRANCH   5  34
TORSDOF 8
ENDMDL
MODEL 20
REMARK VINA RESULT:    -6.818      3.917      5.269
REMARK INTER + INTRA:         -10.387
REMARK INTER:                  -9.596
REMARK INTRA:                  -0.791
REMARK UNBOUND:                -0.779
REMARK  Name = 
REMARK  8 active torsions:
REMARK  status: ('A' for Active; 'I' for Inactive)
REMARK    1  A    between atoms: C_1  and  C_2
REMARK    2  A    between atoms: C_4  and  C_11
REMARK    3  A    between atoms: C_6  and  C_8
REMARK    4  A    between atoms: N_13  and  C_14
REMARK    5  A    between atoms: C_18  and  C_20
REMARK    6  A    between atoms: C_20  and  C_21
REMARK    7  A    between atoms: C_20  and  C_22
REMARK    8  A    between atoms: C_22  and  C_23
REMARK                            x       y       z     vdW  Elec       q    Type
REMARK                         _______ _______ _______ _____ _____    ______ ____
ROOT
ATOM      1  C   UNL     1      -0.241   9.966  18.945  0.00  0.00    +0.034 A 
ATOM      2  C   UNL     1      -1.139  10.405  17.970  0.00  0.00    -0.040 A 
ATOM      3  C   UNL     1      -2.057  11.413  18.272  0.00  0.00    -0.060 A 
ATOM      4  C   UNL     1      -2.079  11.997  19.543  0.00  0.00    -0.058 A 
ATOM      5  C   UNL     1      -1.185  11.573  20.533  0.00  0.00    -0.042 A 
ATOM      6  C   UNL     1      -0.278  10.543  20.226  0.00  0.00    -0.037 A 
ATOM      7  H   UNL     1      -1.162   9.957  16.977  0.00  0.00    +0.064 HD
ATOM      8  H   UNL     1      -2.750  11.749  17.505  0.00  0.00    +0.062 HD
ATOM      9  H   UNL     1      -2.798  12.788  19.741  0.00  0.00    +0.062 HD
ATOM     10  H   UNL     1       0.433  10.216  20.987  0.00  0.00    +0.064 HD
ENDROOT
BRANCH   1  13
ATOM     11  C   UNL     1       1.964   9.090  18.143  0.00  0.00    +0.267 C 
ATOM     12  O   UNL     1       2.516  10.116  17.754  0.00  0.00    -0.268 OA
ATOM     13  N   UNL     1       0.711   8.956  18.725  0.00  0.00    -0.280 N 
ATOM     14  H   UNL     1       0.511   8.042  19.127  0.00  0.00    +0.155 HD
BRANCH  11  17
ATOM     15  C   UNL     1       4.440   6.462  17.323  0.00  0.00    +0.042 A 
ATOM     16  C   UNL     1       3.768   7.656  17.227  0.00  0.00    -0.010 A 
ATOM     17  C   UNL     1       2.716   7.804  18.109  0.00  0.00    +0.129 A 
ATOM     18  N   UNL     1       2.340   6.886  19.033  0.00  0.00    -0.227 NA
ATOM     19  C   UNL     1       3.032   5.737  19.044  0.00  0.00    +0.133 A 
ATOM     20  N   UNL     1       4.101   5.519  18.234  0.00  0.00    -0.237 NA
ATOM     21  H   UNL     1       4.043   8.434  16.521  0.00  0.00    +0.066 HD
BRANCH  19  22
ATOM     22  C   UNL     1       2.558   4.662  20.005  0.00  0.00    +0.019 C 
ATOM     23  C   UNL     1       1.531   3.634  19.578  0.00  0.00    -0.043 C 
ATOM     24  C   UNL     1       1.166   4.682  20.598  0.00  0.00    -0.043 C 
ATOM     25  H   UNL     1       3.339   4.289  20.664  0.00  0.00    +0.038 HD
ATOM     26  H   UNL     1       1.670   2.612  19.911  0.00  0.00    +0.027 HD
ATOM     27  H   UNL     1       1.078   3.713  18.591  0.00  0.00    +0.027 HD
ATOM     28  H   UNL     1       1.063   4.398  21.644  0.00  0.00    +0.027 HD
ATOM     29  H   UNL     1       0.485   5.474  20.292  0.00  0.00    +0.027 HD
ENDBRANCH  19  22
BRANCH  15  30
ATOM     30  C   UNL     1       5.611   6.176  16.439  0.00  0.00    -0.022 C 
ATOM     31  H   UNL     1       5.394   6.451  15.401  0.00  0.00    +0.029 HD
ATOM     32  H   UNL     1       5.871   5.108  16.458  0.00  0.00    +0.029 HD
ATOM     33  H   UNL     1       6.473   6.755  16.791  0.00  0.00    +0.029 HD
ENDBRANCH  15  30
ENDBRANCH  11  17
ENDBRANCH   1  13
BRANCH   5  34
ATOM     34  C   UNL     1      -1.122  12.232  21.906  0.00  0.00    -0.013 C 
ATOM     35  H   UNL     1      -0.098  12.602  22.056  0.00  0.00    +0.035 HD
BRANCH  34  36
ATOM     36  C   UNL     1      -1.390  11.222  23.029  0.00  0.00    -0.058 C 
ATOM     37  H   UNL     1      -1.080  10.215  22.732  0.00  0.00    +0.024 HD
ATOM     38  H   UNL     1      -2.456  11.185  23.273  0.00  0.00    +0.024 HD
ATOM     39  H   UNL     1      -0.852  11.478  23.949  0.00  0.00    +0.024 HD
ENDBRANCH  34  36
BRANCH  34  40
ATOM     40  C   UNL     1      -2.100  13.428  21.948  0.00  0.00    +0.004 C 
ATOM     41  H   UNL     1      -3.085  13.114  21.576  0.00  0.00    +0.034 HD
ATOM     42  H   UNL     1      -1.753  14.219  21.269  0.00  0.00    +0.034 HD
BRANCH  40  43
ATOM     43  C   UNL     1      -2.220  14.041  23.308  0.00  0.00    +0.095 C 
ATOM     44  N   UNL     1      -1.203  14.503  24.019  0.00  0.00    -0.147 NA
ATOM     45  N   UNL     1      -1.607  15.047  25.234  0.00  0.00    -0.150 NA
ATOM     46  C   UNL     1      -2.914  14.973  25.390  0.00  0.00    +0.081 C 
ATOM     47  S   UNL     1      -3.695  14.284  24.059  0.00  0.00    -0.094 S 
ATOM     48 CL   UNL     1      -4.201  12.570  24.901  0.00  0.00    -0.057 Cl
ATOM     49  H   UNL     1      -3.424  15.361  26.266  0.00  0.00    +0.092 HD
ATOM     50  H   UNL     1      -4.553  15.279  23.719  0.00  0.00    +0.109 HD
ENDBRANCH  40  43
ENDBRANCH  34  40
ENDBRANCH   5  34
TORSDOF 8
ENDMDL
MODEL 21
REMARK VINA RESULT:    -6.806      2.887      3.340
REMARK INTER + INTRA:         -10.370
REMARK INTER:                  -9.992
REMARK INTRA:                  -0.379
REMARK UNBOUND:                -0.779
REMARK  Name = 
REMARK  8 active torsions:
REMARK  status: ('A' for Active; 'I' for Inactive)
REMARK    1  A    between atoms: C_1  and  C_2
REMARK    2  A    between atoms: C_4  and  C_11
REMARK    3  A    between atoms: C_6  and  C_8
REMARK    4  A    between atoms: N_13  and  C_14
REMARK    5  A    between atoms: C_18  and  C_20
REMARK    6  A    between atoms: C_20  and  C_21
REMARK    7  A    between atoms: C_20  and  C_22
REMARK    8  A    between atoms: C_22  and  C_23
REMARK                            x       y       z     vdW  Elec       q    Type
REMARK                         _______ _______ _______ _____ _____    ______ ____
ROOT
ATOM      1  C   UNL     1       1.186   8.579  20.628  0.00  0.00    +0.034 A 
ATOM      2  C   UNL     1       1.225   8.648  22.023  0.00  0.00    -0.040 A 
ATOM      3  C   UNL     1       0.473   9.615  22.693  0.00  0.00    -0.060 A 
ATOM      4  C   UNL     1      -0.328  10.513  21.980  0.00  0.00    -0.058 A 
ATOM      5  C   UNL     1      -0.383  10.459  20.582  0.00  0.00    -0.042 A 
ATOM      6  C   UNL     1       0.393   9.494  19.915  0.00  0.00    -0.037 A 
ATOM      7  H   UNL     1       1.854   7.977  22.607  0.00  0.00    +0.064 HD
ATOM      8  H   UNL     1       0.508   9.658  23.778  0.00  0.00    +0.062 HD
ATOM      9  H   UNL     1      -0.909  11.246  22.534  0.00  0.00    +0.062 HD
ATOM     10  H   UNL     1       0.346   9.434  18.826  0.00  0.00    +0.064 HD
ENDROOT
BRANCH   1  13
ATOM     11  C   UNL     1       2.366   7.770  18.573  0.00  0.00    +0.267 C 
ATOM     12  O   UNL     1       2.273   8.744  17.830  0.00  0.00    -0.268 OA
ATOM     13  N   UNL     1       1.913   7.639  19.877  0.00  0.00    -0.280 N 
ATOM     14  H   UNL     1       2.237   6.810  20.373  0.00  0.00    +0.155 HD
BRANCH  11  17
ATOM     15  C   UNL     1       3.281   4.340  17.519  0.00  0.00    +0.042 A 
ATOM     16  C   UNL     1       2.502   5.357  18.017  0.00  0.00    -0.010 A 
ATOM     17  C   UNL     1       3.137   6.580  18.116  0.00  0.00    +0.129 A 
ATOM     18  N   UNL     1       4.418   6.823  17.748  0.00  0.00    -0.227 NA
ATOM     19  C   UNL     1       5.117   5.771  17.294  0.00  0.00    +0.133 A 
ATOM     20  N   UNL     1       4.563   4.540  17.136  0.00  0.00    -0.237 NA
ATOM     21  H   UNL     1       1.464   5.220  18.305  0.00  0.00    +0.066 HD
BRANCH  19  22
ATOM     22  C   UNL     1       6.581   6.009  16.973  0.00  0.00    +0.019 C 
ATOM     23  C   UNL     1       7.632   5.977  18.064  0.00  0.00    -0.043 C 
ATOM     24  C   UNL     1       7.291   7.280  17.388  0.00  0.00    -0.043 C 
ATOM     25  H   UNL     1       6.892   5.591  16.019  0.00  0.00    +0.038 HD
ATOM     26  H   UNL     1       8.582   5.507  17.836  0.00  0.00    +0.027 HD
ATOM     27  H   UNL     1       7.320   5.851  19.099  0.00  0.00    +0.027 HD
ATOM     28  H   UNL     1       7.992   7.714  16.678  0.00  0.00    +0.027 HD
ATOM     29  H   UNL     1       6.734   8.019  17.960  0.00  0.00    +0.027 HD
ENDBRANCH  19  22
BRANCH  15  30
ATOM     30  C   UNL     1       2.715   2.967  17.345  0.00  0.00    -0.022 C 
ATOM     31  H   UNL     1       1.780   2.855  17.904  0.00  0.00    +0.029 HD
ATOM     32  H   UNL     1       3.418   2.201  17.703  0.00  0.00    +0.029 HD
ATOM     33  H   UNL     1       2.519   2.796  16.280  0.00  0.00    +0.029 HD
ENDBRANCH  15  30
ENDBRANCH  11  17
ENDBRANCH   1  13
BRANCH   5  34
ATOM     34  C   UNL     1      -1.299  11.365  19.769  0.00  0.00    -0.013 C 
ATOM     35  H   UNL     1      -2.254  11.448  20.306  0.00  0.00    +0.035 HD
BRANCH  34  36
ATOM     36  C   UNL     1      -1.619  10.759  18.397  0.00  0.00    -0.058 C 
ATOM     37  H   UNL     1      -2.442  10.042  18.469  0.00  0.00    +0.024 HD
ATOM     38  H   UNL     1      -0.751  10.233  17.991  0.00  0.00    +0.024 HD
ATOM     39  H   UNL     1      -1.909  11.525  17.667  0.00  0.00    +0.024 HD
ENDBRANCH  34  36
BRANCH  34  40
ATOM     40  C   UNL     1      -0.662  12.770  19.655  0.00  0.00    +0.004 C 
ATOM     41  H   UNL     1      -0.981  13.246  18.718  0.00  0.00    +0.034 HD
ATOM     42  H   UNL     1       0.432  12.681  19.598  0.00  0.00    +0.034 HD
BRANCH  40  43
ATOM     43  C   UNL     1      -0.968  13.650  20.826  0.00  0.00    +0.095 C 
ATOM     44  N   UNL     1      -0.058  14.188  21.622  0.00  0.00    -0.147 NA
ATOM     45  N   UNL     1      -0.623  14.987  22.612  0.00  0.00    -0.150 NA
ATOM     46  C   UNL     1      -1.937  15.019  22.520  0.00  0.00    +0.081 C 
ATOM     47  S   UNL     1      -2.526  14.120  21.216  0.00  0.00    -0.094 S 
ATOM     48 CL   UNL     1      -3.332  12.643  22.248  0.00  0.00    -0.057 Cl
ATOM     49  H   UNL     1      -2.559  15.604  23.192  0.00  0.00    +0.092 HD
ATOM     50  H   UNL     1      -3.212  15.073  20.534  0.00  0.00    +0.109 HD
ENDBRANCH  40  43
ENDBRANCH  34  40
ENDBRANCH   5  34
TORSDOF 8
ENDMDL
MODEL 22
REMARK VINA RESULT:    -6.779      3.039      4.364
REMARK INTER + INTRA:         -10.332
REMARK INTER:                  -9.424
REMARK INTRA:                  -0.908
REMARK UNBOUND:                -0.779
REMARK  Name = 
REMARK  8 active torsions:
REMARK  status: ('A' for Active; 'I' for Inactive)
REMARK    1  A    between atoms: C_1  and  C_2
REMARK    2  A    between atoms: C_4  and  C_11
REMARK    3  A    between atoms: C_6  and  C_8
REMARK    4  A    between atoms: N_13  and  C_14
REMARK    5  A    between atoms: C_18  and  C_20
REMARK    6  A    between atoms: C_20  and  C_21
REMARK    7  A    between atoms: C_20  and  C_22
REMARK    8  A    between atoms: C_22  and  C_23
REMARK                            x       y       z     vdW  Elec       q    Type
REMARK                         _______ _______ _______ _____ _____    ______ ____
ROOT
ATOM      1  C   UNL     1       0.316   9.998  18.238  0.00  0.00    +0.034 A 
ATOM      2  C   UNL     1      -0.976   9.993  17.706  0.00  0.00    -0.040 A 
ATOM      3  C   UNL     1      -1.771  11.137  17.799  0.00  0.00    -0.060 A 
ATOM      4  C   UNL     1      -1.283  12.294  18.414  0.00  0.00    -0.058 A 
ATOM      5  C   UNL     1       0.010  12.320  18.952  0.00  0.00    -0.042 A 
ATOM      6  C   UNL     1       0.796  11.157  18.871  0.00  0.00    -0.037 A 
ATOM      7  H   UNL     1      -1.394   9.102  17.238  0.00  0.00    +0.064 HD
ATOM      8  H   UNL     1      -2.774  11.123  17.379  0.00  0.00    +0.062 HD
ATOM      9  H   UNL     1      -1.924  13.170  18.459  0.00  0.00    +0.062 HD
ATOM     10  H   UNL     1       1.810  11.172  19.274  0.00  0.00    +0.064 HD
ENDROOT
BRANCH   1  13
ATOM     11  C   UNL     1       1.730   8.201  19.260  0.00  0.00    +0.267 C 
ATOM     12  O   UNL     1       1.537   8.381  20.459  0.00  0.00    -0.268 OA
ATOM     13  N   UNL     1       1.179   8.890  18.189  0.00  0.00    -0.280 N 
ATOM     14  H   UNL     1       1.340   8.475  17.272  0.00  0.00    +0.155 HD
BRANCH  11  17
ATOM     15  C   UNL     1       4.211   6.110  17.475  0.00  0.00    +0.042 A 
ATOM     16  C   UNL     1       3.427   7.205  17.751  0.00  0.00    -0.010 A 
ATOM     17  C   UNL     1       2.572   7.052  18.824  0.00  0.00    +0.129 A 
ATOM     18  N   UNL     1       2.482   5.940  19.595  0.00  0.00    -0.227 NA
ATOM     19  C   UNL     1       3.264   4.908  19.244  0.00  0.00    +0.133 A 
ATOM     20  N   UNL     1       4.156   4.982  18.221  0.00  0.00    -0.237 NA
ATOM     21  H   UNL     1       3.478   8.126  17.180  0.00  0.00    +0.066 HD
BRANCH  19  22
ATOM     22  C   UNL     1       3.100   3.624  20.036  0.00  0.00    +0.019 C 
ATOM     23  C   UNL     1       2.064   2.593  19.641  0.00  0.00    -0.043 C 
ATOM     24  C   UNL     1       1.892   3.380  20.915  0.00  0.00    -0.043 C 
ATOM     25  H   UNL     1       4.038   3.219  20.410  0.00  0.00    +0.038 HD
ATOM     26  H   UNL     1       2.340   1.547  19.711  0.00  0.00    +0.027 HD
ATOM     27  H   UNL     1       1.383   2.810  18.821  0.00  0.00    +0.027 HD
ATOM     28  H   UNL     1       2.062   2.892  21.873  0.00  0.00    +0.027 HD
ATOM     29  H   UNL     1       1.112   4.138  20.943  0.00  0.00    +0.027 HD
ENDBRANCH  19  22
BRANCH  15  30
ATOM     30  C   UNL     1       5.194   6.145  16.349  0.00  0.00    -0.022 C 
ATOM     31  H   UNL     1       5.120   7.086  15.794  0.00  0.00    +0.029 HD
ATOM     32  H   UNL     1       5.016   5.321  15.642  0.00  0.00    +0.029 HD
ATOM     33  H   UNL     1       6.206   6.047  16.757  0.00  0.00    +0.029 HD
ENDBRANCH  15  30
ENDBRANCH  11  17
ENDBRANCH   1  13
BRANCH   5  34
ATOM     34  C   UNL     1       0.610  13.580  19.562  0.00  0.00    -0.013 C 
ATOM     35  H   UNL     1      -0.153  14.371  19.524  0.00  0.00    +0.035 HD
BRANCH  34  36
ATOM     36  C   UNL     1       1.806  14.087  18.747  0.00  0.00    -0.058 C 
ATOM     37  H   UNL     1       1.499  14.370  17.736  0.00  0.00    +0.024 HD
ATOM     38  H   UNL     1       2.574  13.313  18.659  0.00  0.00    +0.024 HD
ATOM     39  H   UNL     1       2.276  14.964  19.209  0.00  0.00    +0.024 HD
ENDBRANCH  34  36
BRANCH  34  40
ATOM     40  C   UNL     1       0.980  13.310  21.039  0.00  0.00    +0.004 C 
ATOM     41  H   UNL     1       1.479  14.192  21.463  0.00  0.00    +0.034 HD
ATOM     42  H   UNL     1       1.707  12.488  21.097  0.00  0.00    +0.034 HD
BRANCH  40  43
ATOM     43  C   UNL     1      -0.195  12.913  21.876  0.00  0.00    +0.095 C 
ATOM     44  N   UNL     1      -0.458  11.677  22.268  0.00  0.00    -0.147 NA
ATOM     45  N   UNL     1      -1.598  11.602  23.062  0.00  0.00    -0.150 NA
ATOM     46  C   UNL     1      -2.149  12.787  23.236  0.00  0.00    +0.081 C 
ATOM     47  S   UNL     1      -1.285  14.029  22.482  0.00  0.00    -0.094 S 
ATOM     48 CL   UNL     1      -2.576  14.416  21.038  0.00  0.00    -0.057 Cl
ATOM     49  H   UNL     1      -3.037  12.939  23.842  0.00  0.00    +0.092 HD
ATOM     50  H   UNL     1      -1.018  14.837  23.539  0.00  0.00    +0.109 HD
ENDBRANCH  40  43
ENDBRANCH  34  40
ENDBRANCH   5  34
TORSDOF 8
ENDMDL
MODEL 23
REMARK VINA RESULT:    -6.762      3.390      8.798
REMARK INTER + INTRA:         -10.308
REMARK INTER:                  -9.907
REMARK INTRA:                  -0.401
REMARK UNBOUND:                -0.779
REMARK  Name = 
REMARK  8 active torsions:
REMARK  status: ('A' for Active; 'I' for Inactive)
REMARK    1  A    between atoms: C_1  and  C_2
REMARK    2  A    between atoms: C_4  and  C_11
REMARK    3  A    between atoms: C_6  and  C_8
REMARK    4  A    between atoms: N_13  and  C_14
REMARK    5  A    between atoms: C_18  and  C_20
REMARK    6  A    between atoms: C_20  and  C_21
REMARK    7  A    between atoms: C_20  and  C_22
REMARK    8  A    between atoms: C_22  and  C_23
REMARK                            x       y       z     vdW  Elec       q    Type
REMARK                         _______ _______ _______ _____ _____    ______ ____
ROOT
ATOM      1  C   UNL     1       3.317   5.469  19.868  0.00  0.00    +0.034 A 
ATOM      2  C   UNL     1       2.911   4.145  20.053  0.00  0.00    -0.040 A 
ATOM      3  C   UNL     1       3.774   3.100  19.718  0.00  0.00    -0.060 A 
ATOM      4  C   UNL     1       5.048   3.365  19.207  0.00  0.00    -0.058 A 
ATOM      5  C   UNL     1       5.475   4.685  19.017  0.00  0.00    -0.042 A 
ATOM      6  C   UNL     1       4.592   5.731  19.338  0.00  0.00    -0.037 A 
ATOM      7  H   UNL     1       1.918   3.903  20.430  0.00  0.00    +0.064 HD
ATOM      8  H   UNL     1       3.449   2.073  19.869  0.00  0.00    +0.062 HD
ATOM      9  H   UNL     1       5.699   2.528  18.968  0.00  0.00    +0.062 HD
ATOM     10  H   UNL     1       4.920   6.764  19.207  0.00  0.00    +0.064 HD
ENDROOT
BRANCH   1  13
ATOM     11  C   UNL     1       2.174   7.634  19.343  0.00  0.00    +0.267 C 
ATOM     12  O   UNL     1       2.463   7.791  18.159  0.00  0.00    -0.268 OA
ATOM     13  N   UNL     1       2.510   6.578  20.177  0.00  0.00    -0.280 N 
ATOM     14  H   UNL     1       2.031   6.559  21.076  0.00  0.00    +0.155 HD
BRANCH  11  17
ATOM     15  C   UNL     1       0.259   9.523  21.888  0.00  0.00    +0.042 A 
ATOM     16  C   UNL     1       1.055   8.532  21.366  0.00  0.00    -0.010 A 
ATOM     17  C   UNL     1       1.265   8.613  20.003  0.00  0.00    +0.129 A 
ATOM     18  N   UNL     1       0.769   9.582  19.195  0.00  0.00    -0.227 NA
ATOM     19  C   UNL     1      -0.019  10.498  19.780  0.00  0.00    +0.133 A 
ATOM     20  N   UNL     1      -0.254  10.511  21.119  0.00  0.00    -0.237 NA
ATOM     21  H   UNL     1       1.496   7.748  21.972  0.00  0.00    +0.066 HD
BRANCH  19  22
ATOM     22  C   UNL     1      -0.661  11.529  18.871  0.00  0.00    +0.019 C 
ATOM     23  C   UNL     1      -2.124  11.894  19.020  0.00  0.00    -0.043 C 
ATOM     24  C   UNL     1      -1.659  11.137  17.802  0.00  0.00    -0.043 C 
ATOM     25  H   UNL     1      -0.002  12.355  18.612  0.00  0.00    +0.038 HD
ATOM     26  H   UNL     1      -2.397  12.937  18.908  0.00  0.00    +0.027 HD
ATOM     27  H   UNL     1      -2.735  11.358  19.743  0.00  0.00    +0.027 HD
ATOM     28  H   UNL     1      -1.594  11.650  16.845  0.00  0.00    +0.027 HD
ATOM     29  H   UNL     1      -1.940  10.089  17.718  0.00  0.00    +0.027 HD
ENDBRANCH  19  22
BRANCH  15  30
ATOM     30  C   UNL     1      -0.038   9.565  23.353  0.00  0.00    -0.022 C 
ATOM     31  H   UNL     1       0.884   9.507  23.941  0.00  0.00    +0.029 HD
ATOM     32  H   UNL     1      -0.683   8.725  23.651  0.00  0.00    +0.029 HD
ATOM     33  H   UNL     1      -0.554  10.504  23.584  0.00  0.00    +0.029 HD
ENDBRANCH  15  30
ENDBRANCH  11  17
ENDBRANCH   1  13
BRANCH   5  34
ATOM     34  C   UNL     1       6.880   5.023  18.535  0.00  0.00    -0.013 C 
ATOM     35  H   UNL     1       7.362   4.088  18.217  0.00  0.00    +0.035 HD
BRANCH  34  36
ATOM     36  C   UNL     1       7.742   5.596  19.667  0.00  0.00    -0.058 C 
ATOM     37  H   UNL     1       7.470   5.151  20.629  0.00  0.00    +0.024 HD
ATOM     38  H   UNL     1       7.609   6.678  19.749  0.00  0.00    +0.024 HD
ATOM     39  H   UNL     1       8.811   5.409  19.505  0.00  0.00    +0.024 HD
ENDBRANCH  34  36
BRANCH  34  40
ATOM     40  C   UNL     1       6.793   5.980  17.324  0.00  0.00    +0.004 C 
ATOM     41  H   UNL     1       7.663   6.650  17.317  0.00  0.00    +0.034 HD
ATOM     42  H   UNL     1       5.908   6.626  17.421  0.00  0.00    +0.034 HD
BRANCH  40  43
ATOM     43  C   UNL     1       6.667   5.263  16.016  0.00  0.00    +0.095 C 
ATOM     44  N   UNL     1       7.138   5.710  14.863  0.00  0.00    -0.147 NA
ATOM     45  N   UNL     1       6.906   4.824  13.815  0.00  0.00    -0.150 NA
ATOM     46  C   UNL     1       6.269   3.745  14.222  0.00  0.00    +0.081 C 
ATOM     47  S   UNL     1       5.968   3.748  15.885  0.00  0.00    -0.094 S 
ATOM     48 CL   UNL     1       4.014   4.021  15.805  0.00  0.00    -0.057 Cl
ATOM     49  H   UNL     1       6.013   2.927  13.555  0.00  0.00    +0.092 HD
ATOM     50  H   UNL     1       6.590   2.603  16.263  0.00  0.00    +0.109 HD
ENDBRANCH  40  43
ENDBRANCH  34  40
ENDBRANCH   5  34
TORSDOF 8
ENDMDL
MODEL 24
REMARK VINA RESULT:    -6.736      3.104      8.790
REMARK INTER + INTRA:         -10.271
REMARK INTER:                  -9.555
REMARK INTRA:                  -0.716
REMARK UNBOUND:                -0.779
REMARK  Name = 
REMARK  8 active torsions:
REMARK  status: ('A' for Active; 'I' for Inactive)
REMARK    1  A    between atoms: C_1  and  C_2
REMARK    2  A    between atoms: C_4  and  C_11
REMARK    3  A    between atoms: C_6  and  C_8
REMARK    4  A    between atoms: N_13  and  C_14
REMARK    5  A    between atoms: C_18  and  C_20
REMARK    6  A    between atoms: C_20  and  C_21
REMARK    7  A    between atoms: C_20  and  C_22
REMARK    8  A    between atoms: C_22  and  C_23
REMARK                            x       y       z     vdW  Elec       q    Type
REMARK                         _______ _______ _______ _____ _____    ______ ____
ROOT
ATOM      1  C   UNL     1       1.796   6.594  19.870  0.00  0.00    +0.034 A 
ATOM      2  C   UNL     1       1.716   5.877  21.066  0.00  0.00    -0.040 A 
ATOM      3  C   UNL     1       2.208   4.572  21.129  0.00  0.00    -0.060 A 
ATOM      4  C   UNL     1       2.789   3.975  20.006  0.00  0.00    -0.058 A 
ATOM      5  C   UNL     1       2.881   4.678  18.798  0.00  0.00    -0.042 A 
ATOM      6  C   UNL     1       2.365   5.985  18.739  0.00  0.00    -0.037 A 
ATOM      7  H   UNL     1       1.251   6.305  21.954  0.00  0.00    +0.064 HD
ATOM      8  H   UNL     1       2.143   4.024  22.066  0.00  0.00    +0.062 HD
ATOM      9  H   UNL     1       3.172   2.962  20.093  0.00  0.00    +0.062 HD
ATOM     10  H   UNL     1       2.445   6.546  17.805  0.00  0.00    +0.064 HD
ENDROOT
BRANCH   1  13
ATOM     11  C   UNL     1       1.135   8.855  20.718  0.00  0.00    +0.267 C 
ATOM     12  O   UNL     1       1.388   8.759  21.916  0.00  0.00    -0.268 OA
ATOM     13  N   UNL     1       1.324   7.910  19.721  0.00  0.00    -0.280 N 
ATOM     14  H   UNL     1       1.205   8.248  18.767  0.00  0.00    +0.155 HD
BRANCH  11  17
ATOM     15  C   UNL     1       0.764  12.474  20.025  0.00  0.00    +0.042 A 
ATOM     16  C   UNL     1       1.226  11.332  20.633  0.00  0.00    -0.010 A 
ATOM     17  C   UNL     1       0.655  10.160  20.180  0.00  0.00    +0.129 A 
ATOM     18  N   UNL     1      -0.279  10.077  19.201  0.00  0.00    -0.227 NA
ATOM     19  C   UNL     1      -0.694  11.239  18.675  0.00  0.00    +0.133 A 
ATOM     20  N   UNL     1      -0.164  12.437  19.040  0.00  0.00    -0.237 NA
ATOM     21  H   UNL     1       1.989  11.342  21.406  0.00  0.00    +0.066 HD
BRANCH  19  22
ATOM     22  C   UNL     1      -1.809  11.167  17.649  0.00  0.00    +0.019 C 
ATOM     23  C   UNL     1      -3.258  11.328  18.062  0.00  0.00    -0.043 C 
ATOM     24  C   UNL     1      -2.757   9.989  17.585  0.00  0.00    -0.043 C 
ATOM     25  H   UNL     1      -1.550  11.608  16.689  0.00  0.00    +0.038 HD
ATOM     26  H   UNL     1      -3.908  11.901  17.410  0.00  0.00    +0.027 HD
ATOM     27  H   UNL     1      -3.502  11.427  19.118  0.00  0.00    +0.027 HD
ATOM     28  H   UNL     1      -3.044   9.630  16.599  0.00  0.00    +0.027 HD
ATOM     29  H   UNL     1      -2.646   9.196  18.323  0.00  0.00    +0.027 HD
ENDBRANCH  19  22
BRANCH  15  30
ATOM     30  C   UNL     1       1.309  13.813  20.408  0.00  0.00    -0.022 C 
ATOM     31  H   UNL     1       2.096  14.127  19.716  0.00  0.00    +0.029 HD
ATOM     32  H   UNL     1       1.736  13.791  21.421  0.00  0.00    +0.029 HD
ATOM     33  H   UNL     1       0.496  14.548  20.384  0.00  0.00    +0.029 HD
ENDBRANCH  15  30
ENDBRANCH  11  17
ENDBRANCH   1  13
BRANCH   5  34
ATOM     34  C   UNL     1       3.573   4.097  17.571  0.00  0.00    -0.013 C 
ATOM     35  H   UNL     1       3.598   4.876  16.797  0.00  0.00    +0.035 HD
BRANCH  34  36
ATOM     36  C   UNL     1       2.784   2.921  16.982  0.00  0.00    -0.058 C 
ATOM     37  H   UNL     1       2.978   2.001  17.542  0.00  0.00    +0.024 HD
ATOM     38  H   UNL     1       3.066   2.745  15.941  0.00  0.00    +0.024 HD
ATOM     39  H   UNL     1       1.702   3.101  17.002  0.00  0.00    +0.024 HD
ENDBRANCH  34  36
BRANCH  34  40
ATOM     40  C   UNL     1       5.023   3.704  17.937  0.00  0.00    +0.004 C 
ATOM     41  H   UNL     1       5.359   2.883  17.290  0.00  0.00    +0.034 HD
ATOM     42  H   UNL     1       5.058   3.319  18.966  0.00  0.00    +0.034 HD
BRANCH  40  43
ATOM     43  C   UNL     1       5.978   4.855  17.870  0.00  0.00    +0.095 C 
ATOM     44  N   UNL     1       6.602   5.379  18.913  0.00  0.00    -0.147 NA
ATOM     45  N   UNL     1       7.454   6.419  18.555  0.00  0.00    -0.150 NA
ATOM     46  C   UNL     1       7.437   6.637  17.255  0.00  0.00    +0.081 C 
ATOM     47  S   UNL     1       6.426   5.568  16.424  0.00  0.00    -0.094 S 
ATOM     48 CL   UNL     1       5.005   6.854  15.951  0.00  0.00    -0.057 Cl
ATOM     49  H   UNL     1       8.050   7.396  16.779  0.00  0.00    +0.092 HD
ATOM     50  H   UNL     1       7.303   5.006  15.554  0.00  0.00    +0.109 HD
ENDBRANCH  40  43
ENDBRANCH  34  40
ENDBRANCH   5  34
TORSDOF 8
ENDMDL
MODEL 25
REMARK VINA RESULT:    -6.676      1.956      3.523
REMARK INTER + INTRA:         -10.186
REMARK INTER:                  -9.666
REMARK INTRA:                  -0.521
REMARK UNBOUND:                -0.779
REMARK  Name = 
REMARK  8 active torsions:
REMARK  status: ('A' for Active; 'I' for Inactive)
REMARK    1  A    between atoms: C_1  and  C_2
REMARK    2  A    between atoms: C_4  and  C_11
REMARK    3  A    between atoms: C_6  and  C_8
REMARK    4  A    between atoms: N_13  and  C_14
REMARK    5  A    between atoms: C_18  and  C_20
REMARK    6  A    between atoms: C_20  and  C_21
REMARK    7  A    between atoms: C_20  and  C_22
REMARK    8  A    between atoms: C_22  and  C_23
REMARK                            x       y       z     vdW  Elec       q    Type
REMARK                         _______ _______ _______ _____ _____    ______ ____
ROOT
ATOM      1  C   UNL     1       1.684  10.973  18.532  0.00  0.00    +0.034 A 
ATOM      2  C   UNL     1       2.602  11.932  18.097  0.00  0.00    -0.040 A 
ATOM      3  C   UNL     1       2.236  13.279  18.063  0.00  0.00    -0.060 A 
ATOM      4  C   UNL     1       0.960  13.680  18.469  0.00  0.00    -0.058 A 
ATOM      5  C   UNL     1       0.026  12.734  18.911  0.00  0.00    -0.042 A 
ATOM      6  C   UNL     1       0.397  11.378  18.923  0.00  0.00    -0.037 A 
ATOM      7  H   UNL     1       3.598  11.652  17.755  0.00  0.00    +0.064 HD
ATOM      8  H   UNL     1       2.959  14.018  17.726  0.00  0.00    +0.062 HD
ATOM      9  H   UNL     1       0.712  14.738  18.441  0.00  0.00    +0.062 HD
ATOM     10  H   UNL     1      -0.318  10.634  19.279  0.00  0.00    +0.064 HD
ENDROOT
BRANCH   1  13
ATOM     11  C   UNL     1       1.748   8.738  19.660  0.00  0.00    +0.267 C 
ATOM     12  O   UNL     1       1.210   8.985  20.737  0.00  0.00    -0.268 OA
ATOM     13  N   UNL     1       1.971   9.598  18.595  0.00  0.00    -0.280 N 
ATOM     14  H   UNL     1       2.280   9.155  17.731  0.00  0.00    +0.155 HD
BRANCH  11  17
ATOM     15  C   UNL     1       3.387   5.774  18.165  0.00  0.00    +0.042 A 
ATOM     16  C   UNL     1       3.031   7.092  18.322  0.00  0.00    -0.010 A 
ATOM     17  C   UNL     1       2.144   7.335  19.352  0.00  0.00    +0.129 A 
ATOM     18  N   UNL     1       1.645   6.393  20.188  0.00  0.00    -0.227 NA
ATOM     19  C   UNL     1       2.023   5.127  19.952  0.00  0.00    +0.133 A 
ATOM     20  N   UNL     1       2.916   4.801  18.980  0.00  0.00    -0.237 NA
ATOM     21  H   UNL     1       3.420   7.887  17.695  0.00  0.00    +0.066 HD
BRANCH  19  22
ATOM     22  C   UNL     1       1.394   4.051  20.817  0.00  0.00    +0.019 C 
ATOM     23  C   UNL     1       2.254   3.055  21.568  0.00  0.00    -0.043 C 
ATOM     24  C   UNL     1       1.407   2.594  20.410  0.00  0.00    -0.043 C 
ATOM     25  H   UNL     1       0.501   4.380  21.344  0.00  0.00    +0.038 HD
ATOM     26  H   UNL     1       1.951   2.783  22.573  0.00  0.00    +0.027 HD
ATOM     27  H   UNL     1       3.333   3.070  21.426  0.00  0.00    +0.027 HD
ATOM     28  H   UNL     1       0.506   2.013  20.603  0.00  0.00    +0.027 HD
ATOM     29  H   UNL     1       1.913   2.320  19.487  0.00  0.00    +0.027 HD
ENDBRANCH  19  22
BRANCH  15  30
ATOM     30  C   UNL     1       4.354   5.371  17.098  0.00  0.00    -0.022 C 
ATOM     31  H   UNL     1       5.313   5.069  17.532  0.00  0.00    +0.029 HD
ATOM     32  H   UNL     1       4.543   6.200  16.401  0.00  0.00    +0.029 HD
ATOM     33  H   UNL     1       3.933   4.528  16.537  0.00  0.00    +0.029 HD
ENDBRANCH  15  30
ENDBRANCH  11  17
ENDBRANCH   1  13
BRANCH   5  34
ATOM     34  C   UNL     1      -1.348  13.132  19.434  0.00  0.00    -0.013 C 
ATOM     35  H   UNL     1      -1.823  13.775  18.680  0.00  0.00    +0.035 HD
BRANCH  34  36
ATOM     36  C   UNL     1      -1.243  13.968  20.716  0.00  0.00    -0.058 C 
ATOM     37  H   UNL     1      -0.573  13.492  21.439  0.00  0.00    +0.024 HD
ATOM     38  H   UNL     1      -2.222  14.078  21.191  0.00  0.00    +0.024 HD
ATOM     39  H   UNL     1      -0.859  14.976  20.520  0.00  0.00    +0.024 HD
ENDBRANCH  34  36
BRANCH  34  40
ATOM     40  C   UNL     1      -2.211  11.864  19.630  0.00  0.00    +0.004 C 
ATOM     41  H   UNL     1      -2.739  11.921  20.591  0.00  0.00    +0.034 HD
ATOM     42  H   UNL     1      -1.564  10.977  19.686  0.00  0.00    +0.034 HD
BRANCH  40  43
ATOM     43  C   UNL     1      -3.175  11.631  18.509  0.00  0.00    +0.095 C 
ATOM     44  N   UNL     1      -4.492  11.647  18.632  0.00  0.00    -0.147 NA
ATOM     45  N   UNL     1      -5.142  11.430  17.422  0.00  0.00    -0.150 NA
ATOM     46  C   UNL     1      -4.287  11.258  16.434  0.00  0.00    +0.081 C 
ATOM     47  S   UNL     1      -2.677  11.395  16.929  0.00  0.00    -0.094 S 
ATOM     48 CL   UNL     1      -2.180   9.491  16.761  0.00  0.00    -0.057 Cl
ATOM     49  H   UNL     1      -4.600  11.094  15.407  0.00  0.00    +0.092 HD
ATOM     50  H   UNL     1      -2.243  12.398  16.125  0.00  0.00    +0.109 HD
ENDBRANCH  40  43
ENDBRANCH  34  40
ENDBRANCH   5  34
TORSDOF 8
ENDMDL
MODEL 26
REMARK VINA RESULT:    -6.650      1.857      2.461
REMARK INTER + INTRA:         -10.150
REMARK INTER:                  -9.600
REMARK INTRA:                  -0.550
REMARK UNBOUND:                -0.779
REMARK  Name = 
REMARK  8 active torsions:
REMARK  status: ('A' for Active; 'I' for Inactive)
REMARK    1  A    between atoms: C_1  and  C_2
REMARK    2  A    between atoms: C_4  and  C_11
REMARK    3  A    between atoms: C_6  and  C_8
REMARK    4  A    between atoms: N_13  and  C_14
REMARK    5  A    between atoms: C_18  and  C_20
REMARK    6  A    between atoms: C_20  and  C_21
REMARK    7  A    between atoms: C_20  and  C_22
REMARK    8  A    between atoms: C_22  and  C_23
REMARK                            x       y       z     vdW  Elec       q    Type
REMARK                         _______ _______ _______ _____ _____    ______ ____
ROOT
ATOM      1  C   UNL     1       2.074   9.713  18.057  0.00  0.00    +0.034 A 
ATOM      2  C   UNL     1       2.850  10.840  17.775  0.00  0.00    -0.040 A 
ATOM      3  C   UNL     1       2.330  12.117  17.999  0.00  0.00    -0.060 A 
ATOM      4  C   UNL     1       1.040  12.279  18.513  0.00  0.00    -0.058 A 
ATOM      5  C   UNL     1       0.248  11.162  18.805  0.00  0.00    -0.042 A 
ATOM      6  C   UNL     1       0.772   9.881  18.557  0.00  0.00    -0.037 A 
ATOM      7  H   UNL     1       3.852  10.749  17.355  0.00  0.00    +0.064 HD
ATOM      8  H   UNL     1       2.944  12.987  17.779  0.00  0.00    +0.062 HD
ATOM      9  H   UNL     1       0.671  13.286  18.687  0.00  0.00    +0.062 HD
ATOM     10  H   UNL     1       0.167   9.004  18.795  0.00  0.00    +0.064 HD
ENDROOT
BRANCH   1  13
ATOM     11  C   UNL     1       2.480   7.346  18.765  0.00  0.00    +0.267 C 
ATOM     12  O   UNL     1       2.004   7.337  19.897  0.00  0.00    -0.268 OA
ATOM     13  N   UNL     1       2.520   8.395  17.859  0.00  0.00    -0.280 N 
ATOM     14  H   UNL     1       2.809   8.147  16.914  0.00  0.00    +0.155 HD
BRANCH  11  17
ATOM     15  C   UNL     1       2.895   3.784  17.841  0.00  0.00    +0.042 A 
ATOM     16  C   UNL     1       2.373   4.885  18.475  0.00  0.00    -0.010 A 
ATOM     17  C   UNL     1       3.009   6.077  18.190  0.00  0.00    +0.129 A 
ATOM     18  N   UNL     1       4.059   6.216  17.343  0.00  0.00    -0.227 NA
ATOM     19  C   UNL     1       4.524   5.089  16.783  0.00  0.00    +0.133 A 
ATOM     20  N   UNL     1       3.940   3.878  16.984  0.00  0.00    -0.237 NA
ATOM     21  H   UNL     1       1.520   4.832  19.144  0.00  0.00    +0.066 HD
BRANCH  19  22
ATOM     22  C   UNL     1       5.760   5.216  15.912  0.00  0.00    +0.019 C 
ATOM     23  C   UNL     1       5.744   4.759  14.468  0.00  0.00    -0.043 C 
ATOM     24  C   UNL     1       6.562   4.006  15.486  0.00  0.00    -0.043 C 
ATOM     25  H   UNL     1       6.341   6.115  16.106  0.00  0.00    +0.038 HD
ATOM     26  H   UNL     1       6.262   5.372  13.739  0.00  0.00    +0.027 HD
ATOM     27  H   UNL     1       4.856   4.269  14.075  0.00  0.00    +0.027 HD
ATOM     28  H   UNL     1       7.646   4.101  15.479  0.00  0.00    +0.027 HD
ATOM     29  H   UNL     1       6.212   3.021  15.791  0.00  0.00    +0.027 HD
ENDBRANCH  19  22
BRANCH  15  30
ATOM     30  C   UNL     1       2.292   2.432  18.047  0.00  0.00    -0.022 C 
ATOM     31  H   UNL     1       2.924   1.651  17.611  0.00  0.00    +0.029 HD
ATOM     32  H   UNL     1       1.300   2.365  17.578  0.00  0.00    +0.029 HD
ATOM     33  H   UNL     1       2.187   2.249  19.123  0.00  0.00    +0.029 HD
ENDBRANCH  15  30
ENDBRANCH  11  17
ENDBRANCH   1  13
BRANCH   5  34
ATOM     34  C   UNL     1      -1.133  11.289  19.437  0.00  0.00    -0.013 C 
ATOM     35  H   UNL     1      -1.544  12.269  19.156  0.00  0.00    +0.035 HD
BRANCH  34  36
ATOM     36  C   UNL     1      -1.056  11.271  20.969  0.00  0.00    -0.058 C 
ATOM     37  H   UNL     1      -2.016  10.979  21.405  0.00  0.00    +0.024 HD
ATOM     38  H   UNL     1      -0.799  12.260  21.358  0.00  0.00    +0.024 HD
ATOM     39  H   UNL     1      -0.297  10.569  21.334  0.00  0.00    +0.024 HD
ENDBRANCH  34  36
BRANCH  34  40
ATOM     40  C   UNL     1      -2.056  10.178  18.884  0.00  0.00    +0.004 C 
ATOM     41  H   UNL     1      -2.495   9.613  19.717  0.00  0.00    +0.034 HD
ATOM     42  H   UNL     1      -1.465   9.458  18.300  0.00  0.00    +0.034 HD
BRANCH  40  43
ATOM     43  C   UNL     1      -3.125  10.701  17.977  0.00  0.00    +0.095 C 
ATOM     44  N   UNL     1      -4.377  10.931  18.340  0.00  0.00    -0.147 NA
ATOM     45  N   UNL     1      -5.147  11.444  17.302  0.00  0.00    -0.150 NA
ATOM     46  C   UNL     1      -4.443  11.581  16.196  0.00  0.00    +0.081 C 
ATOM     47  S   UNL     1      -2.825  11.133  16.388  0.00  0.00    -0.094 S 
ATOM     48 CL   UNL     1      -2.876   9.473  15.321  0.00  0.00    -0.057 Cl
ATOM     49  H   UNL     1      -4.862  11.984  15.279  0.00  0.00    +0.092 HD
ATOM     50  H   UNL     1      -2.195  12.281  16.032  0.00  0.00    +0.109 HD
ENDBRANCH  40  43
ENDBRANCH  34  40
ENDBRANCH   5  34
TORSDOF 8
ENDMDL
MODEL 27
REMARK VINA RESULT:    -6.645      3.076      4.017
REMARK INTER + INTRA:         -10.143
REMARK INTER:                  -9.231
REMARK INTRA:                  -0.912
REMARK UNBOUND:                -0.779
REMARK  Name = 
REMARK  8 active torsions:
REMARK  status: ('A' for Active; 'I' for Inactive)
REMARK    1  A    between atoms: C_1  and  C_2
REMARK    2  A    between atoms: C_4  and  C_11
REMARK    3  A    between atoms: C_6  and  C_8
REMARK    4  A    between atoms: N_13  and  C_14
REMARK    5  A    between atoms: C_18  and  C_20
REMARK    6  A    between atoms: C_20  and  C_21
REMARK    7  A    between atoms: C_20  and  C_22
REMARK    8  A    between atoms: C_22  and  C_23
REMARK                            x       y       z     vdW  Elec       q    Type
REMARK                         _______ _______ _______ _____ _____    ______ ____
ROOT
ATOM      1  C   UNL     1       1.944   7.716  20.013  0.00  0.00    +0.034 A 
ATOM      2  C   UNL     1       1.271   7.285  21.159  0.00  0.00    -0.040 A 
ATOM      3  C   UNL     1       0.168   8.000  21.628  0.00  0.00    -0.060 A 
ATOM      4  C   UNL     1      -0.277   9.143  20.956  0.00  0.00    -0.058 A 
ATOM      5  C   UNL     1       0.382   9.590  19.805  0.00  0.00    -0.042 A 
ATOM      6  C   UNL     1       1.504   8.875  19.351  0.00  0.00    -0.037 A 
ATOM      7  H   UNL     1       1.604   6.410  21.718  0.00  0.00    +0.064 HD
ATOM      8  H   UNL     1      -0.351   7.654  22.519  0.00  0.00    +0.062 HD
ATOM      9  H   UNL     1      -1.146   9.669  21.342  0.00  0.00    +0.062 HD
ATOM     10  H   UNL     1       2.017   9.207  18.446  0.00  0.00    +0.064 HD
ENDROOT
BRANCH   1  13
ATOM     11  C   UNL     1       3.069   6.020  18.554  0.00  0.00    +0.267 C 
ATOM     12  O   UNL     1       2.112   5.507  17.981  0.00  0.00    -0.268 OA
ATOM     13  N   UNL     1       3.063   7.056  19.477  0.00  0.00    -0.280 N 
ATOM     14  H   UNL     1       3.977   7.445  19.705  0.00  0.00    +0.155 HD
BRANCH  11  17
ATOM     15  C   UNL     1       6.710   5.352  18.656  0.00  0.00    +0.042 A 
ATOM     16  C   UNL     1       5.492   5.847  19.055  0.00  0.00    -0.010 A 
ATOM     17  C   UNL     1       4.449   5.594  18.186  0.00  0.00    +0.129 A 
ATOM     18  N   UNL     1       4.553   4.900  17.026  0.00  0.00    -0.227 NA
ATOM     19  C   UNL     1       5.781   4.472  16.698  0.00  0.00    +0.133 A 
ATOM     20  N   UNL     1       6.858   4.650  17.508  0.00  0.00    -0.237 NA
ATOM     21  H   UNL     1       5.351   6.389  19.985  0.00  0.00    +0.066 HD
BRANCH  19  22
ATOM     22  C   UNL     1       5.929   3.781  15.355  0.00  0.00    +0.019 C 
ATOM     23  C   UNL     1       6.813   4.366  14.272  0.00  0.00    -0.043 C 
ATOM     24  C   UNL     1       5.317   4.352  14.094  0.00  0.00    -0.043 C 
ATOM     25  H   UNL     1       5.933   2.695  15.419  0.00  0.00    +0.038 HD
ATOM     26  H   UNL     1       7.412   3.679  13.684  0.00  0.00    +0.027 HD
ATOM     27  H   UNL     1       7.292   5.329  14.438  0.00  0.00    +0.027 HD
ATOM     28  H   UNL     1       4.867   3.651  13.394  0.00  0.00    +0.027 HD
ATOM     29  H   UNL     1       4.789   5.302  14.160  0.00  0.00    +0.027 HD
ENDBRANCH  19  22
BRANCH  15  30
ATOM     30  C   UNL     1       7.923   5.540  19.510  0.00  0.00    -0.022 C 
ATOM     31  H   UNL     1       8.837   5.477  18.910  0.00  0.00    +0.029 HD
ATOM     32  H   UNL     1       7.978   4.771  20.294  0.00  0.00    +0.029 HD
ATOM     33  H   UNL     1       7.873   6.526  19.986  0.00  0.00    +0.029 HD
ENDBRANCH  15  30
ENDBRANCH  11  17
ENDBRANCH   1  13
BRANCH   5  34
ATOM     34  C   UNL     1      -0.112  10.784  18.998  0.00  0.00    -0.013 C 
ATOM     35  H   UNL     1      -0.745  11.397  19.655  0.00  0.00    +0.035 HD
BRANCH  34  36
ATOM     36  C   UNL     1      -0.997  10.344  17.825  0.00  0.00    -0.058 C 
ATOM     37  H   UNL     1      -1.501   9.399  18.048  0.00  0.00    +0.024 HD
ATOM     38  H   UNL     1      -0.401  10.200  16.920  0.00  0.00    +0.024 HD
ATOM     39  H   UNL     1      -1.771  11.086  17.593  0.00  0.00    +0.024 HD
ENDBRANCH  34  36
BRANCH  34  40
ATOM     40  C   UNL     1       1.097  11.628  18.534  0.00  0.00    +0.004 C 
ATOM     41  H   UNL     1       0.941  11.963  17.500  0.00  0.00    +0.034 HD
ATOM     42  H   UNL     1       2.004  11.007  18.523  0.00  0.00    +0.034 HD
BRANCH  40  43
ATOM     43  C   UNL     1       1.378  12.793  19.431  0.00  0.00    +0.095 C 
ATOM     44  N   UNL     1       2.579  13.305  19.647  0.00  0.00    -0.147 NA
ATOM     45  N   UNL     1       2.543  14.404  20.501  0.00  0.00    -0.150 NA
ATOM     46  C   UNL     1       1.314  14.674  20.893  0.00  0.00    +0.081 C 
ATOM     47  S   UNL     1       0.165  13.640  20.212  0.00  0.00    -0.094 S 
ATOM     48 CL   UNL     1      -0.285  12.624  21.845  0.00  0.00    -0.057 Cl
ATOM     49  H   UNL     1       1.077  15.508  21.548  0.00  0.00    +0.092 HD
ATOM     50  H   UNL     1      -0.647  14.530  19.588  0.00  0.00    +0.109 HD
ENDBRANCH  40  43
ENDBRANCH  34  40
ENDBRANCH   5  34
TORSDOF 8
ENDMDL
MODEL 28
REMARK VINA RESULT:    -6.644      3.245      4.270
REMARK INTER + INTRA:         -10.143
REMARK INTER:                  -9.215
REMARK INTRA:                  -0.927
REMARK UNBOUND:                -0.779
REMARK  Name = 
REMARK  8 active torsions:
REMARK  status: ('A' for Active; 'I' for Inactive)
REMARK    1  A    between atoms: C_1  and  C_2
REMARK    2  A    between atoms: C_4  and  C_11
REMARK    3  A    between atoms: C_6  and  C_8
REMARK    4  A    between atoms: N_13  and  C_14
REMARK    5  A    between atoms: C_18  and  C_20
REMARK    6  A    between atoms: C_20  and  C_21
REMARK    7  A    between atoms: C_20  and  C_22
REMARK    8  A    between atoms: C_22  and  C_23
REMARK                            x       y       z     vdW  Elec       q    Type
REMARK                         _______ _______ _______ _____ _____    ______ ____
ROOT
ATOM      1  C   UNL     1      -0.606   9.943  18.203  0.00  0.00    +0.034 A 
ATOM      2  C   UNL     1      -1.553   9.971  17.177  0.00  0.00    -0.040 A 
ATOM      3  C   UNL     1      -2.555  10.944  17.180  0.00  0.00    -0.060 A 
ATOM      4  C   UNL     1      -2.615  11.899  18.199  0.00  0.00    -0.058 A 
ATOM      5  C   UNL     1      -1.674  11.890  19.236  0.00  0.00    -0.042 A 
ATOM      6  C   UNL     1      -0.681  10.894  19.235  0.00  0.00    -0.037 A 
ATOM      7  H   UNL     1      -1.547   9.229  16.378  0.00  0.00    +0.064 HD
ATOM      8  H   UNL     1      -3.285  10.958  16.375  0.00  0.00    +0.062 HD
ATOM      9  H   UNL     1      -3.401  12.649  18.165  0.00  0.00    +0.062 HD
ATOM     10  H   UNL     1       0.066  10.887  20.031  0.00  0.00    +0.064 HD
ENDROOT
BRANCH   1  13
ATOM     11  C   UNL     1       1.782   9.208  18.037  0.00  0.00    +0.267 C 
ATOM     12  O   UNL     1       2.351  10.262  17.767  0.00  0.00    -0.268 OA
ATOM     13  N   UNL     1       0.432   8.998  18.276  0.00  0.00    -0.280 N 
ATOM     14  H   UNL     1       0.190   8.080  18.646  0.00  0.00    +0.155 HD
BRANCH  11  17
ATOM     15  C   UNL     1       3.022   5.966  19.326  0.00  0.00    +0.042 A 
ATOM     16  C   UNL     1       2.255   7.104  19.262  0.00  0.00    -0.010 A 
ATOM     17  C   UNL     1       2.595   7.977  18.247  0.00  0.00    +0.129 A 
ATOM     18  N   UNL     1       3.584   7.772  17.343  0.00  0.00    -0.227 NA
ATOM     19  C   UNL     1       4.301   6.648  17.491  0.00  0.00    +0.133 A 
ATOM     20  N   UNL     1       4.017   5.720  18.442  0.00  0.00    -0.237 NA
ATOM     21  H   UNL     1       1.437   7.304  19.946  0.00  0.00    +0.066 HD
BRANCH  19  22
ATOM     22  C   UNL     1       5.475   6.456  16.548  0.00  0.00    +0.019 C 
ATOM     23  C   UNL     1       5.379   5.508  15.370  0.00  0.00    -0.043 C 
ATOM     24  C   UNL     1       6.280   5.174  16.531  0.00  0.00    -0.043 C 
ATOM     25  H   UNL     1       6.043   7.365  16.365  0.00  0.00    +0.038 HD
ATOM     26  H   UNL     1       5.831   5.818  14.435  0.00  0.00    +0.027 HD
ATOM     27  H   UNL     1       4.480   4.908  15.242  0.00  0.00    +0.027 HD
ATOM     28  H   UNL     1       7.358   5.263  16.414  0.00  0.00    +0.027 HD
ATOM     29  H   UNL     1       5.977   4.365  17.193  0.00  0.00    +0.027 HD
ENDBRANCH  19  22
BRANCH  15  30
ATOM     30  C   UNL     1       2.753   4.927  20.368  0.00  0.00    -0.022 C 
ATOM     31  H   UNL     1       2.714   5.375  21.366  0.00  0.00    +0.029 HD
ATOM     32  H   UNL     1       3.538   4.157  20.372  0.00  0.00    +0.029 HD
ATOM     33  H   UNL     1       1.791   4.448  20.152  0.00  0.00    +0.029 HD
ENDBRANCH  15  30
ENDBRANCH  11  17
ENDBRANCH   1  13
BRANCH   5  34
ATOM     34  C   UNL     1      -1.655  12.955  20.325  0.00  0.00    -0.013 C 
ATOM     35  H   UNL     1      -2.611  13.495  20.286  0.00  0.00    +0.035 HD
BRANCH  34  36
ATOM     36  C   UNL     1      -0.555  13.995  20.077  0.00  0.00    -0.058 C 
ATOM     37  H   UNL     1      -0.987  14.973  19.844  0.00  0.00    +0.024 HD
ATOM     38  H   UNL     1       0.077  13.701  19.235  0.00  0.00    +0.024 HD
ATOM     39  H   UNL     1       0.098  14.119  20.949  0.00  0.00    +0.024 HD
ENDBRANCH  34  36
BRANCH  34  40
ATOM     40  C   UNL     1      -1.516  12.276  21.707  0.00  0.00    +0.004 C 
ATOM     41  H   UNL     1      -0.605  12.633  22.206  0.00  0.00    +0.034 HD
ATOM     42  H   UNL     1      -1.392  11.191  21.580  0.00  0.00    +0.034 HD
BRANCH  40  43
ATOM     43  C   UNL     1      -2.713  12.477  22.583  0.00  0.00    +0.095 C 
ATOM     44  N   UNL     1      -2.899  11.888  23.753  0.00  0.00    -0.147 NA
ATOM     45  N   UNL     1      -4.085  12.282  24.365  0.00  0.00    -0.150 NA
ATOM     46  C   UNL     1      -4.745  13.154  23.629  0.00  0.00    +0.081 C 
ATOM     47  S   UNL     1      -3.936  13.554  22.201  0.00  0.00    -0.094 S 
ATOM     48 CL   UNL     1      -5.143  12.629  20.940  0.00  0.00    -0.057 Cl
ATOM     49  H   UNL     1      -5.686  13.596  23.944  0.00  0.00    +0.092 HD
ATOM     50  H   UNL     1      -3.818  14.899  22.337  0.00  0.00    +0.109 HD
ENDBRANCH  40  43
ENDBRANCH  34  40
ENDBRANCH   5  34
TORSDOF 8
ENDMDL
MODEL 29
REMARK VINA RESULT:    -6.579      4.071      9.005
REMARK INTER + INTRA:         -10.051
REMARK INTER:                  -9.680
REMARK INTRA:                  -0.371
REMARK UNBOUND:                -0.779
REMARK  Name = 
REMARK  8 active torsions:
REMARK  status: ('A' for Active; 'I' for Inactive)
REMARK    1  A    between atoms: C_1  and  C_2
REMARK    2  A    between atoms: C_4  and  C_11
REMARK    3  A    between atoms: C_6  and  C_8
REMARK    4  A    between atoms: N_13  and  C_14
REMARK    5  A    between atoms: C_18  and  C_20
REMARK    6  A    between atoms: C_20  and  C_21
REMARK    7  A    between atoms: C_20  and  C_22
REMARK    8  A    between atoms: C_22  and  C_23
REMARK                            x       y       z     vdW  Elec       q    Type
REMARK                         _______ _______ _______ _____ _____    ______ ____
ROOT
ATOM      1  C   UNL     1       1.817   7.165  19.838  0.00  0.00    +0.034 A 
ATOM      2  C   UNL     1       1.397   6.338  20.881  0.00  0.00    -0.040 A 
ATOM      3  C   UNL     1       1.634   4.963  20.818  0.00  0.00    -0.060 A 
ATOM      4  C   UNL     1       2.298   4.406  19.721  0.00  0.00    -0.058 A 
ATOM      5  C   UNL     1       2.730   5.218  18.666  0.00  0.00    -0.042 A 
ATOM      6  C   UNL     1       2.469   6.599  18.729  0.00  0.00    -0.037 A 
ATOM      7  H   UNL     1       0.858   6.737  21.741  0.00  0.00    +0.064 HD
ATOM      8  H   UNL     1       1.304   4.329  21.637  0.00  0.00    +0.062 HD
ATOM      9  H   UNL     1       2.476   3.334  19.710  0.00  0.00    +0.062 HD
ATOM     10  H   UNL     1       2.815   7.243  17.918  0.00  0.00    +0.064 HD
ENDROOT
BRANCH   1  13
ATOM     11  C   UNL     1       1.391   9.363  18.716  0.00  0.00    +0.267 C 
ATOM     12  O   UNL     1       1.267   9.026  17.541  0.00  0.00    -0.268 OA
ATOM     13  N   UNL     1       1.617   8.557  19.821  0.00  0.00    -0.280 N 
ATOM     14  H   UNL     1       1.521   9.016  20.726  0.00  0.00    +0.155 HD
BRANCH  11  17
ATOM     15  C   UNL     1       1.663  13.053  18.865  0.00  0.00    +0.042 A 
ATOM     16  C   UNL     1       1.979  11.764  18.512  0.00  0.00    -0.010 A 
ATOM     17  C   UNL     1       1.185  10.792  19.087  0.00  0.00    +0.129 A 
ATOM     18  N   UNL     1       0.146  11.031  19.925  0.00  0.00    -0.227 NA
ATOM     19  C   UNL     1      -0.081  12.315  20.238  0.00  0.00    +0.133 A 
ATOM     20  N   UNL     1       0.632  13.337  19.695  0.00  0.00    -0.237 NA
ATOM     21  H   UNL     1       2.786  11.520  17.827  0.00  0.00    +0.066 HD
BRANCH  19  22
ATOM     22  C   UNL     1      -1.176  12.589  21.252  0.00  0.00    +0.019 C 
ATOM     23  C   UNL     1      -0.842  13.092  22.642  0.00  0.00    -0.043 C 
ATOM     24  C   UNL     1      -1.385  11.698  22.458  0.00  0.00    -0.043 C 
ATOM     25  H   UNL     1      -2.083  13.002  20.817  0.00  0.00    +0.038 HD
ATOM     26  H   UNL     1      -1.488  13.848  23.074  0.00  0.00    +0.027 HD
ATOM     27  H   UNL     1       0.202  13.191  22.935  0.00  0.00    +0.027 HD
ATOM     28  H   UNL     1      -2.411  11.481  22.748  0.00  0.00    +0.027 HD
ATOM     29  H   UNL     1      -0.703  10.864  22.608  0.00  0.00    +0.027 HD
ENDBRANCH  19  22
BRANCH  15  30
ATOM     30  C   UNL     1       2.433  14.205  18.303  0.00  0.00    -0.022 C 
ATOM     31  H   UNL     1       3.510  14.048  18.418  0.00  0.00    +0.029 HD
ATOM     32  H   UNL     1       2.171  15.143  18.814  0.00  0.00    +0.029 HD
ATOM     33  H   UNL     1       2.196  14.306  17.238  0.00  0.00    +0.029 HD
ENDBRANCH  15  30
ENDBRANCH  11  17
ENDBRANCH   1  13
BRANCH   5  34
ATOM     34  C   UNL     1       3.524   4.667  17.488  0.00  0.00    -0.013 C 
ATOM     35  H   UNL     1       2.807   4.309  16.736  0.00  0.00    +0.035 HD
BRANCH  34  36
ATOM     36  C   UNL     1       4.370   3.454  17.897  0.00  0.00    -0.058 C 
ATOM     37  H   UNL     1       5.191   3.294  17.191  0.00  0.00    +0.024 HD
ATOM     38  H   UNL     1       3.763   2.545  17.917  0.00  0.00    +0.024 HD
ATOM     39  H   UNL     1       4.808   3.577  18.895  0.00  0.00    +0.024 HD
ENDBRANCH  34  36
BRANCH  34  40
ATOM     40  C   UNL     1       4.380   5.796  16.871  0.00  0.00    +0.004 C 
ATOM     41  H   UNL     1       4.828   6.402  17.670  0.00  0.00    +0.034 HD
ATOM     42  H   UNL     1       3.740   6.476  16.291  0.00  0.00    +0.034 HD
BRANCH  40  43
ATOM     43  C   UNL     1       5.435   5.290  15.937  0.00  0.00    +0.095 C 
ATOM     44  N   UNL     1       5.200   4.558  14.860  0.00  0.00    -0.147 NA
ATOM     45  N   UNL     1       6.363   4.254  14.159  0.00  0.00    -0.150 NA
ATOM     46  C   UNL     1       7.429   4.769  14.739  0.00  0.00    +0.081 C 
ATOM     47  S   UNL     1       7.054   5.668  16.120  0.00  0.00    -0.094 S 
ATOM     48 CL   UNL     1       7.789   4.420  17.462  0.00  0.00    -0.057 Cl
ATOM     49  H   UNL     1       8.430   4.658  14.333  0.00  0.00    +0.092 HD
ATOM     50  H   UNL     1       7.581   6.875  15.793  0.00  0.00    +0.109 HD
ENDBRANCH  40  43
ENDBRANCH  34  40
ENDBRANCH   5  34
TORSDOF 8
ENDMDL
MODEL 30
REMARK VINA RESULT:    -6.536      3.284      8.813
REMARK INTER + INTRA:          -9.989
REMARK INTER:                  -9.210
REMARK INTRA:                  -0.779
REMARK UNBOUND:                -0.779
REMARK  Name = 
REMARK  8 active torsions:
REMARK  status: ('A' for Active; 'I' for Inactive)
REMARK    1  A    between atoms: C_1  and  C_2
REMARK    2  A    between atoms: C_4  and  C_11
REMARK    3  A    between atoms: C_6  and  C_8
REMARK    4  A    between atoms: N_13  and  C_14
REMARK    5  A    between atoms: C_18  and  C_20
REMARK    6  A    between atoms: C_20  and  C_21
REMARK    7  A    between atoms: C_20  and  C_22
REMARK    8  A    between atoms: C_22  and  C_23
REMARK                            x       y       z     vdW  Elec       q    Type
REMARK                         _______ _______ _______ _____ _____    ______ ____
ROOT
ATOM      1  C   UNL     1       2.976   7.719  17.549  0.00  0.00    +0.034 A 
ATOM      2  C   UNL     1       4.324   8.062  17.413  0.00  0.00    -0.040 A 
ATOM      3  C   UNL     1       5.293   7.059  17.340  0.00  0.00    -0.060 A 
ATOM      4  C   UNL     1       4.926   5.711  17.394  0.00  0.00    -0.058 A 
ATOM      5  C   UNL     1       3.580   5.346  17.527  0.00  0.00    -0.042 A 
ATOM      6  C   UNL     1       2.614   6.364  17.619  0.00  0.00    -0.037 A 
ATOM      7  H   UNL     1       4.645   9.103  17.389  0.00  0.00    +0.064 HD
ATOM      8  H   UNL     1       6.338   7.336  17.232  0.00  0.00    +0.062 HD
ATOM      9  H   UNL     1       5.704   4.955  17.323  0.00  0.00    +0.062 HD
ATOM     10  H   UNL     1       1.561   6.090  17.709  0.00  0.00    +0.064 HD
ENDROOT
BRANCH   1  13
ATOM     11  C   UNL     1       1.317   9.136  18.777  0.00  0.00    +0.267 C 
ATOM     12  O   UNL     1       1.574   8.867  19.948  0.00  0.00    -0.268 OA
ATOM     13  N   UNL     1       1.940   8.665  17.631  0.00  0.00    -0.280 N 
ATOM     14  H   UNL     1       1.684   9.140  16.767  0.00  0.00    +0.155 HD
BRANCH  11  17
ATOM     15  C   UNL     1      -0.482  12.359  18.484  0.00  0.00    +0.042 A 
ATOM     16  C   UNL     1       0.497  11.474  18.867  0.00  0.00    -0.010 A 
ATOM     17  C   UNL     1       0.282  10.166  18.480  0.00  0.00    +0.129 A 
ATOM     18  N   UNL     1      -0.781   9.732  17.761  0.00  0.00    -0.227 NA
ATOM     19  C   UNL     1      -1.704  10.654  17.448  0.00  0.00    +0.133 A 
ATOM     20  N   UNL     1      -1.559  11.969  17.762  0.00  0.00    -0.237 NA
ATOM     21  H   UNL     1       1.379  11.775  19.423  0.00  0.00    +0.066 HD
BRANCH  19  22
ATOM     22  C   UNL     1      -2.947  10.163  16.730  0.00  0.00    +0.019 C 
ATOM     23  C   UNL     1      -3.046  10.218  15.219  0.00  0.00    -0.043 C 
ATOM     24  C   UNL     1      -3.912  11.120  16.062  0.00  0.00    -0.043 C 
ATOM     25  H   UNL     1      -3.403   9.290  17.192  0.00  0.00    +0.038 HD
ATOM     26  H   UNL     1      -3.510   9.380  14.713  0.00  0.00    +0.027 HD
ATOM     27  H   UNL     1      -2.243  10.681  14.650  0.00  0.00    +0.027 HD
ATOM     28  H   UNL     1      -4.974  10.906  16.158  0.00  0.00    +0.027 HD
ATOM     29  H   UNL     1      -3.677  12.182  16.075  0.00  0.00    +0.027 HD
ENDBRANCH  19  22
BRANCH  15  30
ATOM     30  C   UNL     1      -0.369  13.811  18.823  0.00  0.00    -0.022 C 
ATOM     31  H   UNL     1       0.544  14.241  18.399  0.00  0.00    +0.029 HD
ATOM     32  H   UNL     1      -0.340  13.962  19.912  0.00  0.00    +0.029 HD
ATOM     33  H   UNL     1      -1.238  14.340  18.417  0.00  0.00    +0.029 HD
ENDBRANCH  15  30
ENDBRANCH  11  17
ENDBRANCH   1  13
BRANCH   5  34
ATOM     34  C   UNL     1       3.127   3.892  17.513  0.00  0.00    -0.013 C 
ATOM     35  H   UNL     1       3.484   3.436  16.579  0.00  0.00    +0.035 HD
BRANCH  34  36
ATOM     36  C   UNL     1       1.598   3.777  17.498  0.00  0.00    -0.058 C 
ATOM     37  H   UNL     1       1.163   4.234  18.392  0.00  0.00    +0.024 HD
ATOM     38  H   UNL     1       1.286   2.730  17.472  0.00  0.00    +0.024 HD
ATOM     39  H   UNL     1       1.157   4.272  16.624  0.00  0.00    +0.024 HD
ENDBRANCH  34  36
BRANCH  34  40
ATOM     40  C   UNL     1       3.759   3.145  18.710  0.00  0.00    +0.004 C 
ATOM     41  H   UNL     1       4.672   3.663  19.031  0.00  0.00    +0.034 HD
ATOM     42  H   UNL     1       4.070   2.137  18.400  0.00  0.00    +0.034 HD
BRANCH  40  43
ATOM     43  C   UNL     1       2.815   2.975  19.860  0.00  0.00    +0.095 C 
ATOM     44  N   UNL     1       1.969   1.967  19.998  0.00  0.00    -0.147 NA
ATOM     45  N   UNL     1       1.235   2.047  21.177  0.00  0.00    -0.150 NA
ATOM     46  C   UNL     1       1.557   3.114  21.880  0.00  0.00    +0.081 C 
ATOM     47  S   UNL     1       2.783   4.028  21.160  0.00  0.00    -0.094 S 
ATOM     48 CL   UNL     1       1.683   5.576  20.620  0.00  0.00    -0.057 Cl
ATOM     49  H   UNL     1       1.107   3.343  22.842  0.00  0.00    +0.092 HD
ATOM     50  H   UNL     1       3.718   4.029  22.144  0.00  0.00    +0.109 HD
ENDBRANCH  40  43
ENDBRANCH  34  40
ENDBRANCH   5  34
TORSDOF 8
ENDMDL
