MODEL 1
REMARK VINA RESULT:    -5.926      0.000      0.000
REMARK INTER + INTRA:          -7.934
REMARK INTER:                  -7.596
REMARK INTRA:                  -0.338
REMARK UNBOUND:                -0.449
REMARK  Name = 
REMARK  6 active torsions:
REMARK  status: ('A' for Active; 'I' for Inactive)
REMARK    1  A    between atoms: C_1  and  C_2
REMARK    2  A    between atoms: C_2  and  C_3
REMARK    3  A    between atoms: C_2  and  N_4
REMARK    4  A    between atoms: N_4  and  C_5
REMARK    5  A    between atoms: N_4  and  C_6
REMARK    6  A    between atoms: C_6  and  C_7
REMARK                            x       y       z     vdW  Elec       q    Type
REMARK                         _______ _______ _______ _____ _____    ______ ____
ROOT
ATOM      1  C   UNL     1       5.128   4.531  17.204  0.00  0.00    +0.026 C 
ATOM      2  H   UNL     1       5.910   3.879  17.605  0.00  0.00    +0.048 HD
ATOM      3  H   UNL     1       4.653   3.976  16.387  0.00  0.00    +0.048 HD
ENDROOT
BRANCH   1   4
ATOM      4  C   UNL     1       4.172   4.767  18.338  0.00  0.00    -0.008 A 
ATOM      5  C   UNL     1       4.269   5.751  19.306  0.00  0.00    +0.007 A 
ATOM      6  N   UNL     1       3.211   5.628  20.160  0.00  0.00    -0.360 N 
ATOM      7  C   UNL     1       2.418   4.568  19.785  0.00  0.00    +0.047 A 
ATOM      8  C   UNL     1       1.244   4.073  20.366  0.00  0.00    -0.038 A 
ATOM      9  C   UNL     1       0.640   2.967  19.764  0.00  0.00    -0.060 A 
ATOM     10  C   UNL     1       1.188   2.381  18.626  0.00  0.00    -0.061 A 
ATOM     11  C   UNL     1       2.362   2.890  18.058  0.00  0.00    -0.052 A 
ATOM     12  C   UNL     1       2.995   4.006  18.645  0.00  0.00    +0.004 A 
ATOM     13  H   UNL     1       5.004   6.534  19.439  0.00  0.00    +0.081 HD
ATOM     14  H   UNL     1       3.030   6.226  20.953  0.00  0.00    +0.165 HD
ATOM     15  H   UNL     1       0.814   4.527  21.251  0.00  0.00    +0.064 HD
ATOM     16  H   UNL     1      -0.274   2.557  20.190  0.00  0.00    +0.062 HD
ATOM     17  H   UNL     1       0.702   1.522  18.172  0.00  0.00    +0.062 HD
ATOM     18  H   UNL     1       2.778   2.425  17.169  0.00  0.00    +0.062 HD
ENDBRANCH   1   4
BRANCH   1  19
ATOM     19  N   UNL     1       5.684   5.813  16.711  0.00  0.00    -0.299 NA
BRANCH  19  20
ATOM     20  C   UNL     1       5.329   5.986  15.295  0.00  0.00    -0.012 C 
ATOM     21  H   UNL     1       5.458   7.027  14.981  0.00  0.00    +0.039 HD
ATOM     22  H   UNL     1       4.273   5.767  15.106  0.00  0.00    +0.039 HD
ATOM     23  H   UNL     1       5.930   5.342  14.642  0.00  0.00    +0.039 HD
ENDBRANCH  19  20
BRANCH  19  24
ATOM     24  C   UNL     1       7.149   5.889  16.945  0.00  0.00    +0.005 C 
ATOM     25  H   UNL     1       7.673   5.954  15.982  0.00  0.00    +0.046 HD
BRANCH  24  26
ATOM     26  C   UNL     1       7.646   4.636  17.691  0.00  0.00    -0.050 C 
ATOM     27  H   UNL     1       8.734   4.613  17.793  0.00  0.00    +0.024 HD
ATOM     28  H   UNL     1       7.333   3.720  17.177  0.00  0.00    +0.024 HD
ATOM     29  H   UNL     1       7.240   4.604  18.707  0.00  0.00    +0.024 HD
ENDBRANCH  24  26
BRANCH  24  30
ATOM     30  C   UNL     1       7.581   7.108  17.780  0.00  0.00    -0.050 C 
ATOM     31  H   UNL     1       8.638   7.349  17.629  0.00  0.00    +0.024 HD
ATOM     32  H   UNL     1       6.984   7.993  17.535  0.00  0.00    +0.024 HD
ATOM     33  H   UNL     1       7.458   6.910  18.851  0.00  0.00    +0.024 HD
ENDBRANCH  24  30
ENDBRANCH  19  24
ENDBRANCH   1  19
TORSDOF 6
ENDMDL
MODEL 2
REMARK VINA RESULT:    -5.893      1.505      5.477
REMARK INTER + INTRA:          -7.893
REMARK INTER:                  -7.560
REMARK INTRA:                  -0.333
REMARK UNBOUND:                -0.449
REMARK  Name = 
REMARK  6 active torsions:
REMARK  status: ('A' for Active; 'I' for Inactive)
REMARK    1  A    between atoms: C_1  and  C_2
REMARK    2  A    between atoms: C_2  and  C_3
REMARK    3  A    between atoms: C_2  and  N_4
REMARK    4  A    between atoms: N_4  and  C_5
REMARK    5  A    between atoms: N_4  and  C_6
REMARK    6  A    between atoms: C_6  and  C_7
REMARK                            x       y       z     vdW  Elec       q    Type
REMARK                         _______ _______ _______ _____ _____    ______ ____
ROOT
ATOM      1  C   UNL     1       2.727   4.346  18.378  0.00  0.00    +0.026 C 
ATOM      2  H   UNL     1       2.376   5.279  18.830  0.00  0.00    +0.048 HD
ATOM      3  H   UNL     1       2.283   4.303  17.377  0.00  0.00    +0.048 HD
ENDROOT
BRANCH   1   4
ATOM      4  C   UNL     1       4.223   4.463  18.312  0.00  0.00    -0.008 A 
ATOM      5  C   UNL     1       5.089   4.570  19.386  0.00  0.00    +0.007 A 
ATOM      6  N   UNL     1       6.365   4.662  18.909  0.00  0.00    -0.360 N 
ATOM      7  C   UNL     1       6.362   4.634  17.534  0.00  0.00    +0.047 A 
ATOM      8  C   UNL     1       7.429   4.707  16.630  0.00  0.00    -0.038 A 
ATOM      9  C   UNL     1       7.129   4.653  15.267  0.00  0.00    -0.060 A 
ATOM     10  C   UNL     1       5.813   4.530  14.827  0.00  0.00    -0.061 A 
ATOM     11  C   UNL     1       4.759   4.458  15.745  0.00  0.00    -0.052 A 
ATOM     12  C   UNL     1       5.032   4.511  17.128  0.00  0.00    +0.004 A 
ATOM     13  H   UNL     1       4.890   4.573  20.450  0.00  0.00    +0.081 HD
ATOM     14  H   UNL     1       7.195   4.739  19.479  0.00  0.00    +0.165 HD
ATOM     15  H   UNL     1       8.455   4.800  16.969  0.00  0.00    +0.064 HD
ATOM     16  H   UNL     1       7.935   4.706  14.538  0.00  0.00    +0.062 HD
ATOM     17  H   UNL     1       5.600   4.489  13.762  0.00  0.00    +0.062 HD
ATOM     18  H   UNL     1       3.738   4.361  15.388  0.00  0.00    +0.062 HD
ENDBRANCH   1   4
BRANCH   1  19
ATOM     19  N   UNL     1       2.328   3.166  19.179  0.00  0.00    -0.299 NA
BRANCH  19  20
ATOM     20  C   UNL     1       1.875   2.096  18.279  0.00  0.00    -0.012 C 
ATOM     21  H   UNL     1       1.446   1.261  18.842  0.00  0.00    +0.039 HD
ATOM     22  H   UNL     1       2.703   1.655  17.715  0.00  0.00    +0.039 HD
ATOM     23  H   UNL     1       1.130   2.456  17.560  0.00  0.00    +0.039 HD
ENDBRANCH  19  20
BRANCH  19  24
ATOM     24  C   UNL     1       1.306   3.527  20.196  0.00  0.00    +0.005 C 
ATOM     25  H   UNL     1       0.303   3.349  19.788  0.00  0.00    +0.046 HD
BRANCH  24  26
ATOM     26  C   UNL     1       1.424   5.013  20.580  0.00  0.00    -0.050 C 
ATOM     27  H   UNL     1       0.941   5.239  21.535  0.00  0.00    +0.024 HD
ATOM     28  H   UNL     1       0.979   5.657  19.813  0.00  0.00    +0.024 HD
ATOM     29  H   UNL     1       2.474   5.303  20.690  0.00  0.00    +0.024 HD
ENDBRANCH  24  26
BRANCH  24  30
ATOM     30  C   UNL     1       1.416   2.716  21.500  0.00  0.00    -0.050 C 
ATOM     31  H   UNL     1       1.392   3.363  22.383  0.00  0.00    +0.024 HD
ATOM     32  H   UNL     1       0.608   1.981  21.584  0.00  0.00    +0.024 HD
ATOM     33  H   UNL     1       2.367   2.171  21.541  0.00  0.00    +0.024 HD
ENDBRANCH  24  30
ENDBRANCH  19  24
ENDBRANCH   1  19
TORSDOF 6
ENDMDL
MODEL 3
REMARK VINA RESULT:    -5.862      1.077      1.605
REMARK INTER + INTRA:          -7.854
REMARK INTER:                  -7.368
REMARK INTRA:                  -0.485
REMARK UNBOUND:                -0.449
REMARK  Name = 
REMARK  6 active torsions:
REMARK  status: ('A' for Active; 'I' for Inactive)
REMARK    1  A    between atoms: C_1  and  C_2
REMARK    2  A    between atoms: C_2  and  C_3
REMARK    3  A    between atoms: C_2  and  N_4
REMARK    4  A    between atoms: N_4  and  C_5
REMARK    5  A    between atoms: N_4  and  C_6
REMARK    6  A    between atoms: C_6  and  C_7
REMARK                            x       y       z     vdW  Elec       q    Type
REMARK                         _______ _______ _______ _____ _____    ______ ____
ROOT
ATOM      1  C   UNL     1       4.163   6.213  17.397  0.00  0.00    +0.026 C 
ATOM      2  H   UNL     1       3.880   5.562  16.564  0.00  0.00    +0.048 HD
ATOM      3  H   UNL     1       4.015   7.242  17.047  0.00  0.00    +0.048 HD
ENDROOT
BRANCH   1   4
ATOM      4  C   UNL     1       3.223   5.873  18.518  0.00  0.00    -0.008 A 
ATOM      5  C   UNL     1       2.918   6.672  19.606  0.00  0.00    +0.007 A 
ATOM      6  N   UNL     1       2.032   6.003  20.401  0.00  0.00    -0.360 N 
ATOM      7  C   UNL     1       1.752   4.767  19.868  0.00  0.00    +0.047 A 
ATOM      8  C   UNL     1       0.912   3.751  20.341  0.00  0.00    -0.038 A 
ATOM      9  C   UNL     1       0.817   2.582  19.582  0.00  0.00    -0.060 A 
ATOM     10  C   UNL     1       1.536   2.436  18.398  0.00  0.00    -0.061 A 
ATOM     11  C   UNL     1       2.371   3.462  17.940  0.00  0.00    -0.052 A 
ATOM     12  C   UNL     1       2.486   4.654  18.685  0.00  0.00    +0.004 A 
ATOM     13  H   UNL     1       3.257   7.667  19.863  0.00  0.00    +0.081 HD
ATOM     14  H   UNL     1       1.634   6.361  21.258  0.00  0.00    +0.165 HD
ATOM     15  H   UNL     1       0.350   3.863  21.262  0.00  0.00    +0.064 HD
ATOM     16  H   UNL     1       0.173   1.774  19.922  0.00  0.00    +0.062 HD
ATOM     17  H   UNL     1       1.448   1.519  17.822  0.00  0.00    +0.062 HD
ATOM     18  H   UNL     1       2.923   3.335  17.013  0.00  0.00    +0.062 HD
ENDBRANCH   1   4
BRANCH   1  19
ATOM     19  N   UNL     1       5.570   5.997  17.807  0.00  0.00    -0.299 NA
BRANCH  19  20
ATOM     20  C   UNL     1       6.413   7.056  17.235  0.00  0.00    -0.012 C 
ATOM     21  H   UNL     1       7.002   7.555  18.011  0.00  0.00    +0.039 HD
ATOM     22  H   UNL     1       5.818   7.855  16.781  0.00  0.00    +0.039 HD
ATOM     23  H   UNL     1       7.095   6.666  16.470  0.00  0.00    +0.039 HD
ENDBRANCH  19  20
BRANCH  19  24
ATOM     24  C   UNL     1       6.035   4.635  17.436  0.00  0.00    +0.005 C 
ATOM     25  H   UNL     1       5.664   3.908  18.171  0.00  0.00    +0.046 HD
BRANCH  24  26
ATOM     26  C   UNL     1       7.573   4.572  17.415  0.00  0.00    -0.050 C 
ATOM     27  H   UNL     1       8.002   4.450  18.413  0.00  0.00    +0.024 HD
ATOM     28  H   UNL     1       8.000   5.478  16.970  0.00  0.00    +0.024 HD
ATOM     29  H   UNL     1       7.918   3.717  16.824  0.00  0.00    +0.024 HD
ENDBRANCH  24  26
BRANCH  24  30
ATOM     30  C   UNL     1       5.547   4.169  16.052  0.00  0.00    -0.050 C 
ATOM     31  H   UNL     1       4.472   4.331  15.926  0.00  0.00    +0.024 HD
ATOM     32  H   UNL     1       6.075   4.689  15.245  0.00  0.00    +0.024 HD
ATOM     33  H   UNL     1       5.716   3.094  15.921  0.00  0.00    +0.024 HD
ENDBRANCH  24  30
ENDBRANCH  19  24
ENDBRANCH   1  19
TORSDOF 6
ENDMDL
MODEL 4
REMARK VINA RESULT:    -5.851      2.369      5.925
REMARK INTER + INTRA:          -7.839
REMARK INTER:                  -7.438
REMARK INTRA:                  -0.402
REMARK UNBOUND:                -0.449
REMARK  Name = 
REMARK  6 active torsions:
REMARK  status: ('A' for Active; 'I' for Inactive)
REMARK    1  A    between atoms: C_1  and  C_2
REMARK    2  A    between atoms: C_2  and  C_3
REMARK    3  A    between atoms: C_2  and  N_4
REMARK    4  A    between atoms: N_4  and  C_5
REMARK    5  A    between atoms: N_4  and  C_6
REMARK    6  A    between atoms: C_6  and  C_7
REMARK                            x       y       z     vdW  Elec       q    Type
REMARK                         _______ _______ _______ _____ _____    ______ ____
ROOT
ATOM      1  C   UNL     1       4.447   4.001  16.762  0.00  0.00    +0.026 C 
ATOM      2  H   UNL     1       3.560   4.332  16.214  0.00  0.00    +0.048 HD
ATOM      3  H   UNL     1       4.433   2.904  16.737  0.00  0.00    +0.048 HD
ENDROOT
BRANCH   1   4
ATOM      4  C   UNL     1       5.623   4.551  16.007  0.00  0.00    -0.008 A 
ATOM      5  C   UNL     1       6.587   5.414  16.500  0.00  0.00    +0.007 A 
ATOM      6  N   UNL     1       7.479   5.684  15.502  0.00  0.00    -0.360 N 
ATOM      7  C   UNL     1       7.117   5.029  14.348  0.00  0.00    +0.047 A 
ATOM      8  C   UNL     1       7.728   5.019  13.088  0.00  0.00    -0.038 A 
ATOM      9  C   UNL     1       7.133   4.251  12.085  0.00  0.00    -0.060 A 
ATOM     10  C   UNL     1       5.974   3.522  12.333  0.00  0.00    -0.061 A 
ATOM     11  C   UNL     1       5.376   3.542  13.600  0.00  0.00    -0.052 A 
ATOM     12  C   UNL     1       5.955   4.309  14.632  0.00  0.00    +0.004 A 
ATOM     13  H   UNL     1       6.708   5.840  17.486  0.00  0.00    +0.081 HD
ATOM     14  H   UNL     1       8.290   6.279  15.592  0.00  0.00    +0.165 HD
ATOM     15  H   UNL     1       8.632   5.585  12.892  0.00  0.00    +0.064 HD
ATOM     16  H   UNL     1       7.583   4.222  11.095  0.00  0.00    +0.062 HD
ATOM     17  H   UNL     1       5.526   2.929  11.539  0.00  0.00    +0.062 HD
ATOM     18  H   UNL     1       4.473   2.966  13.779  0.00  0.00    +0.062 HD
ENDBRANCH   1   4
BRANCH   1  19
ATOM     19  N   UNL     1       4.443   4.493  18.159  0.00  0.00    -0.299 NA
BRANCH  19  20
ATOM     20  C   UNL     1       4.618   3.358  19.077  0.00  0.00    -0.012 C 
ATOM     21  H   UNL     1       4.504   2.405  18.551  0.00  0.00    +0.039 HD
ATOM     22  H   UNL     1       3.851   3.338  19.857  0.00  0.00    +0.039 HD
ATOM     23  H   UNL     1       5.599   3.377  19.567  0.00  0.00    +0.039 HD
ENDBRANCH  19  20
BRANCH  19  24
ATOM     24  C   UNL     1       3.215   5.277  18.449  0.00  0.00    +0.005 C 
ATOM     25  H   UNL     1       3.056   5.323  19.535  0.00  0.00    +0.046 HD
BRANCH  24  26
ATOM     26  C   UNL     1       1.984   4.619  17.799  0.00  0.00    -0.050 C 
ATOM     27  H   UNL     1       2.249   3.975  16.956  0.00  0.00    +0.024 HD
ATOM     28  H   UNL     1       1.275   5.373  17.440  0.00  0.00    +0.024 HD
ATOM     29  H   UNL     1       1.459   3.983  18.519  0.00  0.00    +0.024 HD
ENDBRANCH  24  26
BRANCH  24  30
ATOM     30  C   UNL     1       3.271   6.728  17.937  0.00  0.00    -0.050 C 
ATOM     31  H   UNL     1       2.778   6.834  16.966  0.00  0.00    +0.024 HD
ATOM     32  H   UNL     1       2.801   7.420  18.645  0.00  0.00    +0.024 HD
ATOM     33  H   UNL     1       4.309   7.051  17.795  0.00  0.00    +0.024 HD
ENDBRANCH  24  30
ENDBRANCH  19  24
ENDBRANCH   1  19
TORSDOF 6
ENDMDL
MODEL 5
REMARK VINA RESULT:    -5.802      1.558      2.720
REMARK INTER + INTRA:          -7.777
REMARK INTER:                  -7.407
REMARK INTRA:                  -0.370
REMARK UNBOUND:                -0.449
REMARK  Name = 
REMARK  6 active torsions:
REMARK  status: ('A' for Active; 'I' for Inactive)
REMARK    1  A    between atoms: C_1  and  C_2
REMARK    2  A    between atoms: C_2  and  C_3
REMARK    3  A    between atoms: C_2  and  N_4
REMARK    4  A    between atoms: N_4  and  C_5
REMARK    5  A    between atoms: N_4  and  C_6
REMARK    6  A    between atoms: C_6  and  C_7
REMARK                            x       y       z     vdW  Elec       q    Type
REMARK                         _______ _______ _______ _____ _____    ______ ____
ROOT
ATOM      1  C   UNL     1       5.246   5.026  17.767  0.00  0.00    +0.026 C 
ATOM      2  H   UNL     1       4.727   5.810  17.208  0.00  0.00    +0.048 HD
ATOM      3  H   UNL     1       5.617   5.496  18.685  0.00  0.00    +0.048 HD
ENDROOT
BRANCH   1   4
ATOM      4  C   UNL     1       4.209   3.982  18.065  0.00  0.00    -0.008 A 
ATOM      5  C   UNL     1       4.075   2.753  17.442  0.00  0.00    +0.007 A 
ATOM      6  N   UNL     1       3.008   2.101  17.992  0.00  0.00    -0.360 N 
ATOM      7  C   UNL     1       2.420   2.880  18.960  0.00  0.00    +0.047 A 
ATOM      8  C   UNL     1       1.308   2.623  19.771  0.00  0.00    -0.038 A 
ATOM      9  C   UNL     1       0.928   3.610  20.683  0.00  0.00    -0.060 A 
ATOM     10  C   UNL     1       1.633   4.807  20.778  0.00  0.00    -0.061 A 
ATOM     11  C   UNL     1       2.743   5.048  19.960  0.00  0.00    -0.052 A 
ATOM     12  C   UNL     1       3.150   4.069  19.030  0.00  0.00    +0.004 A 
ATOM     13  H   UNL     1       4.667   2.294  16.661  0.00  0.00    +0.081 HD
ATOM     14  H   UNL     1       2.693   1.178  17.730  0.00  0.00    +0.165 HD
ATOM     15  H   UNL     1       0.759   1.691  19.700  0.00  0.00    +0.064 HD
ATOM     16  H   UNL     1       0.069   3.441  21.328  0.00  0.00    +0.062 HD
ATOM     17  H   UNL     1       1.322   5.563  21.495  0.00  0.00    +0.062 HD
ATOM     18  H   UNL     1       3.285   5.985  20.047  0.00  0.00    +0.062 HD
ENDBRANCH   1   4
BRANCH   1  19
ATOM     19  N   UNL     1       6.365   4.447  16.987  0.00  0.00    -0.299 NA
BRANCH  19  20
ATOM     20  C   UNL     1       7.622   4.635  17.724  0.00  0.00    -0.012 C 
ATOM     21  H   UNL     1       8.454   4.834  17.041  0.00  0.00    +0.039 HD
ATOM     22  H   UNL     1       7.920   3.732  18.268  0.00  0.00    +0.039 HD
ATOM     23  H   UNL     1       7.553   5.457  18.446  0.00  0.00    +0.039 HD
ENDBRANCH  19  20
BRANCH  19  24
ATOM     24  C   UNL     1       6.416   5.017  15.616  0.00  0.00    +0.005 C 
ATOM     25  H   UNL     1       7.419   5.422  15.423  0.00  0.00    +0.046 HD
BRANCH  24  26
ATOM     26  C   UNL     1       5.389   6.155  15.462  0.00  0.00    -0.050 C 
ATOM     27  H   UNL     1       4.362   5.787  15.407  0.00  0.00    +0.024 HD
ATOM     28  H   UNL     1       5.588   6.748  14.563  0.00  0.00    +0.024 HD
ATOM     29  H   UNL     1       5.428   6.831  16.323  0.00  0.00    +0.024 HD
ENDBRANCH  24  26
BRANCH  24  30
ATOM     30  C   UNL     1       6.120   3.992  14.507  0.00  0.00    -0.050 C 
ATOM     31  H   UNL     1       6.724   3.086  14.621  0.00  0.00    +0.024 HD
ATOM     32  H   UNL     1       5.062   3.706  14.497  0.00  0.00    +0.024 HD
ATOM     33  H   UNL     1       6.362   4.404  13.520  0.00  0.00    +0.024 HD
ENDBRANCH  24  30
ENDBRANCH  19  24
ENDBRANCH   1  19
TORSDOF 6
ENDMDL
MODEL 6
REMARK VINA RESULT:    -5.736      1.441      1.838
REMARK INTER + INTRA:          -7.694
REMARK INTER:                  -7.388
REMARK INTRA:                  -0.306
REMARK UNBOUND:                -0.449
REMARK  Name = 
REMARK  6 active torsions:
REMARK  status: ('A' for Active; 'I' for Inactive)
REMARK    1  A    between atoms: C_1  and  C_2
REMARK    2  A    between atoms: C_2  and  C_3
REMARK    3  A    between atoms: C_2  and  N_4
REMARK    4  A    between atoms: N_4  and  C_5
REMARK    5  A    between atoms: N_4  and  C_6
REMARK    6  A    between atoms: C_6  and  C_7
REMARK                            x       y       z     vdW  Elec       q    Type
REMARK                         _______ _______ _______ _____ _____    ______ ____
ROOT
ATOM      1  C   UNL     1       5.597   4.193  18.172  0.00  0.00    +0.026 C 
ATOM      2  H   UNL     1       6.040   4.122  19.169  0.00  0.00    +0.048 HD
ATOM      3  H   UNL     1       5.778   3.227  17.685  0.00  0.00    +0.048 HD
ENDROOT
BRANCH   1   4
ATOM      4  C   UNL     1       4.131   4.430  18.392  0.00  0.00    -0.008 A 
ATOM      5  C   UNL     1       3.316   5.280  17.665  0.00  0.00    +0.007 A 
ATOM      6  N   UNL     1       2.053   5.219  18.180  0.00  0.00    -0.360 N 
ATOM      7  C   UNL     1       2.016   4.354  19.248  0.00  0.00    +0.047 A 
ATOM      8  C   UNL     1       0.946   3.990  20.076  0.00  0.00    -0.038 A 
ATOM      9  C   UNL     1       1.201   3.074  21.099  0.00  0.00    -0.060 A 
ATOM     10  C   UNL     1       2.475   2.545  21.287  0.00  0.00    -0.061 A 
ATOM     11  C   UNL     1       3.533   2.919  20.450  0.00  0.00    -0.052 A 
ATOM     12  C   UNL     1       3.305   3.842  19.408  0.00  0.00    +0.004 A 
ATOM     13  H   UNL     1       3.541   5.910  16.814  0.00  0.00    +0.081 HD
ATOM     14  H   UNL     1       1.256   5.732  17.831  0.00  0.00    +0.165 HD
ATOM     15  H   UNL     1      -0.047   4.399  19.931  0.00  0.00    +0.064 HD
ATOM     16  H   UNL     1       0.391   2.770  21.759  0.00  0.00    +0.062 HD
ATOM     17  H   UNL     1       2.652   1.833  22.089  0.00  0.00    +0.062 HD
ATOM     18  H   UNL     1       4.521   2.496  20.607  0.00  0.00    +0.062 HD
ENDBRANCH   1   4
BRANCH   1  19
ATOM     19  N   UNL     1       6.195   5.296  17.383  0.00  0.00    -0.299 NA
BRANCH  19  20
ATOM     20  C   UNL     1       7.121   4.738  16.388  0.00  0.00    -0.012 C 
ATOM     21  H   UNL     1       6.701   4.802  15.379  0.00  0.00    +0.039 HD
ATOM     22  H   UNL     1       7.300   3.669  16.547  0.00  0.00    +0.039 HD
ATOM     23  H   UNL     1       8.091   5.249  16.400  0.00  0.00    +0.039 HD
ENDBRANCH  19  20
BRANCH  19  24
ATOM     24  C   UNL     1       6.844   6.297  18.268  0.00  0.00    +0.005 C 
ATOM     25  H   UNL     1       6.083   6.788  18.889  0.00  0.00    +0.046 HD
BRANCH  24  26
ATOM     26  C   UNL     1       7.567   7.371  17.435  0.00  0.00    -0.050 C 
ATOM     27  H   UNL     1       7.506   7.180  16.361  0.00  0.00    +0.024 HD
ATOM     28  H   UNL     1       8.626   7.439  17.709  0.00  0.00    +0.024 HD
ATOM     29  H   UNL     1       7.117   8.357  17.599  0.00  0.00    +0.024 HD
ENDBRANCH  24  26
BRANCH  24  30
ATOM     30  C   UNL     1       7.889   5.693  19.226  0.00  0.00    -0.050 C 
ATOM     31  H   UNL     1       7.951   6.255  20.163  0.00  0.00    +0.024 HD
ATOM     32  H   UNL     1       7.660   4.648  19.460  0.00  0.00    +0.024 HD
ATOM     33  H   UNL     1       8.889   5.723  18.779  0.00  0.00    +0.024 HD
ENDBRANCH  24  30
ENDBRANCH  19  24
ENDBRANCH   1  19
TORSDOF 6
ENDMDL
MODEL 7
REMARK VINA RESULT:    -5.661      1.783      5.506
REMARK INTER + INTRA:          -7.600
REMARK INTER:                  -7.181
REMARK INTRA:                  -0.419
REMARK UNBOUND:                -0.449
REMARK  Name = 
REMARK  6 active torsions:
REMARK  status: ('A' for Active; 'I' for Inactive)
REMARK    1  A    between atoms: C_1  and  C_2
REMARK    2  A    between atoms: C_2  and  C_3
REMARK    3  A    between atoms: C_2  and  N_4
REMARK    4  A    between atoms: N_4  and  C_5
REMARK    5  A    between atoms: N_4  and  C_6
REMARK    6  A    between atoms: C_6  and  C_7
REMARK                            x       y       z     vdW  Elec       q    Type
REMARK                         _______ _______ _______ _____ _____    ______ ____
ROOT
ATOM      1  C   UNL     1       3.270   4.434  20.102  0.00  0.00    +0.026 C 
ATOM      2  H   UNL     1       3.367   3.580  20.778  0.00  0.00    +0.048 HD
ATOM      3  H   UNL     1       3.849   5.250  20.553  0.00  0.00    +0.048 HD
ENDROOT
BRANCH   1   4
ATOM      4  C   UNL     1       3.868   3.994  18.797  0.00  0.00    -0.008 A 
ATOM      5  C   UNL     1       4.084   2.688  18.390  0.00  0.00    +0.007 A 
ATOM      6  N   UNL     1       4.650   2.709  17.147  0.00  0.00    -0.360 N 
ATOM      7  C   UNL     1       4.829   4.006  16.727  0.00  0.00    +0.047 A 
ATOM      8  C   UNL     1       5.374   4.499  15.534  0.00  0.00    -0.038 A 
ATOM      9  C   UNL     1       5.431   5.885  15.372  0.00  0.00    -0.060 A 
ATOM     10  C   UNL     1       4.962   6.742  16.364  0.00  0.00    -0.061 A 
ATOM     11  C   UNL     1       4.419   6.233  17.549  0.00  0.00    -0.052 A 
ATOM     12  C   UNL     1       4.349   4.837  17.740  0.00  0.00    +0.004 A 
ATOM     13  H   UNL     1       3.864   1.753  18.887  0.00  0.00    +0.081 HD
ATOM     14  H   UNL     1       4.902   1.892  16.609  0.00  0.00    +0.165 HD
ATOM     15  H   UNL     1       5.738   3.833  14.760  0.00  0.00    +0.064 HD
ATOM     16  H   UNL     1       5.849   6.300  14.457  0.00  0.00    +0.062 HD
ATOM     17  H   UNL     1       5.015   7.818  16.218  0.00  0.00    +0.062 HD
ATOM     18  H   UNL     1       4.055   6.914  18.313  0.00  0.00    +0.062 HD
ENDBRANCH   1   4
BRANCH   1  19
ATOM     19  N   UNL     1       1.854   4.834  19.924  0.00  0.00    -0.299 NA
BRANCH  19  20
ATOM     20  C   UNL     1       1.618   6.112  20.609  0.00  0.00    -0.012 C 
ATOM     21  H   UNL     1       2.443   6.810  20.438  0.00  0.00    +0.039 HD
ATOM     22  H   UNL     1       1.577   5.994  21.698  0.00  0.00    +0.039 HD
ATOM     23  H   UNL     1       0.683   6.583  20.284  0.00  0.00    +0.039 HD
ENDBRANCH  19  20
BRANCH  19  24
ATOM     24  C   UNL     1       0.933   3.762  20.381  0.00  0.00    +0.005 C 
ATOM     25  H   UNL     1       0.012   4.212  20.774  0.00  0.00    +0.046 HD
BRANCH  24  26
ATOM     26  C   UNL     1       1.584   2.923  21.495  0.00  0.00    -0.050 C 
ATOM     27  H   UNL     1       1.992   3.539  22.301  0.00  0.00    +0.024 HD
ATOM     28  H   UNL     1       2.395   2.301  21.099  0.00  0.00    +0.024 HD
ATOM     29  H   UNL     1       0.849   2.256  21.959  0.00  0.00    +0.024 HD
ENDBRANCH  24  26
BRANCH  24  30
ATOM     30  C   UNL     1       0.519   2.784  19.266  0.00  0.00    -0.050 C 
ATOM     31  H   UNL     1      -0.567   2.646  19.231  0.00  0.00    +0.024 HD
ATOM     32  H   UNL     1       0.858   3.130  18.284  0.00  0.00    +0.024 HD
ATOM     33  H   UNL     1       0.952   1.792  19.438  0.00  0.00    +0.024 HD
ENDBRANCH  24  30
ENDBRANCH  19  24
ENDBRANCH   1  19
TORSDOF 6
ENDMDL
MODEL 8
REMARK VINA RESULT:    -5.639      1.626      2.359
REMARK INTER + INTRA:          -7.572
REMARK INTER:                  -7.296
REMARK INTRA:                  -0.276
REMARK UNBOUND:                -0.449
REMARK  Name = 
REMARK  6 active torsions:
REMARK  status: ('A' for Active; 'I' for Inactive)
REMARK    1  A    between atoms: C_1  and  C_2
REMARK    2  A    between atoms: C_2  and  C_3
REMARK    3  A    between atoms: C_2  and  N_4
REMARK    4  A    between atoms: N_4  and  C_5
REMARK    5  A    between atoms: N_4  and  C_6
REMARK    6  A    between atoms: C_6  and  C_7
REMARK                            x       y       z     vdW  Elec       q    Type
REMARK                         _______ _______ _______ _____ _____    ______ ____
ROOT
ATOM      1  C   UNL     1       4.329   4.325  16.715  0.00  0.00    +0.026 C 
ATOM      2  H   UNL     1       4.881   3.696  16.010  0.00  0.00    +0.048 HD
ATOM      3  H   UNL     1       3.611   4.900  16.117  0.00  0.00    +0.048 HD
ENDROOT
BRANCH   1   4
ATOM      4  C   UNL     1       3.631   3.378  17.648  0.00  0.00    -0.008 A 
ATOM      5  C   UNL     1       3.621   1.996  17.562  0.00  0.00    +0.007 A 
ATOM      6  N   UNL     1       2.870   1.502  18.591  0.00  0.00    -0.360 N 
ATOM      7  C   UNL     1       2.368   2.532  19.351  0.00  0.00    +0.047 A 
ATOM      8  C   UNL     1       1.550   2.496  20.488  0.00  0.00    -0.038 A 
ATOM      9  C   UNL     1       1.188   3.716  21.064  0.00  0.00    -0.060 A 
ATOM     10  C   UNL     1       1.628   4.922  20.525  0.00  0.00    -0.061 A 
ATOM     11  C   UNL     1       2.445   4.940  19.388  0.00  0.00    -0.052 A 
ATOM     12  C   UNL     1       2.826   3.723  18.785  0.00  0.00    +0.004 A 
ATOM     13  H   UNL     1       4.102   1.334  16.855  0.00  0.00    +0.081 HD
ATOM     14  H   UNL     1       2.706   0.523  18.772  0.00  0.00    +0.165 HD
ATOM     15  H   UNL     1       1.208   1.559  20.911  0.00  0.00    +0.064 HD
ATOM     16  H   UNL     1       0.555   3.723  21.948  0.00  0.00    +0.062 HD
ATOM     17  H   UNL     1       1.336   5.861  20.989  0.00  0.00    +0.062 HD
ATOM     18  H   UNL     1       2.782   5.888  18.980  0.00  0.00    +0.062 HD
ENDBRANCH   1   4
BRANCH   1  19
ATOM     19  N   UNL     1       5.231   5.231  17.463  0.00  0.00    -0.299 NA
BRANCH  19  20
ATOM     20  C   UNL     1       5.047   6.608  16.985  0.00  0.00    -0.012 C 
ATOM     21  H   UNL     1       5.789   6.863  16.222  0.00  0.00    +0.039 HD
ATOM     22  H   UNL     1       5.203   7.344  17.781  0.00  0.00    +0.039 HD
ATOM     23  H   UNL     1       4.044   6.765  16.570  0.00  0.00    +0.039 HD
ENDBRANCH  19  20
BRANCH  19  24
ATOM     24  C   UNL     1       6.643   4.778  17.371  0.00  0.00    +0.005 C 
ATOM     25  H   UNL     1       6.735   3.771  17.800  0.00  0.00    +0.046 HD
BRANCH  24  26
ATOM     26  C   UNL     1       7.571   5.730  18.148  0.00  0.00    -0.050 C 
ATOM     27  H   UNL     1       7.755   6.666  17.614  0.00  0.00    +0.024 HD
ATOM     28  H   UNL     1       8.539   5.260  18.353  0.00  0.00    +0.024 HD
ATOM     29  H   UNL     1       7.125   6.007  19.110  0.00  0.00    +0.024 HD
ENDBRANCH  24  26
BRANCH  24  30
ATOM     30  C   UNL     1       7.178   4.708  15.929  0.00  0.00    -0.050 C 
ATOM     31  H   UNL     1       7.613   3.729  15.706  0.00  0.00    +0.024 HD
ATOM     32  H   UNL     1       6.388   4.914  15.198  0.00  0.00    +0.024 HD
ATOM     33  H   UNL     1       7.976   5.444  15.773  0.00  0.00    +0.024 HD
ENDBRANCH  24  30
ENDBRANCH  19  24
ENDBRANCH   1  19
TORSDOF 6
ENDMDL
MODEL 9
REMARK VINA RESULT:    -5.626      1.638      5.513
REMARK INTER + INTRA:          -7.555
REMARK INTER:                  -7.269
REMARK INTRA:                  -0.286
REMARK UNBOUND:                -0.449
REMARK  Name = 
REMARK  6 active torsions:
REMARK  status: ('A' for Active; 'I' for Inactive)
REMARK    1  A    between atoms: C_1  and  C_2
REMARK    2  A    between atoms: C_2  and  C_3
REMARK    3  A    between atoms: C_2  and  N_4
REMARK    4  A    between atoms: N_4  and  C_5
REMARK    5  A    between atoms: N_4  and  C_6
REMARK    6  A    between atoms: C_6  and  C_7
REMARK                            x       y       z     vdW  Elec       q    Type
REMARK                         _______ _______ _______ _____ _____    ______ ____
ROOT
ATOM      1  C   UNL     1       2.370   4.318  18.479  0.00  0.00    +0.026 C 
ATOM      2  H   UNL     1       2.089   5.311  18.843  0.00  0.00    +0.048 HD
ATOM      3  H   UNL     1       1.997   4.251  17.450  0.00  0.00    +0.048 HD
ENDROOT
BRANCH   1   4
ATOM      4  C   UNL     1       3.871   4.276  18.524  0.00  0.00    -0.008 A 
ATOM      5  C   UNL     1       4.649   3.284  19.096  0.00  0.00    +0.007 A 
ATOM      6  N   UNL     1       5.964   3.617  18.935  0.00  0.00    -0.360 N 
ATOM      7  C   UNL     1       6.074   4.820  18.279  0.00  0.00    +0.047 A 
ATOM      8  C   UNL     1       7.215   5.543  17.908  0.00  0.00    -0.038 A 
ATOM      9  C   UNL     1       7.026   6.755  17.240  0.00  0.00    -0.060 A 
ATOM     10  C   UNL     1       5.746   7.224  16.954  0.00  0.00    -0.061 A 
ATOM     11  C   UNL     1       4.616   6.488  17.331  0.00  0.00    -0.052 A 
ATOM     12  C   UNL     1       4.777   5.261  18.008  0.00  0.00    +0.004 A 
ATOM     13  H   UNL     1       4.363   2.366  19.591  0.00  0.00    +0.081 HD
ATOM     14  H   UNL     1       6.747   3.062  19.249  0.00  0.00    +0.165 HD
ATOM     15  H   UNL     1       8.212   5.179  18.128  0.00  0.00    +0.064 HD
ATOM     16  H   UNL     1       7.892   7.340  16.938  0.00  0.00    +0.062 HD
ATOM     17  H   UNL     1       5.621   8.169  16.432  0.00  0.00    +0.062 HD
ATOM     18  H   UNL     1       3.625   6.865  17.100  0.00  0.00    +0.062 HD
ENDBRANCH   1   4
BRANCH   1  19
ATOM     19  N   UNL     1       1.788   3.243  19.317  0.00  0.00    -0.299 NA
BRANCH  19  20
ATOM     20  C   UNL     1       0.747   2.541  18.555  0.00  0.00    -0.012 C 
ATOM     21  H   UNL     1       1.026   1.498  18.375  0.00  0.00    +0.039 HD
ATOM     22  H   UNL     1       0.609   2.968  17.556  0.00  0.00    +0.039 HD
ATOM     23  H   UNL     1      -0.221   2.564  19.069  0.00  0.00    +0.039 HD
ENDBRANCH  19  20
BRANCH  19  24
ATOM     24  C   UNL     1       1.287   3.781  20.608  0.00  0.00    +0.005 C 
ATOM     25  H   UNL     1       0.208   3.596  20.689  0.00  0.00    +0.046 HD
BRANCH  24  26
ATOM     26  C   UNL     1       1.534   5.298  20.699  0.00  0.00    -0.050 C 
ATOM     27  H   UNL     1       2.598   5.548  20.731  0.00  0.00    +0.024 HD
ATOM     28  H   UNL     1       1.057   5.724  21.588  0.00  0.00    +0.024 HD
ATOM     29  H   UNL     1       1.124   5.810  19.822  0.00  0.00    +0.024 HD
ENDBRANCH  24  26
BRANCH  24  30
ATOM     30  C   UNL     1       1.949   3.143  21.844  0.00  0.00    -0.050 C 
ATOM     31  H   UNL     1       3.036   3.074  21.730  0.00  0.00    +0.024 HD
ATOM     32  H   UNL     1       1.729   3.712  22.754  0.00  0.00    +0.024 HD
ATOM     33  H   UNL     1       1.587   2.120  21.995  0.00  0.00    +0.024 HD
ENDBRANCH  24  30
ENDBRANCH  19  24
ENDBRANCH   1  19
TORSDOF 6
ENDMDL
MODEL 10
REMARK VINA RESULT:    -5.616      1.553      5.478
REMARK INTER + INTRA:          -7.542
REMARK INTER:                  -7.063
REMARK INTRA:                  -0.479
REMARK UNBOUND:                -0.449
REMARK  Name = 
REMARK  6 active torsions:
REMARK  status: ('A' for Active; 'I' for Inactive)
REMARK    1  A    between atoms: C_1  and  C_2
REMARK    2  A    between atoms: C_2  and  C_3
REMARK    3  A    between atoms: C_2  and  N_4
REMARK    4  A    between atoms: N_4  and  C_5
REMARK    5  A    between atoms: N_4  and  C_6
REMARK    6  A    between atoms: C_6  and  C_7
REMARK                            x       y       z     vdW  Elec       q    Type
REMARK                         _______ _______ _______ _____ _____    ______ ____
ROOT
ATOM      1  C   UNL     1       2.640   4.284  18.179  0.00  0.00    +0.026 C 
ATOM      2  H   UNL     1       2.599   5.264  18.663  0.00  0.00    +0.048 HD
ATOM      3  H   UNL     1       1.856   4.287  17.412  0.00  0.00    +0.048 HD
ENDROOT
BRANCH   1   4
ATOM      4  C   UNL     1       4.008   4.187  17.566  0.00  0.00    -0.008 A 
ATOM      5  C   UNL     1       4.327   3.597  16.356  0.00  0.00    +0.007 A 
ATOM      6  N   UNL     1       5.674   3.709  16.159  0.00  0.00    -0.360 N 
ATOM      7  C   UNL     1       6.259   4.352  17.225  0.00  0.00    +0.047 A 
ATOM      8  C   UNL     1       7.602   4.677  17.454  0.00  0.00    -0.038 A 
ATOM      9  C   UNL     1       7.914   5.341  18.642  0.00  0.00    -0.060 A 
ATOM     10  C   UNL     1       6.922   5.668  19.563  0.00  0.00    -0.061 A 
ATOM     11  C   UNL     1       5.584   5.336  19.318  0.00  0.00    -0.052 A 
ATOM     12  C   UNL     1       5.240   4.664  18.127  0.00  0.00    +0.004 A 
ATOM     13  H   UNL     1       3.694   3.119  15.620  0.00  0.00    +0.081 HD
ATOM     14  H   UNL     1       6.174   3.372  15.349  0.00  0.00    +0.165 HD
ATOM     15  H   UNL     1       8.376   4.425  16.738  0.00  0.00    +0.064 HD
ATOM     16  H   UNL     1       8.948   5.608  18.850  0.00  0.00    +0.062 HD
ATOM     17  H   UNL     1       7.186   6.186  20.482  0.00  0.00    +0.062 HD
ATOM     18  H   UNL     1       4.821   5.599  20.044  0.00  0.00    +0.062 HD
ENDBRANCH   1   4
BRANCH   1  19
ATOM     19  N   UNL     1       2.419   3.185  19.148  0.00  0.00    -0.299 NA
BRANCH  19  20
ATOM     20  C   UNL     1       1.169   2.487  18.818  0.00  0.00    -0.012 C 
ATOM     21  H   UNL     1       0.319   2.929  19.347  0.00  0.00    +0.039 HD
ATOM     22  H   UNL     1       1.184   1.441  19.142  0.00  0.00    +0.039 HD
ATOM     23  H   UNL     1       0.964   2.505  17.741  0.00  0.00    +0.039 HD
ENDBRANCH  19  20
BRANCH  19  24
ATOM     24  C   UNL     1       2.440   3.690  20.546  0.00  0.00    +0.005 C 
ATOM     25  H   UNL     1       3.467   3.660  20.932  0.00  0.00    +0.046 HD
BRANCH  24  26
ATOM     26  C   UNL     1       1.548   2.820  21.450  0.00  0.00    -0.050 C 
ATOM     27  H   UNL     1       1.575   1.763  21.174  0.00  0.00    +0.024 HD
ATOM     28  H   UNL     1       0.505   3.154  21.417  0.00  0.00    +0.024 HD
ATOM     29  H   UNL     1       1.882   2.874  22.492  0.00  0.00    +0.024 HD
ENDBRANCH  24  26
BRANCH  24  30
ATOM     30  C   UNL     1       1.944   5.141  20.688  0.00  0.00    -0.050 C 
ATOM     31  H   UNL     1       1.783   5.412  21.736  0.00  0.00    +0.024 HD
ATOM     32  H   UNL     1       2.653   5.851  20.249  0.00  0.00    +0.024 HD
ATOM     33  H   UNL     1       0.982   5.275  20.180  0.00  0.00    +0.024 HD
ENDBRANCH  24  30
ENDBRANCH  19  24
ENDBRANCH   1  19
TORSDOF 6
ENDMDL
MODEL 11
REMARK VINA RESULT:    -5.604      1.665      5.270
REMARK INTER + INTRA:          -7.528
REMARK INTER:                  -7.154
REMARK INTRA:                  -0.373
REMARK UNBOUND:                -0.449
REMARK  Name = 
REMARK  6 active torsions:
REMARK  status: ('A' for Active; 'I' for Inactive)
REMARK    1  A    between atoms: C_1  and  C_2
REMARK    2  A    between atoms: C_2  and  C_3
REMARK    3  A    between atoms: C_2  and  N_4
REMARK    4  A    between atoms: N_4  and  C_5
REMARK    5  A    between atoms: N_4  and  C_6
REMARK    6  A    between atoms: C_6  and  C_7
REMARK                            x       y       z     vdW  Elec       q    Type
REMARK                         _______ _______ _______ _____ _____    ______ ____
ROOT
ATOM      1  C   UNL     1       2.410   3.504  17.938  0.00  0.00    +0.026 C 
ATOM      2  H   UNL     1       1.365   3.773  18.120  0.00  0.00    +0.048 HD
ATOM      3  H   UNL     1       2.424   2.952  16.990  0.00  0.00    +0.048 HD
ENDROOT
BRANCH   1   4
ATOM      4  C   UNL     1       3.154   4.804  17.827  0.00  0.00    -0.008 A 
ATOM      5  C   UNL     1       2.669   6.059  18.151  0.00  0.00    +0.007 A 
ATOM      6  N   UNL     1       3.647   6.980  17.902  0.00  0.00    -0.360 N 
ATOM      7  C   UNL     1       4.769   6.360  17.404  0.00  0.00    +0.047 A 
ATOM      8  C   UNL     1       5.997   6.905  17.008  0.00  0.00    -0.038 A 
ATOM      9  C   UNL     1       6.973   6.025  16.533  0.00  0.00    -0.060 A 
ATOM     10  C   UNL     1       6.729   4.656  16.459  0.00  0.00    -0.061 A 
ATOM     11  C   UNL     1       5.496   4.129  16.860  0.00  0.00    -0.052 A 
ATOM     12  C   UNL     1       4.491   4.993  17.343  0.00  0.00    +0.004 A 
ATOM     13  H   UNL     1       1.710   6.359  18.551  0.00  0.00    +0.081 HD
ATOM     14  H   UNL     1       3.564   7.974  18.061  0.00  0.00    +0.165 HD
ATOM     15  H   UNL     1       6.191   7.970  17.066  0.00  0.00    +0.064 HD
ATOM     16  H   UNL     1       7.938   6.415  16.218  0.00  0.00    +0.062 HD
ATOM     17  H   UNL     1       7.502   3.988  16.088  0.00  0.00    +0.062 HD
ATOM     18  H   UNL     1       5.320   3.059  16.799  0.00  0.00    +0.062 HD
ENDBRANCH   1   4
BRANCH   1  19
ATOM     19  N   UNL     1       2.962   2.675  19.035  0.00  0.00    -0.299 NA
BRANCH  19  20
ATOM     20  C   UNL     1       3.532   1.442  18.475  0.00  0.00    -0.012 C 
ATOM     21  H   UNL     1       4.427   1.655  17.882  0.00  0.00    +0.039 HD
ATOM     22  H   UNL     1       2.846   0.952  17.775  0.00  0.00    +0.039 HD
ATOM     23  H   UNL     1       3.789   0.719  19.258  0.00  0.00    +0.039 HD
ENDBRANCH  19  20
BRANCH  19  24
ATOM     24  C   UNL     1       1.935   2.408  20.075  0.00  0.00    +0.005 C 
ATOM     25  H   UNL     1       1.713   1.333  20.105  0.00  0.00    +0.046 HD
BRANCH  24  26
ATOM     26  C   UNL     1       0.633   3.169  19.762  0.00  0.00    -0.050 C 
ATOM     27  H   UNL     1      -0.117   3.057  20.548  0.00  0.00    +0.024 HD
ATOM     28  H   UNL     1       0.192   2.828  18.818  0.00  0.00    +0.024 HD
ATOM     29  H   UNL     1       0.825   4.244  19.670  0.00  0.00    +0.024 HD
ENDBRANCH  24  26
BRANCH  24  30
ATOM     30  C   UNL     1       2.367   2.823  21.493  0.00  0.00    -0.050 C 
ATOM     31  H   UNL     1       1.590   3.403  22.000  0.00  0.00    +0.024 HD
ATOM     32  H   UNL     1       2.609   1.950  22.109  0.00  0.00    +0.024 HD
ATOM     33  H   UNL     1       3.258   3.462  21.457  0.00  0.00    +0.024 HD
ENDBRANCH  24  30
ENDBRANCH  19  24
ENDBRANCH   1  19
TORSDOF 6
ENDMDL
MODEL 12
REMARK VINA RESULT:    -5.588      1.431      5.291
REMARK INTER + INTRA:          -7.508
REMARK INTER:                  -7.041
REMARK INTRA:                  -0.466
REMARK UNBOUND:                -0.449
REMARK  Name = 
REMARK  6 active torsions:
REMARK  status: ('A' for Active; 'I' for Inactive)
REMARK    1  A    between atoms: C_1  and  C_2
REMARK    2  A    between atoms: C_2  and  C_3
REMARK    3  A    between atoms: C_2  and  N_4
REMARK    4  A    between atoms: N_4  and  C_5
REMARK    5  A    between atoms: N_4  and  C_6
REMARK    6  A    between atoms: C_6  and  C_7
REMARK                            x       y       z     vdW  Elec       q    Type
REMARK                         _______ _______ _______ _____ _____    ______ ____
ROOT
ATOM      1  C   UNL     1       3.946   4.068  19.373  0.00  0.00    +0.026 C 
ATOM      2  H   UNL     1       3.896   3.001  19.139  0.00  0.00    +0.048 HD
ATOM      3  H   UNL     1       4.036   4.140  20.463  0.00  0.00    +0.048 HD
ENDROOT
BRANCH   1   4
ATOM      4  C   UNL     1       5.179   4.580  18.685  0.00  0.00    -0.008 A 
ATOM      5  C   UNL     1       6.233   5.252  19.278  0.00  0.00    +0.007 A 
ATOM      6  N   UNL     1       7.154   5.553  18.315  0.00  0.00    -0.360 N 
ATOM      7  C   UNL     1       6.723   5.106  17.088  0.00  0.00    +0.047 A 
ATOM      8  C   UNL     1       7.334   5.199  15.831  0.00  0.00    -0.038 A 
ATOM      9  C   UNL     1       6.658   4.647  14.740  0.00  0.00    -0.060 A 
ATOM     10  C   UNL     1       5.422   4.027  14.902  0.00  0.00    -0.061 A 
ATOM     11  C   UNL     1       4.826   3.942  16.166  0.00  0.00    -0.052 A 
ATOM     12  C   UNL     1       5.486   4.491  17.286  0.00  0.00    +0.004 A 
ATOM     13  H   UNL     1       6.399   5.524  20.312  0.00  0.00    +0.081 HD
ATOM     14  H   UNL     1       8.028   6.034  18.476  0.00  0.00    +0.165 HD
ATOM     15  H   UNL     1       8.297   5.680  15.702  0.00  0.00    +0.064 HD
ATOM     16  H   UNL     1       7.105   4.702  13.750  0.00  0.00    +0.062 HD
ATOM     17  H   UNL     1       4.912   3.603  14.040  0.00  0.00    +0.062 HD
ATOM     18  H   UNL     1       3.863   3.453  16.278  0.00  0.00    +0.062 HD
ENDBRANCH   1   4
BRANCH   1  19
ATOM     19  N   UNL     1       2.742   4.790  18.898  0.00  0.00    -0.299 NA
BRANCH  19  20
ATOM     20  C   UNL     1       2.475   5.930  19.786  0.00  0.00    -0.012 C 
ATOM     21  H   UNL     1       3.349   6.586  19.859  0.00  0.00    +0.039 HD
ATOM     22  H   UNL     1       2.280   5.613  20.816  0.00  0.00    +0.039 HD
ATOM     23  H   UNL     1       1.617   6.521  19.445  0.00  0.00    +0.039 HD
ENDBRANCH  19  20
BRANCH  19  24
ATOM     24  C   UNL     1       1.578   3.873  18.781  0.00  0.00    +0.005 C 
ATOM     25  H   UNL     1       0.818   4.327  18.131  0.00  0.00    +0.046 HD
BRANCH  24  26
ATOM     26  C   UNL     1       0.951   3.611  20.162  0.00  0.00    -0.050 C 
ATOM     27  H   UNL     1       0.138   4.305  20.392  0.00  0.00    +0.024 HD
ATOM     28  H   UNL     1       1.701   3.689  20.958  0.00  0.00    +0.024 HD
ATOM     29  H   UNL     1       0.520   2.605  20.208  0.00  0.00    +0.024 HD
ENDBRANCH  24  26
BRANCH  24  30
ATOM     30  C   UNL     1       1.929   2.500  18.179  0.00  0.00    -0.050 C 
ATOM     31  H   UNL     1       1.738   1.687  18.887  0.00  0.00    +0.024 HD
ATOM     32  H   UNL     1       1.360   2.307  17.263  0.00  0.00    +0.024 HD
ATOM     33  H   UNL     1       2.995   2.447  17.925  0.00  0.00    +0.024 HD
ENDBRANCH  24  30
ENDBRANCH  19  24
ENDBRANCH   1  19
TORSDOF 6
ENDMDL
MODEL 13
REMARK VINA RESULT:    -5.587      1.399      5.711
REMARK INTER + INTRA:          -7.506
REMARK INTER:                  -7.219
REMARK INTRA:                  -0.286
REMARK UNBOUND:                -0.449
REMARK  Name = 
REMARK  6 active torsions:
REMARK  status: ('A' for Active; 'I' for Inactive)
REMARK    1  A    between atoms: C_1  and  C_2
REMARK    2  A    between atoms: C_2  and  C_3
REMARK    3  A    between atoms: C_2  and  N_4
REMARK    4  A    between atoms: N_4  and  C_5
REMARK    5  A    between atoms: N_4  and  C_6
REMARK    6  A    between atoms: C_6  and  C_7
REMARK                            x       y       z     vdW  Elec       q    Type
REMARK                         _______ _______ _______ _____ _____    ______ ____
ROOT
ATOM      1  C   UNL     1       3.262   4.175  19.399  0.00  0.00    +0.026 C 
ATOM      2  H   UNL     1       3.311   3.220  18.867  0.00  0.00    +0.048 HD
ATOM      3  H   UNL     1       3.803   4.028  20.342  0.00  0.00    +0.048 HD
ENDROOT
BRANCH   1   4
ATOM      4  C   UNL     1       3.958   5.171  18.517  0.00  0.00    -0.008 A 
ATOM      5  C   UNL     1       3.397   5.865  17.459  0.00  0.00    +0.007 A 
ATOM      6  N   UNL     1       4.357   6.666  16.907  0.00  0.00    -0.360 N 
ATOM      7  C   UNL     1       5.550   6.505  17.571  0.00  0.00    +0.047 A 
ATOM      8  C   UNL     1       6.793   7.112  17.349  0.00  0.00    -0.038 A 
ATOM      9  C   UNL     1       7.849   6.754  18.190  0.00  0.00    -0.060 A 
ATOM     10  C   UNL     1       7.667   5.827  19.213  0.00  0.00    -0.061 A 
ATOM     11  C   UNL     1       6.418   5.230  19.422  0.00  0.00    -0.052 A 
ATOM     12  C   UNL     1       5.334   5.572  18.586  0.00  0.00    +0.004 A 
ATOM     13  H   UNL     1       2.388   5.857  17.070  0.00  0.00    +0.081 HD
ATOM     14  H   UNL     1       4.215   7.289  16.126  0.00  0.00    +0.165 HD
ATOM     15  H   UNL     1       6.937   7.836  16.554  0.00  0.00    +0.064 HD
ATOM     16  H   UNL     1       8.827   7.208  18.045  0.00  0.00    +0.062 HD
ATOM     17  H   UNL     1       8.502   5.562  19.858  0.00  0.00    +0.062 HD
ATOM     18  H   UNL     1       6.291   4.510  20.224  0.00  0.00    +0.062 HD
ENDBRANCH   1   4
BRANCH   1  19
ATOM     19  N   UNL     1       1.863   4.587  19.656  0.00  0.00    -0.299 NA
BRANCH  19  20
ATOM     20  C   UNL     1       1.841   5.606  20.715  0.00  0.00    -0.012 C 
ATOM     21  H   UNL     1       1.858   6.615  20.293  0.00  0.00    +0.039 HD
ATOM     22  H   UNL     1       2.732   5.557  21.351  0.00  0.00    +0.039 HD
ATOM     23  H   UNL     1       0.960   5.506  21.360  0.00  0.00    +0.039 HD
ENDBRANCH  19  20
BRANCH  19  24
ATOM     24  C   UNL     1       1.007   3.415  19.974  0.00  0.00    +0.005 C 
ATOM     25  H   UNL     1      -0.026   3.748  20.138  0.00  0.00    +0.046 HD
BRANCH  24  26
ATOM     26  C   UNL     1       1.505   2.708  21.248  0.00  0.00    -0.050 C 
ATOM     27  H   UNL     1       1.917   1.717  21.044  0.00  0.00    +0.024 HD
ATOM     28  H   UNL     1       0.696   2.596  21.980  0.00  0.00    +0.024 HD
ATOM     29  H   UNL     1       2.306   3.284  21.723  0.00  0.00    +0.024 HD
ENDBRANCH  24  26
BRANCH  24  30
ATOM     30  C   UNL     1       0.969   2.355  18.858  0.00  0.00    -0.050 C 
ATOM     31  H   UNL     1       0.589   2.769  17.919  0.00  0.00    +0.024 HD
ATOM     32  H   UNL     1       1.962   1.930  18.675  0.00  0.00    +0.024 HD
ATOM     33  H   UNL     1       0.299   1.530  19.127  0.00  0.00    +0.024 HD
ENDBRANCH  24  30
ENDBRANCH  19  24
ENDBRANCH   1  19
TORSDOF 6
ENDMDL
MODEL 14
REMARK VINA RESULT:    -5.556      1.934      5.106
REMARK INTER + INTRA:          -7.468
REMARK INTER:                  -7.016
REMARK INTRA:                  -0.452
REMARK UNBOUND:                -0.449
REMARK  Name = 
REMARK  6 active torsions:
REMARK  status: ('A' for Active; 'I' for Inactive)
REMARK    1  A    between atoms: C_1  and  C_2
REMARK    2  A    between atoms: C_2  and  C_3
REMARK    3  A    between atoms: C_2  and  N_4
REMARK    4  A    between atoms: N_4  and  C_5
REMARK    5  A    between atoms: N_4  and  C_6
REMARK    6  A    between atoms: C_6  and  C_7
REMARK                            x       y       z     vdW  Elec       q    Type
REMARK                         _______ _______ _______ _____ _____    ______ ____
ROOT
ATOM      1  C   UNL     1       3.393   2.594  18.074  0.00  0.00    +0.026 C 
ATOM      2  H   UNL     1       2.436   2.459  17.563  0.00  0.00    +0.048 HD
ATOM      3  H   UNL     1       4.001   1.715  17.826  0.00  0.00    +0.048 HD
ENDROOT
BRANCH   1   4
ATOM      4  C   UNL     1       3.987   3.851  17.506  0.00  0.00    -0.008 A 
ATOM      5  C   UNL     1       5.102   3.938  16.690  0.00  0.00    +0.007 A 
ATOM      6  N   UNL     1       5.322   5.253  16.394  0.00  0.00    -0.360 N 
ATOM      7  C   UNL     1       4.382   6.044  17.012  0.00  0.00    +0.047 A 
ATOM      8  C   UNL     1       4.225   7.436  16.995  0.00  0.00    -0.038 A 
ATOM      9  C   UNL     1       3.163   7.977  17.725  0.00  0.00    -0.060 A 
ATOM     10  C   UNL     1       2.295   7.158  18.441  0.00  0.00    -0.061 A 
ATOM     11  C   UNL     1       2.466   5.768  18.446  0.00  0.00    -0.052 A 
ATOM     12  C   UNL     1       3.529   5.194  17.719  0.00  0.00    +0.004 A 
ATOM     13  H   UNL     1       5.741   3.162  16.290  0.00  0.00    +0.081 HD
ATOM     14  H   UNL     1       6.066   5.600  15.806  0.00  0.00    +0.165 HD
ATOM     15  H   UNL     1       4.898   8.076  16.437  0.00  0.00    +0.064 HD
ATOM     16  H   UNL     1       3.013   9.054  17.733  0.00  0.00    +0.062 HD
ATOM     17  H   UNL     1       1.474   7.598  19.002  0.00  0.00    +0.062 HD
ATOM     18  H   UNL     1       1.779   5.141  19.008  0.00  0.00    +0.062 HD
ENDBRANCH   1   4
BRANCH   1  19
ATOM     19  N   UNL     1       3.218   2.712  19.541  0.00  0.00    -0.299 NA
BRANCH  19  20
ATOM     20  C   UNL     1       4.331   2.035  20.221  0.00  0.00    -0.012 C 
ATOM     21  H   UNL     1       4.529   1.055  19.774  0.00  0.00    +0.039 HD
ATOM     22  H   UNL     1       4.102   1.819  21.270  0.00  0.00    +0.039 HD
ATOM     23  H   UNL     1       5.251   2.630  20.191  0.00  0.00    +0.039 HD
ENDBRANCH  19  20
BRANCH  19  24
ATOM     24  C   UNL     1       1.891   2.198  19.967  0.00  0.00    +0.005 C 
ATOM     25  H   UNL     1       1.964   1.123  20.178  0.00  0.00    +0.046 HD
BRANCH  24  26
ATOM     26  C   UNL     1       0.844   2.412  18.859  0.00  0.00    -0.050 C 
ATOM     27  H   UNL     1       1.185   2.052  17.885  0.00  0.00    +0.024 HD
ATOM     28  H   UNL     1       0.585   3.472  18.758  0.00  0.00    +0.024 HD
ATOM     29  H   UNL     1      -0.077   1.864  19.084  0.00  0.00    +0.024 HD
ENDBRANCH  24  26
BRANCH  24  30
ATOM     30  C   UNL     1       1.344   2.873  21.238  0.00  0.00    -0.050 C 
ATOM     31  H   UNL     1       1.699   3.904  21.334  0.00  0.00    +0.024 HD
ATOM     32  H   UNL     1       0.249   2.879  21.249  0.00  0.00    +0.024 HD
ATOM     33  H   UNL     1       1.683   2.344  22.137  0.00  0.00    +0.024 HD
ENDBRANCH  24  30
ENDBRANCH  19  24
ENDBRANCH   1  19
TORSDOF 6
ENDMDL
MODEL 15
REMARK VINA RESULT:    -5.394      1.648      5.189
REMARK INTER + INTRA:          -7.263
REMARK INTER:                  -7.427
REMARK INTRA:                   0.164
REMARK UNBOUND:                -0.449
REMARK  Name = 
REMARK  6 active torsions:
REMARK  status: ('A' for Active; 'I' for Inactive)
REMARK    1  A    between atoms: C_1  and  C_2
REMARK    2  A    between atoms: C_2  and  C_3
REMARK    3  A    between atoms: C_2  and  N_4
REMARK    4  A    between atoms: N_4  and  C_5
REMARK    5  A    between atoms: N_4  and  C_6
REMARK    6  A    between atoms: C_6  and  C_7
REMARK                            x       y       z     vdW  Elec       q    Type
REMARK                         _______ _______ _______ _____ _____    ______ ____
ROOT
ATOM      1  C   UNL     1       2.833   2.893  18.063  0.00  0.00    +0.026 C 
ATOM      2  H   UNL     1       2.636   2.723  17.000  0.00  0.00    +0.048 HD
ATOM      3  H   UNL     1       2.775   1.911  18.548  0.00  0.00    +0.048 HD
ENDROOT
BRANCH   1   4
ATOM      4  C   UNL     1       4.222   3.460  18.135  0.00  0.00    -0.008 A 
ATOM      5  C   UNL     1       4.977   3.645  19.280  0.00  0.00    +0.007 A 
ATOM      6  N   UNL     1       6.178   4.189  18.926  0.00  0.00    -0.360 N 
ATOM      7  C   UNL     1       6.230   4.383  17.565  0.00  0.00    +0.047 A 
ATOM      8  C   UNL     1       7.253   4.916  16.770  0.00  0.00    -0.038 A 
ATOM      9  C   UNL     1       7.030   4.995  15.394  0.00  0.00    -0.060 A 
ATOM     10  C   UNL     1       5.831   4.559  14.836  0.00  0.00    -0.061 A 
ATOM     11  C   UNL     1       4.819   4.028  15.646  0.00  0.00    -0.052 A 
ATOM     12  C   UNL     1       5.017   3.937  17.039  0.00  0.00    +0.004 A 
ATOM     13  H   UNL     1       4.751   3.417  20.313  0.00  0.00    +0.081 HD
ATOM     14  H   UNL     1       6.925   4.417  19.566  0.00  0.00    +0.165 HD
ATOM     15  H   UNL     1       8.188   5.255  17.202  0.00  0.00    +0.064 HD
ATOM     16  H   UNL     1       7.804   5.403  14.748  0.00  0.00    +0.062 HD
ATOM     17  H   UNL     1       5.676   4.628  13.762  0.00  0.00    +0.062 HD
ATOM     18  H   UNL     1       3.890   3.690  15.197  0.00  0.00    +0.062 HD
ENDBRANCH   1   4
BRANCH   1  19
ATOM     19  N   UNL     1       1.852   3.830  18.658  0.00  0.00    -0.299 NA
BRANCH  19  20
ATOM     20  C   UNL     1       1.923   5.121  17.959  0.00  0.00    -0.012 C 
ATOM     21  H   UNL     1       2.647   5.789  18.436  0.00  0.00    +0.039 HD
ATOM     22  H   UNL     1       0.973   5.665  18.002  0.00  0.00    +0.039 HD
ATOM     23  H   UNL     1       2.196   4.999  16.904  0.00  0.00    +0.039 HD
ENDBRANCH  19  20
BRANCH  19  24
ATOM     24  C   UNL     1       2.057   3.963  20.124  0.00  0.00    +0.005 C 
ATOM     25  H   UNL     1       3.113   3.783  20.364  0.00  0.00    +0.046 HD
BRANCH  24  26
ATOM     26  C   UNL     1       1.198   2.940  20.888  0.00  0.00    -0.050 C 
ATOM     27  H   UNL     1       1.168   3.137  21.963  0.00  0.00    +0.024 HD
ATOM     28  H   UNL     1       1.570   1.920  20.739  0.00  0.00    +0.024 HD
ATOM     29  H   UNL     1       0.159   2.969  20.541  0.00  0.00    +0.024 HD
ENDBRANCH  24  26
BRANCH  24  30
ATOM     30  C   UNL     1       1.697   5.354  20.676  0.00  0.00    -0.050 C 
ATOM     31  H   UNL     1       1.887   6.143  19.942  0.00  0.00    +0.024 HD
ATOM     32  H   UNL     1       0.645   5.405  20.979  0.00  0.00    +0.024 HD
ATOM     33  H   UNL     1       2.307   5.594  21.555  0.00  0.00    +0.024 HD
ENDBRANCH  24  30
ENDBRANCH  19  24
ENDBRANCH   1  19
TORSDOF 6
ENDMDL
MODEL 16
REMARK VINA RESULT:    -5.387      2.498      3.417
REMARK INTER + INTRA:          -7.254
REMARK INTER:                  -6.908
REMARK INTRA:                  -0.346
REMARK UNBOUND:                -0.449
REMARK  Name = 
REMARK  6 active torsions:
REMARK  status: ('A' for Active; 'I' for Inactive)
REMARK    1  A    between atoms: C_1  and  C_2
REMARK    2  A    between atoms: C_2  and  C_3
REMARK    3  A    between atoms: C_2  and  N_4
REMARK    4  A    between atoms: N_4  and  C_5
REMARK    5  A    between atoms: N_4  and  C_6
REMARK    6  A    between atoms: C_6  and  C_7
REMARK                            x       y       z     vdW  Elec       q    Type
REMARK                         _______ _______ _______ _____ _____    ______ ____
ROOT
ATOM      1  C   UNL     1       3.996   5.159  17.612  0.00  0.00    +0.026 C 
ATOM      2  H   UNL     1       4.188   4.131  17.931  0.00  0.00    +0.048 HD
ATOM      3  H   UNL     1       3.376   5.091  16.710  0.00  0.00    +0.048 HD
ENDROOT
BRANCH   1   4
ATOM      4  C   UNL     1       3.250   5.806  18.743  0.00  0.00    -0.008 A 
ATOM      5  C   UNL     1       3.033   5.268  20.000  0.00  0.00    +0.007 A 
ATOM      6  N   UNL     1       2.309   6.162  20.736  0.00  0.00    -0.360 N 
ATOM      7  C   UNL     1       2.027   7.279  19.985  0.00  0.00    +0.047 A 
ATOM      8  C   UNL     1       1.312   8.435  20.325  0.00  0.00    -0.038 A 
ATOM      9  C   UNL     1       1.181   9.426  19.349  0.00  0.00    -0.060 A 
ATOM     10  C   UNL     1       1.743   9.266  18.085  0.00  0.00    -0.061 A 
ATOM     11  C   UNL     1       2.455   8.105  17.763  0.00  0.00    -0.052 A 
ATOM     12  C   UNL     1       2.603   7.087  18.728  0.00  0.00    +0.004 A 
ATOM     13  H   UNL     1       3.352   4.326  20.424  0.00  0.00    +0.081 HD
ATOM     14  H   UNL     1       2.020   6.028  21.694  0.00  0.00    +0.165 HD
ATOM     15  H   UNL     1       0.875   8.563  21.308  0.00  0.00    +0.064 HD
ATOM     16  H   UNL     1       0.632  10.336  19.580  0.00  0.00    +0.062 HD
ATOM     17  H   UNL     1       1.630  10.049  17.340  0.00  0.00    +0.062 HD
ATOM     18  H   UNL     1       2.890   7.994  16.774  0.00  0.00    +0.062 HD
ENDBRANCH   1   4
BRANCH   1  19
ATOM     19  N   UNL     1       5.255   5.888  17.327  0.00  0.00    -0.299 NA
BRANCH  19  20
ATOM     20  C   UNL     1       5.316   6.215  15.896  0.00  0.00    -0.012 C 
ATOM     21  H   UNL     1       4.358   6.019  15.405  0.00  0.00    +0.039 HD
ATOM     22  H   UNL     1       6.036   5.586  15.361  0.00  0.00    +0.039 HD
ATOM     23  H   UNL     1       5.593   7.263  15.728  0.00  0.00    +0.039 HD
ENDBRANCH  19  20
BRANCH  19  24
ATOM     24  C   UNL     1       6.438   5.116  17.788  0.00  0.00    +0.005 C 
ATOM     25  H   UNL     1       6.110   4.296  18.440  0.00  0.00    +0.046 HD
BRANCH  24  26
ATOM     26  C   UNL     1       7.401   6.019  18.580  0.00  0.00    -0.050 C 
ATOM     27  H   UNL     1       7.577   5.655  19.596  0.00  0.00    +0.024 HD
ATOM     28  H   UNL     1       7.018   7.044  18.648  0.00  0.00    +0.024 HD
ATOM     29  H   UNL     1       8.382   6.062  18.094  0.00  0.00    +0.024 HD
ENDBRANCH  24  26
BRANCH  24  30
ATOM     30  C   UNL     1       7.252   4.488  16.642  0.00  0.00    -0.050 C 
ATOM     31  H   UNL     1       7.905   5.222  16.159  0.00  0.00    +0.024 HD
ATOM     32  H   UNL     1       7.868   3.655  16.998  0.00  0.00    +0.024 HD
ATOM     33  H   UNL     1       6.589   4.101  15.860  0.00  0.00    +0.024 HD
ENDBRANCH  24  30
ENDBRANCH  19  24
ENDBRANCH   1  19
TORSDOF 6
ENDMDL
MODEL 17
REMARK VINA RESULT:    -5.259      1.697      5.252
REMARK INTER + INTRA:          -7.091
REMARK INTER:                  -6.648
REMARK INTRA:                  -0.444
REMARK UNBOUND:                -0.449
REMARK  Name = 
REMARK  6 active torsions:
REMARK  status: ('A' for Active; 'I' for Inactive)
REMARK    1  A    between atoms: C_1  and  C_2
REMARK    2  A    between atoms: C_2  and  C_3
REMARK    3  A    between atoms: C_2  and  N_4
REMARK    4  A    between atoms: N_4  and  C_5
REMARK    5  A    between atoms: N_4  and  C_6
REMARK    6  A    between atoms: C_6  and  C_7
REMARK                            x       y       z     vdW  Elec       q    Type
REMARK                         _______ _______ _______ _____ _____    ______ ____
ROOT
ATOM      1  C   UNL     1       3.405   4.324  19.999  0.00  0.00    +0.026 C 
ATOM      2  H   UNL     1       4.139   3.532  19.823  0.00  0.00    +0.048 HD
ATOM      3  H   UNL     1       3.618   4.724  20.997  0.00  0.00    +0.048 HD
ENDROOT
BRANCH   1   4
ATOM      4  C   UNL     1       3.648   5.352  18.931  0.00  0.00    -0.008 A 
ATOM      5  C   UNL     1       3.128   6.634  18.889  0.00  0.00    +0.007 A 
ATOM      6  N   UNL     1       3.580   7.249  17.757  0.00  0.00    -0.360 N 
ATOM      7  C   UNL     1       4.379   6.393  17.036  0.00  0.00    +0.047 A 
ATOM      8  C   UNL     1       5.045   6.593  15.821  0.00  0.00    -0.038 A 
ATOM      9  C   UNL     1       5.800   5.532  15.313  0.00  0.00    -0.060 A 
ATOM     10  C   UNL     1       5.883   4.321  15.995  0.00  0.00    -0.061 A 
ATOM     11  C   UNL     1       5.211   4.139  17.210  0.00  0.00    -0.052 A 
ATOM     12  C   UNL     1       4.442   5.193  17.746  0.00  0.00    +0.004 A 
ATOM     13  H   UNL     1       2.484   7.152  19.587  0.00  0.00    +0.081 HD
ATOM     14  H   UNL     1       3.362   8.196  17.483  0.00  0.00    +0.165 HD
ATOM     15  H   UNL     1       4.983   7.535  15.288  0.00  0.00    +0.064 HD
ATOM     16  H   UNL     1       6.330   5.655  14.371  0.00  0.00    +0.062 HD
ATOM     17  H   UNL     1       6.476   3.508  15.584  0.00  0.00    +0.062 HD
ATOM     18  H   UNL     1       5.287   3.190  17.732  0.00  0.00    +0.062 HD
ENDBRANCH   1   4
BRANCH   1  19
ATOM     19  N   UNL     1       2.017   3.809  19.926  0.00  0.00    -0.299 NA
BRANCH  19  20
ATOM     20  C   UNL     1       1.659   3.191  21.210  0.00  0.00    -0.012 C 
ATOM     21  H   UNL     1       1.941   3.834  22.050  0.00  0.00    +0.039 HD
ATOM     22  H   UNL     1       2.202   2.256  21.383  0.00  0.00    +0.039 HD
ATOM     23  H   UNL     1       0.585   2.976  21.274  0.00  0.00    +0.039 HD
ENDBRANCH  19  20
BRANCH  19  24
ATOM     24  C   UNL     1       1.848   2.880  18.779  0.00  0.00    +0.005 C 
ATOM     25  H   UNL     1       1.917   3.442  17.838  0.00  0.00    +0.046 HD
BRANCH  24  26
ATOM     26  C   UNL     1       0.475   2.187  18.839  0.00  0.00    -0.050 C 
ATOM     27  H   UNL     1      -0.352   2.878  18.655  0.00  0.00    +0.024 HD
ATOM     28  H   UNL     1       0.313   1.713  19.813  0.00  0.00    +0.024 HD
ATOM     29  H   UNL     1       0.400   1.408  18.073  0.00  0.00    +0.024 HD
ENDBRANCH  24  26
BRANCH  24  30
ATOM     30  C   UNL     1       2.911   1.768  18.721  0.00  0.00    -0.050 C 
ATOM     31  H   UNL     1       2.847   1.195  17.790  0.00  0.00    +0.024 HD
ATOM     32  H   UNL     1       3.924   2.176  18.810  0.00  0.00    +0.024 HD
ATOM     33  H   UNL     1       2.768   1.050  19.537  0.00  0.00    +0.024 HD
ENDBRANCH  24  30
ENDBRANCH  19  24
ENDBRANCH   1  19
TORSDOF 6
ENDMDL
MODEL 18
REMARK VINA RESULT:    -5.218      2.889      4.454
REMARK INTER + INTRA:          -7.040
REMARK INTER:                  -6.754
REMARK INTRA:                  -0.286
REMARK UNBOUND:                -0.449
REMARK  Name = 
REMARK  6 active torsions:
REMARK  status: ('A' for Active; 'I' for Inactive)
REMARK    1  A    between atoms: C_1  and  C_2
REMARK    2  A    between atoms: C_2  and  C_3
REMARK    3  A    between atoms: C_2  and  N_4
REMARK    4  A    between atoms: N_4  and  C_5
REMARK    5  A    between atoms: N_4  and  C_6
REMARK    6  A    between atoms: C_6  and  C_7
REMARK                            x       y       z     vdW  Elec       q    Type
REMARK                         _______ _______ _______ _____ _____    ______ ____
ROOT
ATOM      1  C   UNL     1       3.675   5.430  17.717  0.00  0.00    +0.026 C 
ATOM      2  H   UNL     1       2.897   5.033  17.058  0.00  0.00    +0.048 HD
ATOM      3  H   UNL     1       4.279   6.111  17.106  0.00  0.00    +0.048 HD
ENDROOT
BRANCH   1   4
ATOM      4  C   UNL     1       2.950   6.167  18.807  0.00  0.00    -0.008 A 
ATOM      5  C   UNL     1       2.683   5.698  20.081  0.00  0.00    +0.007 A 
ATOM      6  N   UNL     1       2.000   6.662  20.765  0.00  0.00    -0.360 N 
ATOM      7  C   UNL     1       1.794   7.760  19.963  0.00  0.00    +0.047 A 
ATOM      8  C   UNL     1       1.141   8.968  20.240  0.00  0.00    -0.038 A 
ATOM      9  C   UNL     1       1.082   9.921  19.221  0.00  0.00    -0.060 A 
ATOM     10  C   UNL     1       1.653   9.675  17.975  0.00  0.00    -0.061 A 
ATOM     11  C   UNL     1       2.303   8.462  17.716  0.00  0.00    -0.052 A 
ATOM     12  C   UNL     1       2.377   7.481  18.726  0.00  0.00    +0.004 A 
ATOM     13  H   UNL     1       2.940   4.758  20.551  0.00  0.00    +0.081 HD
ATOM     14  H   UNL     1       1.689   6.586  21.723  0.00  0.00    +0.165 HD
ATOM     15  H   UNL     1       0.697   9.163  21.210  0.00  0.00    +0.064 HD
ATOM     16  H   UNL     1       0.582  10.870  19.404  0.00  0.00    +0.062 HD
ATOM     17  H   UNL     1       1.597  10.430  17.195  0.00  0.00    +0.062 HD
ATOM     18  H   UNL     1       2.745   8.284  16.740  0.00  0.00    +0.062 HD
ENDBRANCH   1   4
BRANCH   1  19
ATOM     19  N   UNL     1       4.516   4.350  18.284  0.00  0.00    -0.299 NA
BRANCH  19  20
ATOM     20  C   UNL     1       5.900   4.516  17.819  0.00  0.00    -0.012 C 
ATOM     21  H   UNL     1       5.960   4.452  16.728  0.00  0.00    +0.039 HD
ATOM     22  H   UNL     1       6.554   3.714  18.180  0.00  0.00    +0.039 HD
ATOM     23  H   UNL     1       6.328   5.472  18.142  0.00  0.00    +0.039 HD
ENDBRANCH  19  20
BRANCH  19  24
ATOM     24  C   UNL     1       3.961   3.011  17.959  0.00  0.00    +0.005 C 
ATOM     25  H   UNL     1       4.681   2.454  17.345  0.00  0.00    +0.046 HD
BRANCH  24  26
ATOM     26  C   UNL     1       2.644   3.144  17.173  0.00  0.00    -0.050 C 
ATOM     27  H   UNL     1       1.844   3.590  17.769  0.00  0.00    +0.024 HD
ATOM     28  H   UNL     1       2.297   2.169  16.813  0.00  0.00    +0.024 HD
ATOM     29  H   UNL     1       2.777   3.794  16.301  0.00  0.00    +0.024 HD
ENDBRANCH  24  26
BRANCH  24  30
ATOM     30  C   UNL     1       3.659   2.148  19.198  0.00  0.00    -0.050 C 
ATOM     31  H   UNL     1       3.806   1.083  18.996  0.00  0.00    +0.024 HD
ATOM     32  H   UNL     1       4.290   2.432  20.048  0.00  0.00    +0.024 HD
ATOM     33  H   UNL     1       2.613   2.264  19.508  0.00  0.00    +0.024 HD
ENDBRANCH  24  30
ENDBRANCH  19  24
ENDBRANCH   1  19
TORSDOF 6
ENDMDL
MODEL 19
REMARK VINA RESULT:    -5.142      1.935      5.369
REMARK INTER + INTRA:          -6.944
REMARK INTER:                  -6.483
REMARK INTRA:                  -0.461
REMARK UNBOUND:                -0.449
REMARK  Name = 
REMARK  6 active torsions:
REMARK  status: ('A' for Active; 'I' for Inactive)
REMARK    1  A    between atoms: C_1  and  C_2
REMARK    2  A    between atoms: C_2  and  C_3
REMARK    3  A    between atoms: C_2  and  N_4
REMARK    4  A    between atoms: N_4  and  C_5
REMARK    5  A    between atoms: N_4  and  C_6
REMARK    6  A    between atoms: C_6  and  C_7
REMARK                            x       y       z     vdW  Elec       q    Type
REMARK                         _______ _______ _______ _____ _____    ______ ____
ROOT
ATOM      1  C   UNL     1       2.194   5.401  18.348  0.00  0.00    +0.026 C 
ATOM      2  H   UNL     1       1.969   6.214  17.651  0.00  0.00    +0.048 HD
ATOM      3  H   UNL     1       1.308   4.754  18.362  0.00  0.00    +0.048 HD
ENDROOT
BRANCH   1   4
ATOM      4  C   UNL     1       3.385   4.689  17.776  0.00  0.00    -0.008 A 
ATOM      5  C   UNL     1       3.495   3.330  17.535  0.00  0.00    +0.007 A 
ATOM      6  N   UNL     1       4.734   3.079  17.019  0.00  0.00    -0.360 N 
ATOM      7  C   UNL     1       5.457   4.245  16.926  0.00  0.00    +0.047 A 
ATOM      8  C   UNL     1       6.761   4.461  16.464  0.00  0.00    -0.038 A 
ATOM      9  C   UNL     1       7.247   5.770  16.482  0.00  0.00    -0.060 A 
ATOM     10  C   UNL     1       6.457   6.821  16.943  0.00  0.00    -0.061 A 
ATOM     11  C   UNL     1       5.154   6.587  17.400  0.00  0.00    -0.052 A 
ATOM     12  C   UNL     1       4.639   5.274  17.394  0.00  0.00    +0.004 A 
ATOM     13  H   UNL     1       2.779   2.532  17.682  0.00  0.00    +0.081 HD
ATOM     14  H   UNL     1       5.075   2.169  16.743  0.00  0.00    +0.165 HD
ATOM     15  H   UNL     1       7.377   3.645  16.103  0.00  0.00    +0.064 HD
ATOM     16  H   UNL     1       8.256   5.972  16.130  0.00  0.00    +0.062 HD
ATOM     17  H   UNL     1       6.853   7.833  16.948  0.00  0.00    +0.062 HD
ATOM     18  H   UNL     1       4.550   7.416  17.755  0.00  0.00    +0.062 HD
ENDBRANCH   1   4
BRANCH   1  19
ATOM     19  N   UNL     1       2.490   5.912  19.708  0.00  0.00    -0.299 NA
BRANCH  19  20
ATOM     20  C   UNL     1       1.631   5.226  20.684  0.00  0.00    -0.012 C 
ATOM     21  H   UNL     1       2.222   4.595  21.354  0.00  0.00    +0.039 HD
ATOM     22  H   UNL     1       0.928   4.538  20.202  0.00  0.00    +0.039 HD
ATOM     23  H   UNL     1       1.051   5.936  21.285  0.00  0.00    +0.039 HD
ENDBRANCH  19  20
BRANCH  19  24
ATOM     24  C   UNL     1       2.355   7.390  19.767  0.00  0.00    +0.005 C 
ATOM     25  H   UNL     1       3.317   7.835  20.053  0.00  0.00    +0.046 HD
BRANCH  24  26
ATOM     26  C   UNL     1       1.295   7.798  20.807  0.00  0.00    -0.050 C 
ATOM     27  H   UNL     1       1.307   8.870  21.019  0.00  0.00    +0.024 HD
ATOM     28  H   UNL     1       1.442   7.262  21.752  0.00  0.00    +0.024 HD
ATOM     29  H   UNL     1       0.288   7.566  20.445  0.00  0.00    +0.024 HD
ENDBRANCH  24  26
BRANCH  24  30
ATOM     30  C   UNL     1       1.940   8.029  18.429  0.00  0.00    -0.050 C 
ATOM     31  H   UNL     1       2.494   7.601  17.587  0.00  0.00    +0.024 HD
ATOM     32  H   UNL     1       0.868   7.904  18.241  0.00  0.00    +0.024 HD
ATOM     33  H   UNL     1       2.155   9.104  18.428  0.00  0.00    +0.024 HD
ENDBRANCH  24  30
ENDBRANCH  19  24
ENDBRANCH   1  19
TORSDOF 6
ENDMDL
MODEL 20
REMARK VINA RESULT:    -5.125      1.107      1.940
REMARK INTER + INTRA:          -6.923
REMARK INTER:                  -6.640
REMARK INTRA:                  -0.284
REMARK UNBOUND:                -0.449
REMARK  Name = 
REMARK  6 active torsions:
REMARK  status: ('A' for Active; 'I' for Inactive)
REMARK    1  A    between atoms: C_1  and  C_2
REMARK    2  A    between atoms: C_2  and  C_3
REMARK    3  A    between atoms: C_2  and  N_4
REMARK    4  A    between atoms: N_4  and  C_5
REMARK    5  A    between atoms: N_4  and  C_6
REMARK    6  A    between atoms: C_6  and  C_7
REMARK                            x       y       z     vdW  Elec       q    Type
REMARK                         _______ _______ _______ _____ _____    ______ ____
ROOT
ATOM      1  C   UNL     1       5.829   5.505  18.915  0.00  0.00    +0.026 C 
ATOM      2  H   UNL     1       5.999   6.567  19.116  0.00  0.00    +0.048 HD
ATOM      3  H   UNL     1       6.358   4.955  19.703  0.00  0.00    +0.048 HD
ENDROOT
BRANCH   1   4
ATOM      4  C   UNL     1       4.344   5.304  19.007  0.00  0.00    -0.008 A 
ATOM      5  C   UNL     1       3.397   6.275  19.284  0.00  0.00    +0.007 A 
ATOM      6  N   UNL     1       2.163   5.691  19.285  0.00  0.00    -0.360 N 
ATOM      7  C   UNL     1       2.272   4.345  19.028  0.00  0.00    +0.047 A 
ATOM      8  C   UNL     1       1.280   3.361  18.941  0.00  0.00    -0.038 A 
ATOM      9  C   UNL     1       1.685   2.053  18.663  0.00  0.00    -0.060 A 
ATOM     10  C   UNL     1       3.030   1.744  18.480  0.00  0.00    -0.061 A 
ATOM     11  C   UNL     1       4.010   2.740  18.570  0.00  0.00    -0.052 A 
ATOM     12  C   UNL     1       3.629   4.069  18.850  0.00  0.00    +0.004 A 
ATOM     13  H   UNL     1       3.512   7.335  19.466  0.00  0.00    +0.081 HD
ATOM     14  H   UNL     1       1.291   6.174  19.449  0.00  0.00    +0.165 HD
ATOM     15  H   UNL     1       0.231   3.599  19.081  0.00  0.00    +0.064 HD
ATOM     16  H   UNL     1       0.939   1.266  18.588  0.00  0.00    +0.062 HD
ATOM     17  H   UNL     1       3.326   0.721  18.264  0.00  0.00    +0.062 HD
ATOM     18  H   UNL     1       5.055   2.485  18.423  0.00  0.00    +0.062 HD
ENDBRANCH   1   4
BRANCH   1  19
ATOM     19  N   UNL     1       6.331   5.115  17.577  0.00  0.00    -0.299 NA
BRANCH  19  20
ATOM     20  C   UNL     1       7.626   4.436  17.721  0.00  0.00    -0.012 C 
ATOM     21  H   UNL     1       8.304   4.701  16.903  0.00  0.00    +0.039 HD
ATOM     22  H   UNL     1       7.529   3.347  17.658  0.00  0.00    +0.039 HD
ATOM     23  H   UNL     1       8.110   4.678  18.674  0.00  0.00    +0.039 HD
ENDBRANCH  19  20
BRANCH  19  24
ATOM     24  C   UNL     1       6.398   6.286  16.665  0.00  0.00    +0.005 C 
ATOM     25  H   UNL     1       7.100   6.075  15.848  0.00  0.00    +0.046 HD
BRANCH  24  26
ATOM     26  C   UNL     1       6.883   7.536  17.422  0.00  0.00    -0.050 C 
ATOM     27  H   UNL     1       6.057   8.147  17.794  0.00  0.00    +0.024 HD
ATOM     28  H   UNL     1       7.512   8.166  16.782  0.00  0.00    +0.024 HD
ATOM     29  H   UNL     1       7.477   7.253  18.298  0.00  0.00    +0.024 HD
ENDBRANCH  24  26
BRANCH  24  30
ATOM     30  C   UNL     1       5.047   6.647  16.020  0.00  0.00    -0.050 C 
ATOM     31  H   UNL     1       4.366   5.791  16.002  0.00  0.00    +0.024 HD
ATOM     32  H   UNL     1       4.558   7.471  16.551  0.00  0.00    +0.024 HD
ATOM     33  H   UNL     1       5.184   6.957  14.978  0.00  0.00    +0.024 HD
ENDBRANCH  24  30
ENDBRANCH  19  24
ENDBRANCH   1  19
TORSDOF 6
ENDMDL
MODEL 21
REMARK VINA RESULT:    -5.053      2.720      5.067
REMARK INTER + INTRA:          -6.832
REMARK INTER:                  -6.395
REMARK INTRA:                  -0.437
REMARK UNBOUND:                -0.449
REMARK  Name = 
REMARK  6 active torsions:
REMARK  status: ('A' for Active; 'I' for Inactive)
REMARK    1  A    between atoms: C_1  and  C_2
REMARK    2  A    between atoms: C_2  and  C_3
REMARK    3  A    between atoms: C_2  and  N_4
REMARK    4  A    between atoms: N_4  and  C_5
REMARK    5  A    between atoms: N_4  and  C_6
REMARK    6  A    between atoms: C_6  and  C_7
REMARK                            x       y       z     vdW  Elec       q    Type
REMARK                         _______ _______ _______ _____ _____    ______ ____
ROOT
ATOM      1  C   UNL     1       3.192   4.671  20.111  0.00  0.00    +0.026 C 
ATOM      2  H   UNL     1       4.219   4.298  20.075  0.00  0.00    +0.048 HD
ATOM      3  H   UNL     1       3.024   5.012  21.140  0.00  0.00    +0.048 HD
ENDROOT
BRANCH   1   4
ATOM      4  C   UNL     1       3.136   5.813  19.138  0.00  0.00    -0.008 A 
ATOM      5  C   UNL     1       3.763   5.876  17.906  0.00  0.00    +0.007 A 
ATOM      6  N   UNL     1       3.473   7.080  17.331  0.00  0.00    -0.360 N 
ATOM      7  C   UNL     1       2.676   7.827  18.167  0.00  0.00    +0.047 A 
ATOM      8  C   UNL     1       2.146   9.112  17.994  0.00  0.00    -0.038 A 
ATOM      9  C   UNL     1       1.356   9.631  19.024  0.00  0.00    -0.060 A 
ATOM     10  C   UNL     1       1.109   8.893  20.178  0.00  0.00    -0.061 A 
ATOM     11  C   UNL     1       1.646   7.609  20.334  0.00  0.00    -0.052 A 
ATOM     12  C   UNL     1       2.447   7.060  19.311  0.00  0.00    +0.004 A 
ATOM     13  H   UNL     1       4.380   5.148  17.395  0.00  0.00    +0.081 HD
ATOM     14  H   UNL     1       3.794   7.384  16.423  0.00  0.00    +0.165 HD
ATOM     15  H   UNL     1       2.336   9.688  17.096  0.00  0.00    +0.064 HD
ATOM     16  H   UNL     1       0.929  10.626  18.921  0.00  0.00    +0.062 HD
ATOM     17  H   UNL     1       0.491   9.314  20.967  0.00  0.00    +0.062 HD
ATOM     18  H   UNL     1       1.443   7.045  21.238  0.00  0.00    +0.062 HD
ENDBRANCH   1   4
BRANCH   1  19
ATOM     19  N   UNL     1       2.215   3.619  19.743  0.00  0.00    -0.299 NA
BRANCH  19  20
ATOM     20  C   UNL     1       1.237   3.459  20.828  0.00  0.00    -0.012 C 
ATOM     21  H   UNL     1       1.240   4.329  21.493  0.00  0.00    +0.039 HD
ATOM     22  H   UNL     1       1.480   2.612  21.479  0.00  0.00    +0.039 HD
ATOM     23  H   UNL     1       0.221   3.311  20.444  0.00  0.00    +0.039 HD
ENDBRANCH  19  20
BRANCH  19  24
ATOM     24  C   UNL     1       2.900   2.346  19.400  0.00  0.00    +0.005 C 
ATOM     25  H   UNL     1       2.361   1.505  19.854  0.00  0.00    +0.046 HD
BRANCH  24  26
ATOM     26  C   UNL     1       4.346   2.347  19.931  0.00  0.00    -0.050 C 
ATOM     27  H   UNL     1       4.433   2.829  20.908  0.00  0.00    +0.024 HD
ATOM     28  H   UNL     1       5.022   2.860  19.237  0.00  0.00    +0.024 HD
ATOM     29  H   UNL     1       4.713   1.323  20.058  0.00  0.00    +0.024 HD
ENDBRANCH  24  26
BRANCH  24  30
ATOM     30  C   UNL     1       2.977   2.072  17.887  0.00  0.00    -0.050 C 
ATOM     31  H   UNL     1       2.136   2.523  17.351  0.00  0.00    +0.024 HD
ATOM     32  H   UNL     1       3.910   2.454  17.458  0.00  0.00    +0.024 HD
ATOM     33  H   UNL     1       2.934   0.995  17.684  0.00  0.00    +0.024 HD
ENDBRANCH  24  30
ENDBRANCH  19  24
ENDBRANCH   1  19
TORSDOF 6
ENDMDL
MODEL 22
REMARK VINA RESULT:    -5.021      1.750      5.143
REMARK INTER + INTRA:          -6.791
REMARK INTER:                  -6.537
REMARK INTRA:                  -0.255
REMARK UNBOUND:                -0.449
REMARK  Name = 
REMARK  6 active torsions:
REMARK  status: ('A' for Active; 'I' for Inactive)
REMARK    1  A    between atoms: C_1  and  C_2
REMARK    2  A    between atoms: C_2  and  C_3
REMARK    3  A    between atoms: C_2  and  N_4
REMARK    4  A    between atoms: N_4  and  C_5
REMARK    5  A    between atoms: N_4  and  C_6
REMARK    6  A    between atoms: C_6  and  C_7
REMARK                            x       y       z     vdW  Elec       q    Type
REMARK                         _______ _______ _______ _____ _____    ______ ____
ROOT
ATOM      1  C   UNL     1       3.111   4.436  18.728  0.00  0.00    +0.026 C 
ATOM      2  H   UNL     1       2.587   4.731  17.814  0.00  0.00    +0.048 HD
ATOM      3  H   UNL     1       2.753   3.430  18.977  0.00  0.00    +0.048 HD
ENDROOT
BRANCH   1   4
ATOM      4  C   UNL     1       4.571   4.429  18.378  0.00  0.00    -0.008 A 
ATOM      5  C   UNL     1       5.631   4.406  19.268  0.00  0.00    +0.007 A 
ATOM      6  N   UNL     1       6.797   4.415  18.557  0.00  0.00    -0.360 N 
ATOM      7  C   UNL     1       6.531   4.458  17.208  0.00  0.00    +0.047 A 
ATOM      8  C   UNL     1       7.410   4.487  16.118  0.00  0.00    -0.038 A 
ATOM      9  C   UNL     1       6.853   4.529  14.838  0.00  0.00    -0.060 A 
ATOM     10  C   UNL     1       5.473   4.542  14.657  0.00  0.00    -0.061 A 
ATOM     11  C   UNL     1       4.609   4.511  15.758  0.00  0.00    -0.052 A 
ATOM     12  C   UNL     1       5.143   4.469  17.062  0.00  0.00    +0.004 A 
ATOM     13  H   UNL     1       5.638   4.371  20.349  0.00  0.00    +0.081 HD
ATOM     14  H   UNL     1       7.723   4.391  18.958  0.00  0.00    +0.165 HD
ATOM     15  H   UNL     1       8.485   4.476  16.256  0.00  0.00    +0.064 HD
ATOM     16  H   UNL     1       7.508   4.552  13.969  0.00  0.00    +0.062 HD
ATOM     17  H   UNL     1       5.059   4.574  13.652  0.00  0.00    +0.062 HD
ATOM     18  H   UNL     1       3.534   4.520  15.601  0.00  0.00    +0.062 HD
ENDBRANCH   1   4
BRANCH   1  19
ATOM     19  N   UNL     1       2.842   5.377  19.841  0.00  0.00    -0.299 NA
BRANCH  19  20
ATOM     20  C   UNL     1       2.173   4.659  20.935  0.00  0.00    -0.012 C 
ATOM     21  H   UNL     1       1.174   4.327  20.636  0.00  0.00    +0.039 HD
ATOM     22  H   UNL     1       2.003   5.302  21.806  0.00  0.00    +0.039 HD
ATOM     23  H   UNL     1       2.751   3.788  21.266  0.00  0.00    +0.039 HD
ENDBRANCH  19  20
BRANCH  19  24
ATOM     24  C   UNL     1       2.068   6.555  19.374  0.00  0.00    +0.005 C 
ATOM     25  H   UNL     1       1.089   6.226  19.000  0.00  0.00    +0.046 HD
BRANCH  24  26
ATOM     26  C   UNL     1       2.811   7.277  18.235  0.00  0.00    -0.050 C 
ATOM     27  H   UNL     1       2.744   6.741  17.285  0.00  0.00    +0.024 HD
ATOM     28  H   UNL     1       3.872   7.410  18.476  0.00  0.00    +0.024 HD
ATOM     29  H   UNL     1       2.382   8.269  18.059  0.00  0.00    +0.024 HD
ENDBRANCH  24  26
BRANCH  24  30
ATOM     30  C   UNL     1       1.806   7.601  20.473  0.00  0.00    -0.050 C 
ATOM     31  H   UNL     1       0.792   8.007  20.412  0.00  0.00    +0.024 HD
ATOM     32  H   UNL     1       1.952   7.176  21.472  0.00  0.00    +0.024 HD
ATOM     33  H   UNL     1       2.489   8.453  20.370  0.00  0.00    +0.024 HD
ENDBRANCH  24  30
ENDBRANCH  19  24
ENDBRANCH   1  19
TORSDOF 6
ENDMDL
MODEL 23
REMARK VINA RESULT:    -5.006      3.685      5.554
REMARK INTER + INTRA:          -6.773
REMARK INTER:                  -6.398
REMARK INTRA:                  -0.375
REMARK UNBOUND:                -0.449
REMARK  Name = 
REMARK  6 active torsions:
REMARK  status: ('A' for Active; 'I' for Inactive)
REMARK    1  A    between atoms: C_1  and  C_2
REMARK    2  A    between atoms: C_2  and  C_3
REMARK    3  A    between atoms: C_2  and  N_4
REMARK    4  A    between atoms: N_4  and  C_5
REMARK    5  A    between atoms: N_4  and  C_6
REMARK    6  A    between atoms: C_6  and  C_7
REMARK                            x       y       z     vdW  Elec       q    Type
REMARK                         _______ _______ _______ _____ _____    ______ ____
ROOT
ATOM      1  C   UNL     1       3.071   6.125  19.255  0.00  0.00    +0.026 C 
ATOM      2  H   UNL     1       3.743   5.852  18.436  0.00  0.00    +0.048 HD
ATOM      3  H   UNL     1       3.701   6.232  20.147  0.00  0.00    +0.048 HD
ENDROOT
BRANCH   1   4
ATOM      4  C   UNL     1       2.455   7.436  18.858  0.00  0.00    -0.008 A 
ATOM      5  C   UNL     1       2.574   8.063  17.630  0.00  0.00    +0.007 A 
ATOM      6  N   UNL     1       1.874   9.235  17.670  0.00  0.00    -0.360 N 
ATOM      7  C   UNL     1       1.304   9.407  18.909  0.00  0.00    +0.047 A 
ATOM      8  C   UNL     1       0.514  10.454  19.399  0.00  0.00    -0.038 A 
ATOM      9  C   UNL     1       0.063  10.363  20.719  0.00  0.00    -0.060 A 
ATOM     10  C   UNL     1       0.390   9.268  21.514  0.00  0.00    -0.061 A 
ATOM     11  C   UNL     1       1.181   8.229  21.008  0.00  0.00    -0.052 A 
ATOM     12  C   UNL     1       1.650   8.295  19.679  0.00  0.00    +0.004 A 
ATOM     13  H   UNL     1       3.092   7.753  16.732  0.00  0.00    +0.081 HD
ATOM     14  H   UNL     1       1.785   9.885  16.903  0.00  0.00    +0.165 HD
ATOM     15  H   UNL     1       0.256  11.307  18.782  0.00  0.00    +0.064 HD
ATOM     16  H   UNL     1      -0.553  11.160  21.130  0.00  0.00    +0.062 HD
ATOM     17  H   UNL     1       0.029   9.216  22.538  0.00  0.00    +0.062 HD
ATOM     18  H   UNL     1       1.426   7.381  21.639  0.00  0.00    +0.062 HD
ENDBRANCH   1   4
BRANCH   1  19
ATOM     19  N   UNL     1       2.026   5.098  19.473  0.00  0.00    -0.299 NA
BRANCH  19  20
ATOM     20  C   UNL     1       2.374   4.289  20.649  0.00  0.00    -0.012 C 
ATOM     21  H   UNL     1       2.125   4.814  21.577  0.00  0.00    +0.039 HD
ATOM     22  H   UNL     1       3.452   4.104  20.717  0.00  0.00    +0.039 HD
ATOM     23  H   UNL     1       1.864   3.319  20.643  0.00  0.00    +0.039 HD
ENDBRANCH  19  20
BRANCH  19  24
ATOM     24  C   UNL     1       1.821   4.273  18.254  0.00  0.00    +0.005 C 
ATOM     25  H   UNL     1       1.135   4.791  17.571  0.00  0.00    +0.046 HD
BRANCH  24  26
ATOM     26  C   UNL     1       1.214   2.906  18.618  0.00  0.00    -0.050 C 
ATOM     27  H   UNL     1       1.954   2.102  18.608  0.00  0.00    +0.024 HD
ATOM     28  H   UNL     1       0.408   2.635  17.927  0.00  0.00    +0.024 HD
ATOM     29  H   UNL     1       0.793   2.926  19.629  0.00  0.00    +0.024 HD
ENDBRANCH  24  26
BRANCH  24  30
ATOM     30  C   UNL     1       3.117   3.994  17.470  0.00  0.00    -0.050 C 
ATOM     31  H   UNL     1       3.276   4.730  16.675  0.00  0.00    +0.024 HD
ATOM     32  H   UNL     1       3.992   3.997  18.129  0.00  0.00    +0.024 HD
ATOM     33  H   UNL     1       3.072   3.014  16.980  0.00  0.00    +0.024 HD
ENDBRANCH  24  30
ENDBRANCH  19  24
ENDBRANCH   1  19
TORSDOF 6
ENDMDL
MODEL 24
REMARK VINA RESULT:    -4.881      3.793      4.855
REMARK INTER + INTRA:          -6.615
REMARK INTER:                  -6.223
REMARK INTRA:                  -0.391
REMARK UNBOUND:                -0.449
REMARK  Name = 
REMARK  6 active torsions:
REMARK  status: ('A' for Active; 'I' for Inactive)
REMARK    1  A    between atoms: C_1  and  C_2
REMARK    2  A    between atoms: C_2  and  C_3
REMARK    3  A    between atoms: C_2  and  N_4
REMARK    4  A    between atoms: N_4  and  C_5
REMARK    5  A    between atoms: N_4  and  C_6
REMARK    6  A    between atoms: C_6  and  C_7
REMARK                            x       y       z     vdW  Elec       q    Type
REMARK                         _______ _______ _______ _____ _____    ______ ____
ROOT
ATOM      1  C   UNL     1       2.971   6.257  19.105  0.00  0.00    +0.026 C 
ATOM      2  H   UNL     1       3.978   6.468  19.476  0.00  0.00    +0.048 HD
ATOM      3  H   UNL     1       2.463   5.692  19.896  0.00  0.00    +0.048 HD
ENDROOT
BRANCH   1   4
ATOM      4  C   UNL     1       2.326   7.596  18.887  0.00  0.00    -0.008 A 
ATOM      5  C   UNL     1       2.388   8.361  17.735  0.00  0.00    +0.007 A 
ATOM      6  N   UNL     1       1.680   9.511  17.939  0.00  0.00    -0.360 N 
ATOM      7  C   UNL     1       1.160   9.531  19.212  0.00  0.00    +0.047 A 
ATOM      8  C   UNL     1       0.382  10.504  19.851  0.00  0.00    -0.038 A 
ATOM      9  C   UNL     1      -0.012  10.256  21.169  0.00  0.00    -0.060 A 
ATOM     10  C   UNL     1       0.358   9.082  21.818  0.00  0.00    -0.061 A 
ATOM     11  C   UNL     1       1.136   8.119  21.164  0.00  0.00    -0.052 A 
ATOM     12  C   UNL     1       1.549   8.343  19.834  0.00  0.00    +0.004 A 
ATOM     13  H   UNL     1       2.871   8.164  16.787  0.00  0.00    +0.081 HD
ATOM     14  H   UNL     1       1.552  10.244  17.256  0.00  0.00    +0.165 HD
ATOM     15  H   UNL     1       0.090  11.419  19.347  0.00  0.00    +0.064 HD
ATOM     16  H   UNL     1      -0.618  10.992  21.694  0.00  0.00    +0.062 HD
ATOM     17  H   UNL     1       0.041   8.907  22.843  0.00  0.00    +0.062 HD
ATOM     18  H   UNL     1       1.416   7.207  21.682  0.00  0.00    +0.062 HD
ENDBRANCH   1   4
BRANCH   1  19
ATOM     19  N   UNL     1       3.003   5.478  17.844  0.00  0.00    -0.299 NA
BRANCH  19  20
ATOM     20  C   UNL     1       2.073   4.345  17.947  0.00  0.00    -0.012 C 
ATOM     21  H   UNL     1       1.035   4.676  17.844  0.00  0.00    +0.039 HD
ATOM     22  H   UNL     1       2.116   3.866  18.931  0.00  0.00    +0.039 HD
ATOM     23  H   UNL     1       2.278   3.579  17.189  0.00  0.00    +0.039 HD
ENDBRANCH  19  20
BRANCH  19  24
ATOM     24  C   UNL     1       4.387   5.053  17.512  0.00  0.00    +0.005 C 
ATOM     25  H   UNL     1       4.380   4.006  17.180  0.00  0.00    +0.046 HD
BRANCH  24  26
ATOM     26  C   UNL     1       5.303   5.171  18.744  0.00  0.00    -0.050 C 
ATOM     27  H   UNL     1       4.803   5.643  19.594  0.00  0.00    +0.024 HD
ATOM     28  H   UNL     1       6.203   5.752  18.514  0.00  0.00    +0.024 HD
ATOM     29  H   UNL     1       5.624   4.181  19.086  0.00  0.00    +0.024 HD
ENDBRANCH  24  26
BRANCH  24  30
ATOM     30  C   UNL     1       5.037   5.881  16.388  0.00  0.00    -0.050 C 
ATOM     31  H   UNL     1       4.550   5.707  15.424  0.00  0.00    +0.024 HD
ATOM     32  H   UNL     1       5.002   6.953  16.609  0.00  0.00    +0.024 HD
ATOM     33  H   UNL     1       6.090   5.602  16.258  0.00  0.00    +0.024 HD
ENDBRANCH  24  30
ENDBRANCH  19  24
ENDBRANCH   1  19
TORSDOF 6
ENDMDL
MODEL 25
REMARK VINA RESULT:    -4.874      2.577      4.285
REMARK INTER + INTRA:          -6.605
REMARK INTER:                  -6.161
REMARK INTRA:                  -0.444
REMARK UNBOUND:                -0.449
REMARK  Name = 
REMARK  6 active torsions:
REMARK  status: ('A' for Active; 'I' for Inactive)
REMARK    1  A    between atoms: C_1  and  C_2
REMARK    2  A    between atoms: C_2  and  C_3
REMARK    3  A    between atoms: C_2  and  N_4
REMARK    4  A    between atoms: N_4  and  C_5
REMARK    5  A    between atoms: N_4  and  C_6
REMARK    6  A    between atoms: C_6  and  C_7
REMARK                            x       y       z     vdW  Elec       q    Type
REMARK                         _______ _______ _______ _____ _____    ______ ____
ROOT
ATOM      1  C   UNL     1       3.216   7.012  19.229  0.00  0.00    +0.026 C 
ATOM      2  H   UNL     1       3.334   6.815  20.299  0.00  0.00    +0.048 HD
ATOM      3  H   UNL     1       4.110   7.566  18.918  0.00  0.00    +0.048 HD
ENDROOT
BRANCH   1   4
ATOM      4  C   UNL     1       3.148   5.665  18.570  0.00  0.00    -0.008 A 
ATOM      5  C   UNL     1       3.852   5.261  17.448  0.00  0.00    +0.007 A 
ATOM      6  N   UNL     1       3.507   3.971  17.161  0.00  0.00    -0.360 N 
ATOM      7  C   UNL     1       2.574   3.515  18.062  0.00  0.00    +0.047 A 
ATOM      8  C   UNL     1       1.939   2.269  18.148  0.00  0.00    -0.038 A 
ATOM      9  C   UNL     1       1.021   2.080  19.183  0.00  0.00    -0.060 A 
ATOM     10  C   UNL     1       0.750   3.096  20.095  0.00  0.00    -0.061 A 
ATOM     11  C   UNL     1       1.395   4.335  19.995  0.00  0.00    -0.052 A 
ATOM     12  C   UNL     1       2.326   4.555  18.959  0.00  0.00    +0.004 A 
ATOM     13  H   UNL     1       4.578   5.791  16.848  0.00  0.00    +0.081 HD
ATOM     14  H   UNL     1       3.881   3.426  16.397  0.00  0.00    +0.165 HD
ATOM     15  H   UNL     1       2.149   1.476  17.440  0.00  0.00    +0.064 HD
ATOM     16  H   UNL     1       0.511   1.124  19.278  0.00  0.00    +0.062 HD
ATOM     17  H   UNL     1       0.033   2.929  20.895  0.00  0.00    +0.062 HD
ATOM     18  H   UNL     1       1.175   5.118  20.715  0.00  0.00    +0.062 HD
ENDBRANCH   1   4
BRANCH   1  19
ATOM     19  N   UNL     1       1.991   7.797  18.950  0.00  0.00    -0.299 NA
BRANCH  19  20
ATOM     20  C   UNL     1       2.170   8.554  17.702  0.00  0.00    -0.012 C 
ATOM     21  H   UNL     1       1.289   9.164  17.481  0.00  0.00    +0.039 HD
ATOM     22  H   UNL     1       2.277   7.895  16.834  0.00  0.00    +0.039 HD
ATOM     23  H   UNL     1       3.051   9.205  17.743  0.00  0.00    +0.039 HD
ENDBRANCH  19  20
BRANCH  19  24
ATOM     24  C   UNL     1       1.637   8.668  20.100  0.00  0.00    +0.005 C 
ATOM     25  H   UNL     1       2.549   9.119  20.514  0.00  0.00    +0.046 HD
BRANCH  24  26
ATOM     26  C   UNL     1       0.945   7.852  21.207  0.00  0.00    -0.050 C 
ATOM     27  H   UNL     1       0.197   7.159  20.812  0.00  0.00    +0.024 HD
ATOM     28  H   UNL     1       0.451   8.508  21.933  0.00  0.00    +0.024 HD
ATOM     29  H   UNL     1       1.673   7.241  21.751  0.00  0.00    +0.024 HD
ENDBRANCH  24  26
BRANCH  24  30
ATOM     30  C   UNL     1       0.687   9.823  19.733  0.00  0.00    -0.050 C 
ATOM     31  H   UNL     1      -0.363   9.530  19.829  0.00  0.00    +0.024 HD
ATOM     32  H   UNL     1       0.863  10.702  20.363  0.00  0.00    +0.024 HD
ATOM     33  H   UNL     1       0.830  10.128  18.690  0.00  0.00    +0.024 HD
ENDBRANCH  24  30
ENDBRANCH  19  24
ENDBRANCH   1  19
TORSDOF 6
ENDMDL
MODEL 26
REMARK VINA RESULT:    -4.873      7.906      9.175
REMARK INTER + INTRA:          -6.604
REMARK INTER:                  -6.227
REMARK INTRA:                  -0.376
REMARK UNBOUND:                -0.449
REMARK  Name = 
REMARK  6 active torsions:
REMARK  status: ('A' for Active; 'I' for Inactive)
REMARK    1  A    between atoms: C_1  and  C_2
REMARK    2  A    between atoms: C_2  and  C_3
REMARK    3  A    between atoms: C_2  and  N_4
REMARK    4  A    between atoms: N_4  and  C_5
REMARK    5  A    between atoms: N_4  and  C_6
REMARK    6  A    between atoms: C_6  and  C_7
REMARK                            x       y       z     vdW  Elec       q    Type
REMARK                         _______ _______ _______ _____ _____    ______ ____
ROOT
ATOM      1  C   UNL     1      -0.386  10.405  19.571  0.00  0.00    +0.026 C 
ATOM      2  H   UNL     1      -0.628   9.357  19.773  0.00  0.00    +0.048 HD
ATOM      3  H   UNL     1       0.424  10.397  18.831  0.00  0.00    +0.048 HD
ENDROOT
BRANCH   1   4
ATOM      4  C   UNL     1      -1.639  11.012  19.007  0.00  0.00    -0.008 A 
ATOM      5  C   UNL     1      -2.433  11.971  19.612  0.00  0.00    +0.007 A 
ATOM      6  N   UNL     1      -3.480  12.254  18.782  0.00  0.00    -0.360 N 
ATOM      7  C   UNL     1      -3.405  11.489  17.642  0.00  0.00    +0.047 A 
ATOM      8  C   UNL     1      -4.257  11.442  16.532  0.00  0.00    -0.038 A 
ATOM      9  C   UNL     1      -3.931  10.557  15.501  0.00  0.00    -0.060 A 
ATOM     10  C   UNL     1      -2.797   9.752  15.580  0.00  0.00    -0.061 A 
ATOM     11  C   UNL     1      -1.955   9.813  16.697  0.00  0.00    -0.052 A 
ATOM     12  C   UNL     1      -2.261  10.697  17.753  0.00  0.00    +0.004 A 
ATOM     13  H   UNL     1      -2.321  12.478  20.561  0.00  0.00    +0.081 HD
ATOM     14  H   UNL     1      -4.207  12.928  18.973  0.00  0.00    +0.165 HD
ATOM     15  H   UNL     1      -5.140  12.068  16.468  0.00  0.00    +0.064 HD
ATOM     16  H   UNL     1      -4.572  10.496  14.625  0.00  0.00    +0.062 HD
ATOM     17  H   UNL     1      -2.560   9.071  14.767  0.00  0.00    +0.062 HD
ATOM     18  H   UNL     1      -1.073   9.181  16.743  0.00  0.00    +0.062 HD
ENDBRANCH   1   4
BRANCH   1  19
ATOM     19  N   UNL     1       0.035  11.116  20.801  0.00  0.00    -0.299 NA
BRANCH  19  20
ATOM     20  C   UNL     1       1.231  11.921  20.513  0.00  0.00    -0.012 C 
ATOM     21  H   UNL     1       1.329  12.113  19.440  0.00  0.00    +0.039 HD
ATOM     22  H   UNL     1       2.154  11.398  20.787  0.00  0.00    +0.039 HD
ATOM     23  H   UNL     1       1.215  12.880  21.044  0.00  0.00    +0.039 HD
ENDBRANCH  19  20
BRANCH  19  24
ATOM     24  C   UNL     1       0.242  10.168  21.925  0.00  0.00    +0.005 C 
ATOM     25  H   UNL     1       1.224  10.348  22.382  0.00  0.00    +0.046 HD
BRANCH  24  26
ATOM     26  C   UNL     1       0.190   8.713  21.426  0.00  0.00    -0.050 C 
ATOM     27  H   UNL     1      -0.679   8.170  21.805  0.00  0.00    +0.024 HD
ATOM     28  H   UNL     1       1.091   8.161  21.720  0.00  0.00    +0.024 HD
ATOM     29  H   UNL     1       0.121   8.680  20.333  0.00  0.00    +0.024 HD
ENDBRANCH  24  26
BRANCH  24  30
ATOM     30  C   UNL     1      -0.808  10.296  23.045  0.00  0.00    -0.050 C 
ATOM     31  H   UNL     1      -0.435  10.894  23.883  0.00  0.00    +0.024 HD
ATOM     32  H   UNL     1      -1.733  10.752  22.676  0.00  0.00    +0.024 HD
ATOM     33  H   UNL     1      -1.062   9.311  23.454  0.00  0.00    +0.024 HD
ENDBRANCH  24  30
ENDBRANCH  19  24
ENDBRANCH   1  19
TORSDOF 6
ENDMDL
MODEL 27
REMARK VINA RESULT:    -4.853      1.781      2.751
REMARK INTER + INTRA:          -6.579
REMARK INTER:                  -6.380
REMARK INTRA:                  -0.199
REMARK UNBOUND:                -0.449
REMARK  Name = 
REMARK  6 active torsions:
REMARK  status: ('A' for Active; 'I' for Inactive)
REMARK    1  A    between atoms: C_1  and  C_2
REMARK    2  A    between atoms: C_2  and  C_3
REMARK    3  A    between atoms: C_2  and  N_4
REMARK    4  A    between atoms: N_4  and  C_5
REMARK    5  A    between atoms: N_4  and  C_6
REMARK    6  A    between atoms: C_6  and  C_7
REMARK                            x       y       z     vdW  Elec       q    Type
REMARK                         _______ _______ _______ _____ _____    ______ ____
ROOT
ATOM      1  C   UNL     1       2.844   6.308  17.857  0.00  0.00    +0.026 C 
ATOM      2  H   UNL     1       2.519   6.571  16.846  0.00  0.00    +0.048 HD
ATOM      3  H   UNL     1       2.501   7.118  18.511  0.00  0.00    +0.048 HD
ENDROOT
BRANCH   1   4
ATOM      4  C   UNL     1       2.157   5.012  18.181  0.00  0.00    -0.008 A 
ATOM      5  C   UNL     1       1.453   4.210  17.299  0.00  0.00    +0.007 A 
ATOM      6  N   UNL     1       0.976   3.128  17.982  0.00  0.00    -0.360 N 
ATOM      7  C   UNL     1       1.337   3.203  19.307  0.00  0.00    +0.047 A 
ATOM      8  C   UNL     1       1.065   2.328  20.365  0.00  0.00    -0.038 A 
ATOM      9  C   UNL     1       1.566   2.660  21.626  0.00  0.00    -0.060 A 
ATOM     10  C   UNL     1       2.309   3.822  21.819  0.00  0.00    -0.061 A 
ATOM     11  C   UNL     1       2.572   4.686  20.749  0.00  0.00    -0.052 A 
ATOM     12  C   UNL     1       2.079   4.376  19.465  0.00  0.00    +0.004 A 
ATOM     13  H   UNL     1       1.271   4.325  16.239  0.00  0.00    +0.081 HD
ATOM     14  H   UNL     1       0.436   2.377  17.577  0.00  0.00    +0.165 HD
ATOM     15  H   UNL     1       0.488   1.422  20.218  0.00  0.00    +0.064 HD
ATOM     16  H   UNL     1       1.373   2.001  22.470  0.00  0.00    +0.062 HD
ATOM     17  H   UNL     1       2.690   4.062  22.808  0.00  0.00    +0.062 HD
ATOM     18  H   UNL     1       3.155   5.587  20.914  0.00  0.00    +0.062 HD
ENDBRANCH   1   4
BRANCH   1  19
ATOM     19  N   UNL     1       4.316   6.157  17.938  0.00  0.00    -0.299 NA
BRANCH  19  20
ATOM     20  C   UNL     1       4.958   7.194  17.119  0.00  0.00    -0.012 C 
ATOM     21  H   UNL     1       6.044   7.185  17.252  0.00  0.00    +0.039 HD
ATOM     22  H   UNL     1       4.650   8.203  17.417  0.00  0.00    +0.039 HD
ATOM     23  H   UNL     1       4.731   7.073  16.054  0.00  0.00    +0.039 HD
ENDBRANCH  19  20
BRANCH  19  24
ATOM     24  C   UNL     1       4.737   4.785  17.554  0.00  0.00    +0.005 C 
ATOM     25  H   UNL     1       3.883   4.100  17.643  0.00  0.00    +0.046 HD
BRANCH  24  26
ATOM     26  C   UNL     1       5.866   4.285  18.473  0.00  0.00    -0.050 C 
ATOM     27  H   UNL     1       6.836   4.723  18.221  0.00  0.00    +0.024 HD
ATOM     28  H   UNL     1       5.962   3.195  18.426  0.00  0.00    +0.024 HD
ATOM     29  H   UNL     1       5.667   4.558  19.515  0.00  0.00    +0.024 HD
ENDBRANCH  24  26
BRANCH  24  30
ATOM     30  C   UNL     1       5.254   4.677  16.107  0.00  0.00    -0.050 C 
ATOM     31  H   UNL     1       5.397   3.635  15.805  0.00  0.00    +0.024 HD
ATOM     32  H   UNL     1       4.567   5.155  15.400  0.00  0.00    +0.024 HD
ATOM     33  H   UNL     1       6.230   5.167  16.006  0.00  0.00    +0.024 HD
ENDBRANCH  24  30
ENDBRANCH  19  24
ENDBRANCH   1  19
TORSDOF 6
ENDMDL
MODEL 28
REMARK VINA RESULT:    -4.822      2.213      3.835
REMARK INTER + INTRA:          -6.539
REMARK INTER:                  -6.415
REMARK INTRA:                  -0.125
REMARK UNBOUND:                -0.449
REMARK  Name = 
REMARK  6 active torsions:
REMARK  status: ('A' for Active; 'I' for Inactive)
REMARK    1  A    between atoms: C_1  and  C_2
REMARK    2  A    between atoms: C_2  and  C_3
REMARK    3  A    between atoms: C_2  and  N_4
REMARK    4  A    between atoms: N_4  and  C_5
REMARK    5  A    between atoms: N_4  and  C_6
REMARK    6  A    between atoms: C_6  and  C_7
REMARK                            x       y       z     vdW  Elec       q    Type
REMARK                         _______ _______ _______ _____ _____    ______ ____
ROOT
ATOM      1  C   UNL     1       3.714   6.990  17.925  0.00  0.00    +0.026 C 
ATOM      2  H   UNL     1       4.407   7.753  18.291  0.00  0.00    +0.048 HD
ATOM      3  H   UNL     1       3.750   7.041  16.830  0.00  0.00    +0.048 HD
ENDROOT
BRANCH   1   4
ATOM      4  C   UNL     1       4.245   5.679  18.431  0.00  0.00    -0.008 A 
ATOM      5  C   UNL     1       5.422   5.485  19.134  0.00  0.00    +0.007 A 
ATOM      6  N   UNL     1       5.551   4.152  19.405  0.00  0.00    -0.360 N 
ATOM      7  C   UNL     1       4.488   3.455  18.881  0.00  0.00    +0.047 A 
ATOM      8  C   UNL     1       4.209   2.082  18.911  0.00  0.00    -0.038 A 
ATOM      9  C   UNL     1       3.038   1.645  18.288  0.00  0.00    -0.060 A 
ATOM     10  C   UNL     1       2.181   2.546  17.661  0.00  0.00    -0.061 A 
ATOM     11  C   UNL     1       2.474   3.915  17.641  0.00  0.00    -0.052 A 
ATOM     12  C   UNL     1       3.651   4.384  18.262  0.00  0.00    +0.004 A 
ATOM     13  H   UNL     1       6.164   6.196  19.470  0.00  0.00    +0.081 HD
ATOM     14  H   UNL     1       6.314   3.734  19.917  0.00  0.00    +0.165 HD
ATOM     15  H   UNL     1       4.874   1.379  19.400  0.00  0.00    +0.064 HD
ATOM     16  H   UNL     1       2.792   0.586  18.293  0.00  0.00    +0.062 HD
ATOM     17  H   UNL     1       1.274   2.186  17.182  0.00  0.00    +0.062 HD
ATOM     18  H   UNL     1       1.796   4.606  17.150  0.00  0.00    +0.062 HD
ENDBRANCH   1   4
BRANCH   1  19
ATOM     19  N   UNL     1       2.335   7.222  18.415  0.00  0.00    -0.299 NA
BRANCH  19  20
ATOM     20  C   UNL     1       1.791   8.433  17.784  0.00  0.00    -0.012 C 
ATOM     21  H   UNL     1       0.733   8.566  18.032  0.00  0.00    +0.039 HD
ATOM     22  H   UNL     1       1.814   8.372  16.690  0.00  0.00    +0.039 HD
ATOM     23  H   UNL     1       2.341   9.332  18.084  0.00  0.00    +0.039 HD
ENDBRANCH  19  20
BRANCH  19  24
ATOM     24  C   UNL     1       2.295   7.284  19.898  0.00  0.00    +0.005 C 
ATOM     25  H   UNL     1       3.319   7.346  20.291  0.00  0.00    +0.046 HD
BRANCH  24  26
ATOM     26  C   UNL     1       1.621   6.027  20.477  0.00  0.00    -0.050 C 
ATOM     27  H   UNL     1       1.079   5.456  19.720  0.00  0.00    +0.024 HD
ATOM     28  H   UNL     1       0.917   6.287  21.276  0.00  0.00    +0.024 HD
ATOM     29  H   UNL     1       2.368   5.346  20.900  0.00  0.00    +0.024 HD
ENDBRANCH  24  26
BRANCH  24  30
ATOM     30  C   UNL     1       1.525   8.500  20.447  0.00  0.00    -0.050 C 
ATOM     31  H   UNL     1       2.041   8.955  21.299  0.00  0.00    +0.024 HD
ATOM     32  H   UNL     1       1.383   9.265  19.676  0.00  0.00    +0.024 HD
ATOM     33  H   UNL     1       0.534   8.202  20.807  0.00  0.00    +0.024 HD
ENDBRANCH  24  30
ENDBRANCH  19  24
ENDBRANCH   1  19
TORSDOF 6
ENDMDL
MODEL 29
REMARK VINA RESULT:    -4.701      2.868      4.646
REMARK INTER + INTRA:          -6.387
REMARK INTER:                  -6.021
REMARK INTRA:                  -0.366
REMARK UNBOUND:                -0.449
REMARK  Name = 
REMARK  6 active torsions:
REMARK  status: ('A' for Active; 'I' for Inactive)
REMARK    1  A    between atoms: C_1  and  C_2
REMARK    2  A    between atoms: C_2  and  C_3
REMARK    3  A    between atoms: C_2  and  N_4
REMARK    4  A    between atoms: N_4  and  C_5
REMARK    5  A    between atoms: N_4  and  C_6
REMARK    6  A    between atoms: C_6  and  C_7
REMARK                            x       y       z     vdW  Elec       q    Type
REMARK                         _______ _______ _______ _____ _____    ______ ____
ROOT
ATOM      1  C   UNL     1       2.583   7.053  19.913  0.00  0.00    +0.026 C 
ATOM      2  H   UNL     1       2.595   7.334  20.970  0.00  0.00    +0.048 HD
ATOM      3  H   UNL     1       3.619   7.134  19.562  0.00  0.00    +0.048 HD
ENDROOT
BRANCH   1   4
ATOM      4  C   UNL     1       2.099   5.632  19.873  0.00  0.00    -0.008 A 
ATOM      5  C   UNL     1       1.242   5.029  20.777  0.00  0.00    +0.007 A 
ATOM      6  N   UNL     1       1.053   3.731  20.396  0.00  0.00    -0.360 N 
ATOM      7  C   UNL     1       1.781   3.455  19.263  0.00  0.00    +0.047 A 
ATOM      8  C   UNL     1       1.894   2.266  18.532  0.00  0.00    -0.038 A 
ATOM      9  C   UNL     1       2.718   2.274  17.404  0.00  0.00    -0.060 A 
ATOM     10  C   UNL     1       3.400   3.427  17.023  0.00  0.00    -0.061 A 
ATOM     11  C   UNL     1       3.275   4.608  17.765  0.00  0.00    -0.052 A 
ATOM     12  C   UNL     1       2.451   4.628  18.909  0.00  0.00    +0.004 A 
ATOM     13  H   UNL     1       0.747   5.432  21.650  0.00  0.00    +0.081 HD
ATOM     14  H   UNL     1       0.463   3.065  20.874  0.00  0.00    +0.165 HD
ATOM     15  H   UNL     1       1.363   1.368  18.826  0.00  0.00    +0.064 HD
ATOM     16  H   UNL     1       2.827   1.367  16.814  0.00  0.00    +0.062 HD
ATOM     17  H   UNL     1       4.035   3.413  16.141  0.00  0.00    +0.062 HD
ATOM     18  H   UNL     1       3.811   5.500  17.455  0.00  0.00    +0.062 HD
ENDBRANCH   1   4
BRANCH   1  19
ATOM     19  N   UNL     1       1.692   7.934  19.122  0.00  0.00    -0.299 NA
BRANCH  19  20
ATOM     20  C   UNL     1       2.362   8.308  17.869  0.00  0.00    -0.012 C 
ATOM     21  H   UNL     1       3.354   7.851  17.801  0.00  0.00    +0.039 HD
ATOM     22  H   UNL     1       2.548   9.385  17.807  0.00  0.00    +0.039 HD
ATOM     23  H   UNL     1       1.776   8.014  16.990  0.00  0.00    +0.039 HD
ENDBRANCH  19  20
BRANCH  19  24
ATOM     24  C   UNL     1       1.264   9.116  19.915  0.00  0.00    +0.005 C 
ATOM     25  H   UNL     1       2.143   9.721  20.176  0.00  0.00    +0.046 HD
BRANCH  24  26
ATOM     26  C   UNL     1       0.567   8.675  21.215  0.00  0.00    -0.050 C 
ATOM     27  H   UNL     1       1.267   8.268  21.949  0.00  0.00    +0.024 HD
ATOM     28  H   UNL     1      -0.198   7.916  21.016  0.00  0.00    +0.024 HD
ATOM     29  H   UNL     1       0.074   9.526  21.698  0.00  0.00    +0.024 HD
ENDBRANCH  24  26
BRANCH  24  30
ATOM     30  C   UNL     1       0.283  10.040  19.170  0.00  0.00    -0.050 C 
ATOM     31  H   UNL     1       0.732  10.461  18.265  0.00  0.00    +0.024 HD
ATOM     32  H   UNL     1      -0.633   9.508  18.890  0.00  0.00    +0.024 HD
ATOM     33  H   UNL     1      -0.004  10.891  19.799  0.00  0.00    +0.024 HD
ENDBRANCH  24  30
ENDBRANCH  19  24
ENDBRANCH   1  19
TORSDOF 6
ENDMDL
MODEL 30
REMARK VINA RESULT:    -4.528      2.916      4.192
REMARK INTER + INTRA:          -6.169
REMARK INTER:                  -5.795
REMARK INTRA:                  -0.374
REMARK UNBOUND:                -0.449
REMARK  Name = 
REMARK  6 active torsions:
REMARK  status: ('A' for Active; 'I' for Inactive)
REMARK    1  A    between atoms: C_1  and  C_2
REMARK    2  A    between atoms: C_2  and  C_3
REMARK    3  A    between atoms: C_2  and  N_4
REMARK    4  A    between atoms: N_4  and  C_5
REMARK    5  A    between atoms: N_4  and  C_6
REMARK    6  A    between atoms: C_6  and  C_7
REMARK                            x       y       z     vdW  Elec       q    Type
REMARK                         _______ _______ _______ _____ _____    ______ ____
ROOT
ATOM      1  C   UNL     1       1.089   5.980  20.322  0.00  0.00    +0.026 C 
ATOM      2  H   UNL     1       0.373   5.869  19.503  0.00  0.00    +0.048 HD
ATOM      3  H   UNL     1       0.496   6.160  21.227  0.00  0.00    +0.048 HD
ENDROOT
BRANCH   1   4
ATOM      4  C   UNL     1       1.827   4.674  20.399  0.00  0.00    -0.008 A 
ATOM      5  C   UNL     1       2.245   4.032  21.552  0.00  0.00    +0.007 A 
ATOM      6  N   UNL     1       2.885   2.878  21.199  0.00  0.00    -0.360 N 
ATOM      7  C   UNL     1       2.912   2.748  19.830  0.00  0.00    +0.047 A 
ATOM      8  C   UNL     1       3.463   1.737  19.032  0.00  0.00    -0.038 A 
ATOM      9  C   UNL     1       3.341   1.866  17.647  0.00  0.00    -0.060 A 
ATOM     10  C   UNL     1       2.694   2.963  17.083  0.00  0.00    -0.061 A 
ATOM     11  C   UNL     1       2.148   3.964  17.896  0.00  0.00    -0.052 A 
ATOM     12  C   UNL     1       2.257   3.861  19.298  0.00  0.00    +0.004 A 
ATOM     13  H   UNL     1       2.123   4.306  22.591  0.00  0.00    +0.081 HD
ATOM     14  H   UNL     1       3.281   2.211  21.845  0.00  0.00    +0.165 HD
ATOM     15  H   UNL     1       3.965   0.881  19.468  0.00  0.00    +0.064 HD
ATOM     16  H   UNL     1       3.757   1.098  16.999  0.00  0.00    +0.062 HD
ATOM     17  H   UNL     1       2.609   3.045  16.003  0.00  0.00    +0.062 HD
ATOM     18  H   UNL     1       1.645   4.813  17.442  0.00  0.00    +0.062 HD
ENDBRANCH   1   4
BRANCH   1  19
ATOM     19  N   UNL     1       2.028   7.100  20.081  0.00  0.00    -0.299 NA
BRANCH  19  20
ATOM     20  C   UNL     1       1.642   8.248  20.914  0.00  0.00    -0.012 C 
ATOM     21  H   UNL     1       2.001   9.188  20.481  0.00  0.00    +0.039 HD
ATOM     22  H   UNL     1       2.101   8.208  21.908  0.00  0.00    +0.039 HD
ATOM     23  H   UNL     1       0.556   8.311  21.044  0.00  0.00    +0.039 HD
ENDBRANCH  19  20
BRANCH  19  24
ATOM     24  C   UNL     1       2.098   7.441  18.636  0.00  0.00    +0.005 C 
ATOM     25  H   UNL     1       1.395   6.810  18.076  0.00  0.00    +0.046 HD
BRANCH  24  26
ATOM     26  C   UNL     1       3.517   7.202  18.090  0.00  0.00    -0.050 C 
ATOM     27  H   UNL     1       3.922   6.230  18.385  0.00  0.00    +0.024 HD
ATOM     28  H   UNL     1       4.210   7.978  18.434  0.00  0.00    +0.024 HD
ATOM     29  H   UNL     1       3.519   7.216  16.994  0.00  0.00    +0.024 HD
ENDBRANCH  24  26
BRANCH  24  30
ATOM     30  C   UNL     1       1.738   8.906  18.327  0.00  0.00    -0.050 C 
ATOM     31  H   UNL     1       2.627   9.544  18.303  0.00  0.00    +0.024 HD
ATOM     32  H   UNL     1       1.217   8.996  17.368  0.00  0.00    +0.024 HD
ATOM     33  H   UNL     1       1.081   9.317  19.102  0.00  0.00    +0.024 HD
ENDBRANCH  24  30
ENDBRANCH  19  24
ENDBRANCH   1  19
TORSDOF 6
ENDMDL
MODEL 31
REMARK VINA RESULT:    -4.526      5.903      7.580
REMARK INTER + INTRA:          -6.166
REMARK INTER:                  -5.968
REMARK INTRA:                  -0.198
REMARK UNBOUND:                -0.449
REMARK  Name = 
REMARK  6 active torsions:
REMARK  status: ('A' for Active; 'I' for Inactive)
REMARK    1  A    between atoms: C_1  and  C_2
REMARK    2  A    between atoms: C_2  and  C_3
REMARK    3  A    between atoms: C_2  and  N_4
REMARK    4  A    between atoms: N_4  and  C_5
REMARK    5  A    between atoms: N_4  and  C_6
REMARK    6  A    between atoms: C_6  and  C_7
REMARK                            x       y       z     vdW  Elec       q    Type
REMARK                         _______ _______ _______ _____ _____    ______ ____
ROOT
ATOM      1  C   UNL     1      -0.086  11.386  20.142  0.00  0.00    +0.026 C 
ATOM      2  H   UNL     1      -0.907  11.497  20.856  0.00  0.00    +0.048 HD
ATOM      3  H   UNL     1       0.614  12.205  20.349  0.00  0.00    +0.048 HD
ENDROOT
BRANCH   1   4
ATOM      4  C   UNL     1       0.531  10.049  20.433  0.00  0.00    -0.008 A 
ATOM      5  C   UNL     1       0.509   9.378  21.644  0.00  0.00    +0.007 A 
ATOM      6  N   UNL     1       1.185   8.201  21.501  0.00  0.00    -0.360 N 
ATOM      7  C   UNL     1       1.670   8.082  20.220  0.00  0.00    +0.047 A 
ATOM      8  C   UNL     1       2.419   7.055  19.632  0.00  0.00    -0.038 A 
ATOM      9  C   UNL     1       2.780   7.202  18.290  0.00  0.00    -0.060 A 
ATOM     10  C   UNL     1       2.405   8.331  17.567  0.00  0.00    -0.061 A 
ATOM     11  C   UNL     1       1.655   9.348  18.170  0.00  0.00    -0.052 A 
ATOM     12  C   UNL     1       1.278   9.227  19.524  0.00  0.00    +0.004 A 
ATOM     13  H   UNL     1       0.052   9.648  22.587  0.00  0.00    +0.081 HD
ATOM     14  H   UNL     1       1.313   7.511  22.228  0.00  0.00    +0.165 HD
ATOM     15  H   UNL     1       2.711   6.174  20.192  0.00  0.00    +0.064 HD
ATOM     16  H   UNL     1       3.361   6.422  17.803  0.00  0.00    +0.062 HD
ATOM     17  H   UNL     1       2.694   8.426  16.523  0.00  0.00    +0.062 HD
ATOM     18  H   UNL     1       1.368  10.222  17.593  0.00  0.00    +0.062 HD
ENDBRANCH   1   4
BRANCH   1  19
ATOM     19  N   UNL     1      -0.565  11.450  18.741  0.00  0.00    -0.299 NA
BRANCH  19  20
ATOM     20  C   UNL     1      -0.662  12.856  18.322  0.00  0.00    -0.012 C 
ATOM     21  H   UNL     1       0.316  13.247  18.025  0.00  0.00    +0.039 HD
ATOM     22  H   UNL     1      -0.984  13.508  19.141  0.00  0.00    +0.039 HD
ATOM     23  H   UNL     1      -1.363  12.986  17.490  0.00  0.00    +0.039 HD
ENDBRANCH  19  20
BRANCH  19  24
ATOM     24  C   UNL     1      -1.847  10.717  18.578  0.00  0.00    +0.005 C 
ATOM     25  H   UNL     1      -1.956   9.984  19.389  0.00  0.00    +0.046 HD
BRANCH  24  26
ATOM     26  C   UNL     1      -1.879   9.970  17.232  0.00  0.00    -0.050 C 
ATOM     27  H   UNL     1      -1.590  10.608  16.392  0.00  0.00    +0.024 HD
ATOM     28  H   UNL     1      -2.877   9.567  17.027  0.00  0.00    +0.024 HD
ATOM     29  H   UNL     1      -1.175   9.131  17.238  0.00  0.00    +0.024 HD
ENDBRANCH  24  26
BRANCH  24  30
ATOM     30  C   UNL     1      -3.090  11.625  18.618  0.00  0.00    -0.050 C 
ATOM     31  H   UNL     1      -3.903  11.173  19.195  0.00  0.00    +0.024 HD
ATOM     32  H   UNL     1      -2.857  12.604  19.050  0.00  0.00    +0.024 HD
ATOM     33  H   UNL     1      -3.482  11.792  17.608  0.00  0.00    +0.024 HD
ENDBRANCH  24  30
ENDBRANCH  19  24
ENDBRANCH   1  19
TORSDOF 6
ENDMDL
MODEL 32
REMARK VINA RESULT:    -4.513      3.078      5.368
REMARK INTER + INTRA:          -6.150
REMARK INTER:                  -5.852
REMARK INTRA:                  -0.298
REMARK UNBOUND:                -0.449
REMARK  Name = 
REMARK  6 active torsions:
REMARK  status: ('A' for Active; 'I' for Inactive)
REMARK    1  A    between atoms: C_1  and  C_2
REMARK    2  A    between atoms: C_2  and  C_3
REMARK    3  A    between atoms: C_2  and  N_4
REMARK    4  A    between atoms: N_4  and  C_5
REMARK    5  A    between atoms: N_4  and  C_6
REMARK    6  A    between atoms: C_6  and  C_7
REMARK                            x       y       z     vdW  Elec       q    Type
REMARK                         _______ _______ _______ _____ _____    ______ ____
ROOT
ATOM      1  C   UNL     1       2.562   7.576  19.668  0.00  0.00    +0.026 C 
ATOM      2  H   UNL     1       2.361   7.369  20.723  0.00  0.00    +0.048 HD
ATOM      3  H   UNL     1       3.516   8.116  19.638  0.00  0.00    +0.048 HD
ENDROOT
BRANCH   1   4
ATOM      4  C   UNL     1       2.667   6.235  19.001  0.00  0.00    -0.008 A 
ATOM      5  C   UNL     1       1.883   5.124  19.259  0.00  0.00    +0.007 A 
ATOM      6  N   UNL     1       2.297   4.104  18.451  0.00  0.00    -0.360 N 
ATOM      7  C   UNL     1       3.352   4.512  17.670  0.00  0.00    +0.047 A 
ATOM      8  C   UNL     1       4.089   3.806  16.711  0.00  0.00    -0.038 A 
ATOM      9  C   UNL     1       5.123   4.482  16.060  0.00  0.00    -0.060 A 
ATOM     10  C   UNL     1       5.407   5.813  16.358  0.00  0.00    -0.061 A 
ATOM     11  C   UNL     1       4.660   6.504  17.318  0.00  0.00    -0.052 A 
ATOM     12  C   UNL     1       3.610   5.846  17.992  0.00  0.00    +0.004 A 
ATOM     13  H   UNL     1       1.058   4.992  19.946  0.00  0.00    +0.081 HD
ATOM     14  H   UNL     1       1.889   3.180  18.426  0.00  0.00    +0.165 HD
ATOM     15  H   UNL     1       3.869   2.770  16.476  0.00  0.00    +0.064 HD
ATOM     16  H   UNL     1       5.714   3.963  15.310  0.00  0.00    +0.062 HD
ATOM     17  H   UNL     1       6.216   6.322  15.839  0.00  0.00    +0.062 HD
ATOM     18  H   UNL     1       4.891   7.542  17.539  0.00  0.00    +0.062 HD
ENDBRANCH   1   4
BRANCH   1  19
ATOM     19  N   UNL     1       1.483   8.386  19.055  0.00  0.00    -0.299 NA
BRANCH  19  20
ATOM     20  C   UNL     1       2.005   9.069  17.863  0.00  0.00    -0.012 C 
ATOM     21  H   UNL     1       3.054   9.353  17.997  0.00  0.00    +0.039 HD
ATOM     22  H   UNL     1       1.485  10.014  17.670  0.00  0.00    +0.039 HD
ATOM     23  H   UNL     1       1.919   8.446  16.965  0.00  0.00    +0.039 HD
ENDBRANCH  19  20
BRANCH  19  24
ATOM     24  C   UNL     1       0.892   9.328  20.040  0.00  0.00    +0.005 C 
ATOM     25  H   UNL     1       1.633  10.092  20.308  0.00  0.00    +0.046 HD
BRANCH  24  26
ATOM     26  C   UNL     1       0.468   8.582  21.318  0.00  0.00    -0.050 C 
ATOM     27  H   UNL     1      -0.577   8.763  21.582  0.00  0.00    +0.024 HD
ATOM     28  H   UNL     1       1.091   8.875  22.172  0.00  0.00    +0.024 HD
ATOM     29  H   UNL     1       0.570   7.499  21.187  0.00  0.00    +0.024 HD
ENDBRANCH  24  26
BRANCH  24  30
ATOM     30  C   UNL     1      -0.354  10.068  19.518  0.00  0.00    -0.050 C 
ATOM     31  H   UNL     1      -0.983  10.429  20.338  0.00  0.00    +0.024 HD
ATOM     32  H   UNL     1      -0.078  10.921  18.888  0.00  0.00    +0.024 HD
ATOM     33  H   UNL     1      -0.981   9.399  18.917  0.00  0.00    +0.024 HD
ENDBRANCH  24  30
ENDBRANCH  19  24
ENDBRANCH   1  19
TORSDOF 6
ENDMDL
MODEL 33
REMARK VINA RESULT:    -4.469      7.002      8.061
REMARK INTER + INTRA:          -6.095
REMARK INTER:                  -5.645
REMARK INTRA:                  -0.449
REMARK UNBOUND:                -0.449
REMARK  Name = 
REMARK  6 active torsions:
REMARK  status: ('A' for Active; 'I' for Inactive)
REMARK    1  A    between atoms: C_1  and  C_2
REMARK    2  A    between atoms: C_2  and  C_3
REMARK    3  A    between atoms: C_2  and  N_4
REMARK    4  A    between atoms: N_4  and  C_5
REMARK    5  A    between atoms: N_4  and  C_6
REMARK    6  A    between atoms: C_6  and  C_7
REMARK                            x       y       z     vdW  Elec       q    Type
REMARK                         _______ _______ _______ _____ _____    ______ ____
ROOT
ATOM      1  C   UNL     1       0.796  10.686  19.519  0.00  0.00    +0.026 C 
ATOM      2  H   UNL     1       1.254  10.834  18.537  0.00  0.00    +0.048 HD
ATOM      3  H   UNL     1       1.383  11.284  20.226  0.00  0.00    +0.048 HD
ENDROOT
BRANCH   1   4
ATOM      4  C   UNL     1      -0.609  11.202  19.397  0.00  0.00    -0.008 A 
ATOM      5  C   UNL     1      -1.237  12.090  20.253  0.00  0.00    +0.007 A 
ATOM      6  N   UNL     1      -2.509  12.302  19.803  0.00  0.00    -0.360 N 
ATOM      7  C   UNL     1      -2.744  11.558  18.671  0.00  0.00    +0.047 A 
ATOM      8  C   UNL     1      -3.897  11.459  17.882  0.00  0.00    -0.038 A 
ATOM      9  C   UNL     1      -3.851  10.614  16.770  0.00  0.00    -0.060 A 
ATOM     10  C   UNL     1      -2.697   9.898  16.462  0.00  0.00    -0.061 A 
ATOM     11  C   UNL     1      -1.553  10.010  17.261  0.00  0.00    -0.052 A 
ATOM     12  C   UNL     1      -1.571  10.855  18.390  0.00  0.00    +0.004 A 
ATOM     13  H   UNL     1      -0.867  12.593  21.137  0.00  0.00    +0.081 HD
ATOM     14  H   UNL     1      -3.184  12.917  20.235  0.00  0.00    +0.165 HD
ATOM     15  H   UNL     1      -4.796  12.017  18.119  0.00  0.00    +0.064 HD
ATOM     16  H   UNL     1      -4.729  10.514  16.137  0.00  0.00    +0.062 HD
ATOM     17  H   UNL     1      -2.682   9.246  15.592  0.00  0.00    +0.062 HD
ATOM     18  H   UNL     1      -0.660   9.447  17.007  0.00  0.00    +0.062 HD
ENDBRANCH   1   4
BRANCH   1  19
ATOM     19  N   UNL     1       0.798   9.258  19.915  0.00  0.00    -0.299 NA
BRANCH  19  20
ATOM     20  C   UNL     1       0.749   9.158  21.380  0.00  0.00    -0.012 C 
ATOM     21  H   UNL     1       1.592   8.576  21.765  0.00  0.00    +0.039 HD
ATOM     22  H   UNL     1      -0.140   8.619  21.726  0.00  0.00    +0.039 HD
ATOM     23  H   UNL     1       0.753  10.145  21.857  0.00  0.00    +0.039 HD
ENDBRANCH  19  20
BRANCH  19  24
ATOM     24  C   UNL     1       1.963   8.541  19.333  0.00  0.00    +0.005 C 
ATOM     25  H   UNL     1       2.890   9.060  19.610  0.00  0.00    +0.046 HD
BRANCH  24  26
ATOM     26  C   UNL     1       1.863   8.500  17.797  0.00  0.00    -0.050 C 
ATOM     27  H   UNL     1       2.842   8.525  17.313  0.00  0.00    +0.024 HD
ATOM     28  H   UNL     1       1.272   9.341  17.416  0.00  0.00    +0.024 HD
ATOM     29  H   UNL     1       1.379   7.575  17.465  0.00  0.00    +0.024 HD
ENDBRANCH  24  26
BRANCH  24  30
ATOM     30  C   UNL     1       2.097   7.085  19.814  0.00  0.00    -0.050 C 
ATOM     31  H   UNL     1       2.430   7.031  20.855  0.00  0.00    +0.024 HD
ATOM     32  H   UNL     1       1.149   6.543  19.722  0.00  0.00    +0.024 HD
ATOM     33  H   UNL     1       2.846   6.547  19.221  0.00  0.00    +0.024 HD
ENDBRANCH  24  30
ENDBRANCH  19  24
ENDBRANCH   1  19
TORSDOF 6
ENDMDL
