MODEL 1
REMARK VINA RESULT:    -5.620      0.000      0.000
REMARK INTER + INTRA:          -6.798
REMARK INTER:                  -6.580
REMARK INTRA:                  -0.218
REMARK UNBOUND:                -0.192
REMARK  Name = 
REMARK  4 active torsions:
REMARK  status: ('A' for Active; 'I' for Inactive)
REMARK    1  A    between atoms: C_1  and  C_2
REMARK    2  A    between atoms: N_7  and  C_10
REMARK    3  A    between atoms: C_13  and  O_16
REMARK    4  A    between atoms: O_16  and  C_17
REMARK                            x       y       z     vdW  Elec       q    Type
REMARK                         _______ _______ _______ _____ _____    ______ ____
ROOT
ATOM      1  C   UNL     1       1.681   3.114  20.526  0.00  0.00    +0.213 C 
ATOM      2  O   UNL     1       0.469   3.245  20.357  0.00  0.00    -0.276 OA
ATOM      3  N   UNL     1       2.611   3.466  19.563  0.00  0.00    -0.299 N 
ATOM      4  C   UNL     1       2.145   3.952  18.262  0.00  0.00    +0.030 C 
ATOM      5  C   UNL     1       3.078   3.550  17.105  0.00  0.00    +0.028 C 
ATOM      6  N   UNL     1       4.476   3.956  17.353  0.00  0.00    -0.327 N 
ATOM      7  C   UNL     1       4.854   4.253  18.743  0.00  0.00    +0.028 C 
ATOM      8  C   UNL     1       4.063   3.382  19.740  0.00  0.00    +0.030 C 
ATOM      9  H   UNL     1       2.092   5.044  18.337  0.00  0.00    +0.048 HD
ATOM     10  H   UNL     1       1.131   3.588  18.060  0.00  0.00    +0.048 HD
ATOM     11  H   UNL     1       3.047   2.462  16.975  0.00  0.00    +0.048 HD
ATOM     12  H   UNL     1       2.688   4.017  16.192  0.00  0.00    +0.048 HD
ATOM     13  H   UNL     1       4.664   5.313  18.948  0.00  0.00    +0.048 HD
ATOM     14  H   UNL     1       5.919   4.055  18.911  0.00  0.00    +0.048 HD
ATOM     15  H   UNL     1       4.326   3.667  20.763  0.00  0.00    +0.048 HD
ATOM     16  H   UNL     1       4.334   2.328  19.606  0.00  0.00    +0.048 HD
ENDROOT
BRANCH   6  17
ATOM     17  C   UNL     1       5.326   4.230  16.292  0.00  0.00    +0.030 A 
ATOM     18  C   UNL     1       6.547   4.898  16.465  0.00  0.00    -0.037 A 
ATOM     19  C   UNL     1       7.412   5.172  15.391  0.00  0.00    -0.018 A 
ATOM     20  C   UNL     1       7.075   4.777  14.102  0.00  0.00    +0.120 A 
ATOM     21  C   UNL     1       5.871   4.108  13.904  0.00  0.00    -0.018 A 
ATOM     22  C   UNL     1       5.015   3.840  14.980  0.00  0.00    -0.037 A 
ATOM     23  H   UNL     1       6.852   5.249  17.447  0.00  0.00    +0.064 HD
ATOM     24  H   UNL     1       8.334   5.701  15.605  0.00  0.00    +0.065 HD
ATOM     25  H   UNL     1       5.593   3.783  12.905  0.00  0.00    +0.065 HD
ATOM     26  H   UNL     1       4.102   3.291  14.768  0.00  0.00    +0.064 HD
BRANCH  20  27
ATOM     27  O   UNL     1       7.817   4.977  12.973  0.00  0.00    -0.495 OA
BRANCH  27  28
ATOM     28  C   UNL     1       7.329   4.393  11.772  0.00  0.00    +0.079 C 
ATOM     29  H   UNL     1       6.492   3.718  11.974  0.00  0.00    +0.066 HD
ATOM     30  H   UNL     1       8.130   3.878  11.229  0.00  0.00    +0.066 HD
ATOM     31  H   UNL     1       6.960   5.201  11.134  0.00  0.00    +0.066 HD
ENDBRANCH  27  28
ENDBRANCH  20  27
ENDBRANCH   6  17
BRANCH   1  32
ATOM     32  C   UNL     1       2.215   2.559  21.822  0.00  0.00    +0.012 C 
ATOM     33  H   UNL     1       2.163   3.309  22.615  0.00  0.00    +0.032 HD
ATOM     34  H   UNL     1       3.266   2.284  21.690  0.00  0.00    +0.032 HD
ATOM     35  H   UNL     1       1.654   1.665  22.103  0.00  0.00    +0.032 HD
ENDBRANCH   1  32
TORSDOF 4
ENDMDL
MODEL 2
REMARK VINA RESULT:    -5.484      3.938      4.386
REMARK INTER + INTRA:          -6.639
REMARK INTER:                  -6.435
REMARK INTRA:                  -0.204
REMARK UNBOUND:                -0.192
REMARK  Name = 
REMARK  4 active torsions:
REMARK  status: ('A' for Active; 'I' for Inactive)
REMARK    1  A    between atoms: C_1  and  C_2
REMARK    2  A    between atoms: N_7  and  C_10
REMARK    3  A    between atoms: C_13  and  O_16
REMARK    4  A    between atoms: O_16  and  C_17
REMARK                            x       y       z     vdW  Elec       q    Type
REMARK                         _______ _______ _______ _____ _____    ______ ____
ROOT
ATOM      1  C   UNL     1       0.447   9.422  20.687  0.00  0.00    +0.213 C 
ATOM      2  O   UNL     1       0.274  10.587  20.334  0.00  0.00    -0.276 OA
ATOM      3  N   UNL     1       1.308   8.561  20.029  0.00  0.00    -0.299 N 
ATOM      4  C   UNL     1       1.995   9.023  18.820  0.00  0.00    +0.030 C 
ATOM      5  C   UNL     1       2.223   7.897  17.794  0.00  0.00    +0.028 C 
ATOM      6  N   UNL     1       2.916   6.737  18.388  0.00  0.00    -0.327 N 
ATOM      7  C   UNL     1       2.895   6.619  19.854  0.00  0.00    +0.028 C 
ATOM      8  C   UNL     1       1.589   7.185  20.446  0.00  0.00    +0.030 C 
ATOM      9  H   UNL     1       2.959   9.431  19.146  0.00  0.00    +0.048 HD
ATOM     10  H   UNL     1       1.435   9.840  18.351  0.00  0.00    +0.048 HD
ATOM     11  H   UNL     1       1.255   7.564  17.401  0.00  0.00    +0.048 HD
ATOM     12  H   UNL     1       2.802   8.321  16.965  0.00  0.00    +0.048 HD
ATOM     13  H   UNL     1       3.754   7.159  20.270  0.00  0.00    +0.048 HD
ATOM     14  H   UNL     1       2.966   5.569  20.164  0.00  0.00    +0.048 HD
ATOM     15  H   UNL     1       1.630   7.133  21.538  0.00  0.00    +0.048 HD
ATOM     16  H   UNL     1       0.739   6.577  20.114  0.00  0.00    +0.048 HD
ENDROOT
BRANCH   6  17
ATOM     17  C   UNL     1       3.712   5.917  17.601  0.00  0.00    +0.030 A 
ATOM     18  C   UNL     1       3.614   4.518  17.642  0.00  0.00    -0.037 A 
ATOM     19  C   UNL     1       4.416   3.686  16.842  0.00  0.00    -0.018 A 
ATOM     20  C   UNL     1       5.344   4.239  15.967  0.00  0.00    +0.120 A 
ATOM     21  C   UNL     1       5.456   5.624  15.904  0.00  0.00    -0.018 A 
ATOM     22  C   UNL     1       4.654   6.446  16.706  0.00  0.00    -0.037 A 
ATOM     23  H   UNL     1       2.921   4.031  18.323  0.00  0.00    +0.064 HD
ATOM     24  H   UNL     1       4.287   2.614  16.937  0.00  0.00    +0.065 HD
ATOM     25  H   UNL     1       6.170   6.076  15.220  0.00  0.00    +0.065 HD
ATOM     26  H   UNL     1       4.768   7.520  16.593  0.00  0.00    +0.064 HD
BRANCH  20  27
ATOM     27  O   UNL     1       6.182   3.552  15.135  0.00  0.00    -0.495 OA
BRANCH  27  28
ATOM     28  C   UNL     1       6.172   3.925  13.763  0.00  0.00    +0.079 C 
ATOM     29  H   UNL     1       6.016   3.054  13.119  0.00  0.00    +0.066 HD
ATOM     30  H   UNL     1       7.090   4.459  13.491  0.00  0.00    +0.066 HD
ATOM     31  H   UNL     1       5.332   4.608  13.609  0.00  0.00    +0.066 HD
ENDBRANCH  27  28
ENDBRANCH  20  27
ENDBRANCH   6  17
BRANCH   1  32
ATOM     32  C   UNL     1      -0.283   8.872  21.886  0.00  0.00    +0.012 C 
ATOM     33  H   UNL     1       0.024   7.842  22.088  0.00  0.00    +0.032 HD
ATOM     34  H   UNL     1      -1.358   8.867  21.683  0.00  0.00    +0.032 HD
ATOM     35  H   UNL     1      -0.096   9.504  22.758  0.00  0.00    +0.032 HD
ENDBRANCH   1  32
TORSDOF 4
ENDMDL
MODEL 3
REMARK VINA RESULT:    -5.452      5.774      6.818
REMARK INTER + INTRA:          -6.600
REMARK INTER:                  -6.378
REMARK INTRA:                  -0.222
REMARK UNBOUND:                -0.192
REMARK  Name = 
REMARK  4 active torsions:
REMARK  status: ('A' for Active; 'I' for Inactive)
REMARK    1  A    between atoms: C_1  and  C_2
REMARK    2  A    between atoms: N_7  and  C_10
REMARK    3  A    between atoms: C_13  and  O_16
REMARK    4  A    between atoms: O_16  and  C_17
REMARK                            x       y       z     vdW  Elec       q    Type
REMARK                         _______ _______ _______ _____ _____    ______ ____
ROOT
ATOM      1  C   UNL     1      -0.780  11.219  22.366  0.00  0.00    +0.213 C 
ATOM      2  O   UNL     1      -1.506  10.820  23.276  0.00  0.00    -0.276 OA
ATOM      3  N   UNL     1      -0.097  10.361  21.523  0.00  0.00    -0.299 N 
ATOM      4  C   UNL     1      -0.179   8.916  21.754  0.00  0.00    +0.030 C 
ATOM      5  C   UNL     1       1.117   8.176  21.376  0.00  0.00    +0.028 C 
ATOM      6  N   UNL     1       1.539   8.468  19.992  0.00  0.00    -0.327 N 
ATOM      7  C   UNL     1       0.982   9.673  19.359  0.00  0.00    +0.028 C 
ATOM      8  C   UNL     1       0.732  10.788  20.393  0.00  0.00    +0.030 C 
ATOM      9  H   UNL     1      -1.011   8.549  21.142  0.00  0.00    +0.048 HD
ATOM     10  H   UNL     1      -0.428   8.711  22.802  0.00  0.00    +0.048 HD
ATOM     11  H   UNL     1       1.920   8.477  22.059  0.00  0.00    +0.048 HD
ATOM     12  H   UNL     1       0.934   7.103  21.514  0.00  0.00    +0.048 HD
ATOM     13  H   UNL     1       0.040   9.413  18.861  0.00  0.00    +0.048 HD
ATOM     14  H   UNL     1       1.670  10.074  18.606  0.00  0.00    +0.048 HD
ATOM     15  H   UNL     1       0.266  11.647  19.899  0.00  0.00    +0.048 HD
ATOM     16  H   UNL     1       1.688  11.122  20.815  0.00  0.00    +0.048 HD
ENDROOT
BRANCH   6  17
ATOM     17  C   UNL     1       2.271   7.536  19.270  0.00  0.00    +0.030 A 
ATOM     18  C   UNL     1       2.925   7.864  18.073  0.00  0.00    -0.037 A 
ATOM     19  C   UNL     1       3.671   6.922  17.343  0.00  0.00    -0.018 A 
ATOM     20  C   UNL     1       3.786   5.614  17.799  0.00  0.00    +0.120 A 
ATOM     21  C   UNL     1       3.151   5.265  18.987  0.00  0.00    -0.018 A 
ATOM     22  C   UNL     1       2.409   6.210  19.708  0.00  0.00    -0.037 A 
ATOM     23  H   UNL     1       2.852   8.866  17.658  0.00  0.00    +0.064 HD
ATOM     24  H   UNL     1       4.140   7.251  16.422  0.00  0.00    +0.065 HD
ATOM     25  H   UNL     1       3.236   4.250  19.365  0.00  0.00    +0.065 HD
ATOM     26  H   UNL     1       1.958   5.886  20.641  0.00  0.00    +0.064 HD
BRANCH  20  27
ATOM     27  O   UNL     1       4.476   4.603  17.193  0.00  0.00    -0.495 OA
BRANCH  27  28
ATOM     28  C   UNL     1       4.097   3.275  17.532  0.00  0.00    +0.079 C 
ATOM     29  H   UNL     1       4.221   2.600  16.680  0.00  0.00    +0.066 HD
ATOM     30  H   UNL     1       3.072   3.243  17.917  0.00  0.00    +0.066 HD
ATOM     31  H   UNL     1       4.763   2.931  18.330  0.00  0.00    +0.066 HD
ENDBRANCH  27  28
ENDBRANCH  20  27
ENDBRANCH   6  17
BRANCH   1  32
ATOM     32  C   UNL     1      -0.606  12.697  22.122  0.00  0.00    +0.012 C 
ATOM     33  H   UNL     1      -1.519  13.131  21.706  0.00  0.00    +0.032 HD
ATOM     34  H   UNL     1       0.198  12.851  21.395  0.00  0.00    +0.032 HD
ATOM     35  H   UNL     1      -0.334  13.199  23.054  0.00  0.00    +0.032 HD
ENDBRANCH   1  32
TORSDOF 4
ENDMDL
MODEL 4
REMARK VINA RESULT:    -5.418      5.737      6.687
REMARK INTER + INTRA:          -6.561
REMARK INTER:                  -6.338
REMARK INTRA:                  -0.223
REMARK UNBOUND:                -0.192
REMARK  Name = 
REMARK  4 active torsions:
REMARK  status: ('A' for Active; 'I' for Inactive)
REMARK    1  A    between atoms: C_1  and  C_2
REMARK    2  A    between atoms: N_7  and  C_10
REMARK    3  A    between atoms: C_13  and  O_16
REMARK    4  A    between atoms: O_16  and  C_17
REMARK                            x       y       z     vdW  Elec       q    Type
REMARK                         _______ _______ _______ _____ _____    ______ ____
ROOT
ATOM      1  C   UNL     1      -0.761  11.161  22.414  0.00  0.00    +0.213 C 
ATOM      2  O   UNL     1      -1.453  10.758  23.348  0.00  0.00    -0.276 OA
ATOM      3  N   UNL     1      -0.083  10.306  21.563  0.00  0.00    -0.299 N 
ATOM      4  C   UNL     1      -0.128   8.864  21.813  0.00  0.00    +0.030 C 
ATOM      5  C   UNL     1       1.173   8.146  21.408  0.00  0.00    +0.028 C 
ATOM      6  N   UNL     1       1.551   8.430  20.009  0.00  0.00    -0.327 N 
ATOM      7  C   UNL     1       0.951   9.614  19.378  0.00  0.00    +0.028 C 
ATOM      8  C   UNL     1       0.705  10.737  20.404  0.00  0.00    +0.030 C 
ATOM      9  H   UNL     1      -0.969   8.471  21.228  0.00  0.00    +0.048 HD
ATOM     10  H   UNL     1      -0.344   8.666  22.869  0.00  0.00    +0.048 HD
ATOM     11  H   UNL     1       1.987   8.473  22.064  0.00  0.00    +0.048 HD
ATOM     12  H   UNL     1       1.016   7.071  21.564  0.00  0.00    +0.048 HD
ATOM     13  H   UNL     1       0.001   9.329  18.909  0.00  0.00    +0.048 HD
ATOM     14  H   UNL     1       1.609  10.021  18.601  0.00  0.00    +0.048 HD
ATOM     15  H   UNL     1       0.208  11.579  19.914  0.00  0.00    +0.048 HD
ATOM     16  H   UNL     1       1.665  11.097  20.796  0.00  0.00    +0.048 HD
ENDROOT
BRANCH   6  17
ATOM     17  C   UNL     1       2.282   7.505  19.279  0.00  0.00    +0.030 A 
ATOM     18  C   UNL     1       2.384   6.159  19.663  0.00  0.00    -0.037 A 
ATOM     19  C   UNL     1       3.121   5.220  18.922  0.00  0.00    -0.018 A 
ATOM     20  C   UNL     1       3.778   5.606  17.759  0.00  0.00    +0.120 A 
ATOM     21  C   UNL     1       3.687   6.933  17.353  0.00  0.00    -0.018 A 
ATOM     22  C   UNL     1       2.952   7.863  18.099  0.00  0.00    -0.037 A 
ATOM     23  H   UNL     1       1.909   5.806  20.575  0.00  0.00    +0.064 HD
ATOM     24  H   UNL     1       3.159   4.201  19.289  0.00  0.00    +0.065 HD
ATOM     25  H   UNL     1       4.187   7.253  16.442  0.00  0.00    +0.065 HD
ATOM     26  H   UNL     1       2.896   8.879  17.718  0.00  0.00    +0.064 HD
BRANCH  20  27
ATOM     27  O   UNL     1       4.524   4.802  16.945  0.00  0.00    -0.495 OA
BRANCH  27  28
ATOM     28  C   UNL     1       5.333   5.448  15.971  0.00  0.00    +0.079 C 
ATOM     29  H   UNL     1       5.471   6.507  16.211  0.00  0.00    +0.066 HD
ATOM     30  H   UNL     1       4.917   5.322  14.965  0.00  0.00    +0.066 HD
ATOM     31  H   UNL     1       6.318   4.972  15.985  0.00  0.00    +0.066 HD
ENDBRANCH  27  28
ENDBRANCH  20  27
ENDBRANCH   6  17
BRANCH   1  32
ATOM     32  C   UNL     1      -0.626  12.639  22.147  0.00  0.00    +0.012 C 
ATOM     33  H   UNL     1      -0.264  12.818  21.132  0.00  0.00    +0.032 HD
ATOM     34  H   UNL     1       0.104  13.066  22.842  0.00  0.00    +0.032 HD
ATOM     35  H   UNL     1      -1.587  13.135  22.304  0.00  0.00    +0.032 HD
ENDBRANCH   1  32
TORSDOF 4
ENDMDL
MODEL 5
REMARK VINA RESULT:    -5.396      4.150      7.514
REMARK INTER + INTRA:          -6.535
REMARK INTER:                  -6.326
REMARK INTRA:                  -0.209
REMARK UNBOUND:                -0.192
REMARK  Name = 
REMARK  4 active torsions:
REMARK  status: ('A' for Active; 'I' for Inactive)
REMARK    1  A    between atoms: C_1  and  C_2
REMARK    2  A    between atoms: N_7  and  C_10
REMARK    3  A    between atoms: C_13  and  O_16
REMARK    4  A    between atoms: O_16  and  C_17
REMARK                            x       y       z     vdW  Elec       q    Type
REMARK                         _______ _______ _______ _____ _____    ______ ____
ROOT
ATOM      1  C   UNL     1       5.698   4.146  15.625  0.00  0.00    +0.213 C 
ATOM      2  O   UNL     1       5.724   2.940  15.868  0.00  0.00    -0.276 OA
ATOM      3  N   UNL     1       5.004   5.051  16.407  0.00  0.00    -0.299 N 
ATOM      4  C   UNL     1       4.209   4.560  17.535  0.00  0.00    +0.030 C 
ATOM      5  C   UNL     1       2.946   5.404  17.789  0.00  0.00    +0.028 C 
ATOM      6  N   UNL     1       3.260   6.838  17.947  0.00  0.00    -0.327 N 
ATOM      7  C   UNL     1       4.556   7.304  17.432  0.00  0.00    +0.028 C 
ATOM      8  C   UNL     1       4.990   6.501  16.190  0.00  0.00    +0.030 C 
ATOM      9  H   UNL     1       4.862   4.591  18.415  0.00  0.00    +0.048 HD
ATOM     10  H   UNL     1       3.925   3.513  17.375  0.00  0.00    +0.048 HD
ATOM     11  H   UNL     1       2.255   5.287  16.946  0.00  0.00    +0.048 HD
ATOM     12  H   UNL     1       2.460   5.006  18.689  0.00  0.00    +0.048 HD
ATOM     13  H   UNL     1       5.313   7.202  18.220  0.00  0.00    +0.048 HD
ATOM     14  H   UNL     1       4.506   8.359  17.137  0.00  0.00    +0.048 HD
ATOM     15  H   UNL     1       5.982   6.834  15.867  0.00  0.00    +0.048 HD
ATOM     16  H   UNL     1       4.290   6.687  15.366  0.00  0.00    +0.048 HD
ENDROOT
BRANCH   6  17
ATOM     17  C   UNL     1       2.447   7.654  18.721  0.00  0.00    +0.030 A 
ATOM     18  C   UNL     1       1.876   8.833  18.220  0.00  0.00    -0.037 A 
ATOM     19  C   UNL     1       1.049   9.658  19.001  0.00  0.00    -0.018 A 
ATOM     20  C   UNL     1       0.764   9.317  20.318  0.00  0.00    +0.120 A 
ATOM     21  C   UNL     1       1.313   8.149  20.837  0.00  0.00    -0.018 A 
ATOM     22  C   UNL     1       2.138   7.334  20.051  0.00  0.00    -0.037 A 
ATOM     23  H   UNL     1       2.082   9.160  17.203  0.00  0.00    +0.064 HD
ATOM     24  H   UNL     1       0.653  10.558  18.544  0.00  0.00    +0.065 HD
ATOM     25  H   UNL     1       1.095   7.861  21.862  0.00  0.00    +0.065 HD
ATOM     26  H   UNL     1       2.515   6.421  20.503  0.00  0.00    +0.064 HD
BRANCH  20  27
ATOM     27  O   UNL     1      -0.021  10.022  21.185  0.00  0.00    -0.495 OA
BRANCH  27  28
ATOM     28  C   UNL     1      -0.159   9.496  22.499  0.00  0.00    +0.079 C 
ATOM     29  H   UNL     1      -1.205   9.268  22.725  0.00  0.00    +0.066 HD
ATOM     30  H   UNL     1       0.268  10.177  23.245  0.00  0.00    +0.066 HD
ATOM     31  H   UNL     1       0.403   8.559  22.544  0.00  0.00    +0.066 HD
ENDBRANCH  27  28
ENDBRANCH  20  27
ENDBRANCH   6  17
BRANCH   1  32
ATOM     32  C   UNL     1       6.446   4.701  14.439  0.00  0.00    +0.012 C 
ATOM     33  H   UNL     1       7.342   4.109  14.234  0.00  0.00    +0.032 HD
ATOM     34  H   UNL     1       6.764   5.724  14.659  0.00  0.00    +0.032 HD
ATOM     35  H   UNL     1       5.792   4.720  13.563  0.00  0.00    +0.032 HD
ENDBRANCH   1  32
TORSDOF 4
ENDMDL
MODEL 6
REMARK VINA RESULT:    -5.384      5.223      7.083
REMARK INTER + INTRA:          -6.521
REMARK INTER:                  -6.302
REMARK INTRA:                  -0.219
REMARK UNBOUND:                -0.192
REMARK  Name = 
REMARK  4 active torsions:
REMARK  status: ('A' for Active; 'I' for Inactive)
REMARK    1  A    between atoms: C_1  and  C_2
REMARK    2  A    between atoms: N_7  and  C_10
REMARK    3  A    between atoms: C_13  and  O_16
REMARK    4  A    between atoms: O_16  and  C_17
REMARK                            x       y       z     vdW  Elec       q    Type
REMARK                         _______ _______ _______ _____ _____    ______ ____
ROOT
ATOM      1  C   UNL     1       0.793  11.944  19.159  0.00  0.00    +0.213 C 
ATOM      2  O   UNL     1      -0.071  12.375  19.921  0.00  0.00    -0.276 OA
ATOM      3  N   UNL     1       1.132  10.604  19.095  0.00  0.00    -0.299 N 
ATOM      4  C   UNL     1       0.493   9.660  20.015  0.00  0.00    +0.030 C 
ATOM      5  C   UNL     1       1.423   8.503  20.425  0.00  0.00    +0.028 C 
ATOM      6  N   UNL     1       1.987   7.803  19.255  0.00  0.00    -0.327 N 
ATOM      7  C   UNL     1       1.962   8.515  17.968  0.00  0.00    +0.028 C 
ATOM      8  C   UNL     1       2.112  10.037  18.164  0.00  0.00    +0.030 C 
ATOM      9  H   UNL     1      -0.388   9.265  19.495  0.00  0.00    +0.048 HD
ATOM     10  H   UNL     1       0.138  10.182  20.911  0.00  0.00    +0.048 HD
ATOM     11  H   UNL     1       2.248   8.897  21.029  0.00  0.00    +0.048 HD
ATOM     12  H   UNL     1       0.837   7.817  21.050  0.00  0.00    +0.048 HD
ATOM     13  H   UNL     1       1.016   8.300  17.457  0.00  0.00    +0.048 HD
ATOM     14  H   UNL     1       2.785   8.187  17.322  0.00  0.00    +0.048 HD
ATOM     15  H   UNL     1       2.033  10.540  17.196  0.00  0.00    +0.048 HD
ATOM     16  H   UNL     1       3.102  10.261  18.578  0.00  0.00    +0.048 HD
ENDROOT
BRANCH   6  17
ATOM     17  C   UNL     1       2.338   6.463  19.340  0.00  0.00    +0.030 A 
ATOM     18  C   UNL     1       1.952   5.656  20.420  0.00  0.00    -0.037 A 
ATOM     19  C   UNL     1       2.303   4.298  20.506  0.00  0.00    -0.018 A 
ATOM     20  C   UNL     1       3.054   3.704  19.499  0.00  0.00    +0.120 A 
ATOM     21  C   UNL     1       3.445   4.481  18.413  0.00  0.00    -0.018 A 
ATOM     22  C   UNL     1       3.091   5.835  18.337  0.00  0.00    -0.037 A 
ATOM     23  H   UNL     1       1.382   6.072  21.247  0.00  0.00    +0.064 HD
ATOM     24  H   UNL     1       1.973   3.743  21.378  0.00  0.00    +0.065 HD
ATOM     25  H   UNL     1       4.025   4.033  17.611  0.00  0.00    +0.065 HD
ATOM     26  H   UNL     1       3.403   6.384  17.453  0.00  0.00    +0.064 HD
BRANCH  20  27
ATOM     27  O   UNL     1       3.462   2.401  19.454  0.00  0.00    -0.495 OA
BRANCH  27  28
ATOM     28  C   UNL     1       3.433   1.763  18.183  0.00  0.00    +0.079 C 
ATOM     29  H   UNL     1       4.072   2.286  17.464  0.00  0.00    +0.066 HD
ATOM     30  H   UNL     1       2.407   1.674  17.809  0.00  0.00    +0.066 HD
ATOM     31  H   UNL     1       3.831   0.752  18.308  0.00  0.00    +0.066 HD
ENDBRANCH  27  28
ENDBRANCH  20  27
ENDBRANCH   6  17
BRANCH   1  32
ATOM     32  C   UNL     1       1.529  12.879  18.233  0.00  0.00    +0.012 C 
ATOM     33  H   UNL     1       2.409  13.299  18.727  0.00  0.00    +0.032 HD
ATOM     34  H   UNL     1       0.871  13.710  17.961  0.00  0.00    +0.032 HD
ATOM     35  H   UNL     1       1.818  12.350  17.322  0.00  0.00    +0.032 HD
ENDBRANCH   1  32
TORSDOF 4
ENDMDL
MODEL 7
REMARK VINA RESULT:    -5.384      5.184      7.956
REMARK INTER + INTRA:          -6.521
REMARK INTER:                  -6.302
REMARK INTRA:                  -0.219
REMARK UNBOUND:                -0.192
REMARK  Name = 
REMARK  4 active torsions:
REMARK  status: ('A' for Active; 'I' for Inactive)
REMARK    1  A    between atoms: C_1  and  C_2
REMARK    2  A    between atoms: N_7  and  C_10
REMARK    3  A    between atoms: C_13  and  O_16
REMARK    4  A    between atoms: O_16  and  C_17
REMARK                            x       y       z     vdW  Elec       q    Type
REMARK                         _______ _______ _______ _____ _____    ______ ____
ROOT
ATOM      1  C   UNL     1       3.731   3.304  18.579  0.00  0.00    +0.213 C 
ATOM      2  O   UNL     1       3.942   3.127  17.380  0.00  0.00    -0.276 OA
ATOM      3  N   UNL     1       3.089   4.428  19.067  0.00  0.00    -0.299 N 
ATOM      4  C   UNL     1       2.699   5.490  18.135  0.00  0.00    +0.030 C 
ATOM      5  C   UNL     1       2.770   6.893  18.765  0.00  0.00    +0.028 C 
ATOM      6  N   UNL     1       1.996   6.978  20.019  0.00  0.00    -0.327 N 
ATOM      7  C   UNL     1       1.664   5.714  20.692  0.00  0.00    +0.028 C 
ATOM      8  C   UNL     1       2.765   4.656  20.478  0.00  0.00    +0.030 C 
ATOM      9  H   UNL     1       1.671   5.271  17.825  0.00  0.00    +0.048 HD
ATOM     10  H   UNL     1       3.326   5.458  17.236  0.00  0.00    +0.048 HD
ATOM     11  H   UNL     1       3.815   7.142  18.981  0.00  0.00    +0.048 HD
ATOM     12  H   UNL     1       2.394   7.606  18.020  0.00  0.00    +0.048 HD
ATOM     13  H   UNL     1       0.711   5.338  20.301  0.00  0.00    +0.048 HD
ATOM     14  H   UNL     1       1.559   5.860  21.773  0.00  0.00    +0.048 HD
ATOM     15  H   UNL     1       2.462   3.713  20.942  0.00  0.00    +0.048 HD
ATOM     16  H   UNL     1       3.693   4.984  20.962  0.00  0.00    +0.048 HD
ENDROOT
BRANCH   6  17
ATOM     17  C   UNL     1       1.446   8.186  20.424  0.00  0.00    +0.030 A 
ATOM     18  C   UNL     1       1.193   9.232  19.524  0.00  0.00    -0.037 A 
ATOM     19  C   UNL     1       0.632  10.454  19.932  0.00  0.00    -0.018 A 
ATOM     20  C   UNL     1       0.302  10.662  21.266  0.00  0.00    +0.120 A 
ATOM     21  C   UNL     1       0.538   9.639  22.178  0.00  0.00    -0.018 A 
ATOM     22  C   UNL     1       1.099   8.424  21.762  0.00  0.00    -0.037 A 
ATOM     23  H   UNL     1       1.451   9.133  18.473  0.00  0.00    +0.064 HD
ATOM     24  H   UNL     1       0.474  11.217  19.177  0.00  0.00    +0.065 HD
ATOM     25  H   UNL     1       0.279   9.779  23.224  0.00  0.00    +0.065 HD
ATOM     26  H   UNL     1       1.235   7.653  22.515  0.00  0.00    +0.064 HD
BRANCH  20  27
ATOM     27  O   UNL     1      -0.248  11.795  21.797  0.00  0.00    -0.495 OA
BRANCH  27  28
ATOM     28  C   UNL     1      -1.159  11.621  22.875  0.00  0.00    +0.079 C 
ATOM     29  H   UNL     1      -2.078  12.192  22.711  0.00  0.00    +0.066 HD
ATOM     30  H   UNL     1      -0.694  11.885  23.832  0.00  0.00    +0.066 HD
ATOM     31  H   UNL     1      -1.428  10.562  22.917  0.00  0.00    +0.066 HD
ENDBRANCH  27  28
ENDBRANCH  20  27
ENDBRANCH   6  17
BRANCH   1  32
ATOM     32  C   UNL     1       4.167   2.274  19.591  0.00  0.00    +0.012 C 
ATOM     33  H   UNL     1       4.670   1.438  19.099  0.00  0.00    +0.032 HD
ATOM     34  H   UNL     1       3.286   1.879  20.106  0.00  0.00    +0.032 HD
ATOM     35  H   UNL     1       4.825   2.736  20.331  0.00  0.00    +0.032 HD
ENDBRANCH   1  32
TORSDOF 4
ENDMDL
MODEL 8
REMARK VINA RESULT:    -5.313      5.222      5.988
REMARK INTER + INTRA:          -6.437
REMARK INTER:                  -6.231
REMARK INTRA:                  -0.206
REMARK UNBOUND:                -0.192
REMARK  Name = 
REMARK  4 active torsions:
REMARK  status: ('A' for Active; 'I' for Inactive)
REMARK    1  A    between atoms: C_1  and  C_2
REMARK    2  A    between atoms: N_7  and  C_10
REMARK    3  A    between atoms: C_13  and  O_16
REMARK    4  A    between atoms: O_16  and  C_17
REMARK                            x       y       z     vdW  Elec       q    Type
REMARK                         _______ _______ _______ _____ _____    ______ ____
ROOT
ATOM      1  C   UNL     1       0.011  11.403  20.088  0.00  0.00    +0.213 C 
ATOM      2  O   UNL     1       0.112  12.487  19.516  0.00  0.00    -0.276 OA
ATOM      3  N   UNL     1       0.741  10.289  19.713  0.00  0.00    -0.299 N 
ATOM      4  C   UNL     1       1.624  10.371  18.547  0.00  0.00    +0.030 C 
ATOM      5  C   UNL     1       1.720   9.042  17.775  0.00  0.00    +0.028 C 
ATOM      6  N   UNL     1       2.103   7.918  18.651  0.00  0.00    -0.327 N 
ATOM      7  C   UNL     1       1.914   8.098  20.098  0.00  0.00    +0.028 C 
ATOM      8  C   UNL     1       0.697   8.995  20.400  0.00  0.00    +0.030 C 
ATOM      9  H   UNL     1       2.613  10.657  18.924  0.00  0.00    +0.048 HD
ATOM     10  H   UNL     1       1.289  11.166  17.871  0.00  0.00    +0.048 HD
ATOM     11  H   UNL     1       0.749   8.816  17.319  0.00  0.00    +0.048 HD
ATOM     12  H   UNL     1       2.452   9.183  16.970  0.00  0.00    +0.048 HD
ATOM     13  H   UNL     1       2.818   8.548  20.526  0.00  0.00    +0.048 HD
ATOM     14  H   UNL     1       1.741   7.136  20.594  0.00  0.00    +0.048 HD
ATOM     15  H   UNL     1       0.618   9.154  21.480  0.00  0.00    +0.048 HD
ATOM     16  H   UNL     1      -0.222   8.496  20.067  0.00  0.00    +0.048 HD
ENDROOT
BRANCH   6  17
ATOM     17  C   UNL     1       2.791   6.829  18.135  0.00  0.00    +0.030 A 
ATOM     18  C   UNL     1       2.291   5.521  18.217  0.00  0.00    -0.037 A 
ATOM     19  C   UNL     1       2.984   4.418  17.691  0.00  0.00    -0.018 A 
ATOM     20  C   UNL     1       4.208   4.598  17.058  0.00  0.00    +0.120 A 
ATOM     21  C   UNL     1       4.724   5.886  16.958  0.00  0.00    -0.018 A 
ATOM     22  C   UNL     1       4.026   6.980  17.487  0.00  0.00    -0.037 A 
ATOM     23  H   UNL     1       1.349   5.319  18.721  0.00  0.00    +0.064 HD
ATOM     24  H   UNL     1       2.536   3.437  17.802  0.00  0.00    +0.065 HD
ATOM     25  H   UNL     1       5.675   6.048  16.459  0.00  0.00    +0.065 HD
ATOM     26  H   UNL     1       4.466   7.964  17.355  0.00  0.00    +0.064 HD
BRANCH  20  27
ATOM     27  O   UNL     1       4.985   3.620  16.503  0.00  0.00    -0.495 OA
BRANCH  27  28
ATOM     28  C   UNL     1       6.017   4.043  15.621  0.00  0.00    +0.079 C 
ATOM     29  H   UNL     1       5.796   5.028  15.199  0.00  0.00    +0.066 HD
ATOM     30  H   UNL     1       6.190   3.303  14.831  0.00  0.00    +0.066 HD
ATOM     31  H   UNL     1       6.939   4.129  16.204  0.00  0.00    +0.066 HD
ENDBRANCH  27  28
ENDBRANCH  20  27
ENDBRANCH   6  17
BRANCH   1  32
ATOM     32  C   UNL     1      -0.930  11.241  21.256  0.00  0.00    +0.012 C 
ATOM     33  H   UNL     1      -1.540  10.341  21.140  0.00  0.00    +0.032 HD
ATOM     34  H   UNL     1      -1.606  12.100  21.295  0.00  0.00    +0.032 HD
ATOM     35  H   UNL     1      -0.362  11.201  22.188  0.00  0.00    +0.032 HD
ENDBRANCH   1  32
TORSDOF 4
ENDMDL
MODEL 9
REMARK VINA RESULT:    -5.306      5.253      7.862
REMARK INTER + INTRA:          -6.429
REMARK INTER:                  -6.222
REMARK INTRA:                  -0.207
REMARK UNBOUND:                -0.192
REMARK  Name = 
REMARK  4 active torsions:
REMARK  status: ('A' for Active; 'I' for Inactive)
REMARK    1  A    between atoms: C_1  and  C_2
REMARK    2  A    between atoms: N_7  and  C_10
REMARK    3  A    between atoms: C_13  and  O_16
REMARK    4  A    between atoms: O_16  and  C_17
REMARK                            x       y       z     vdW  Elec       q    Type
REMARK                         _______ _______ _______ _____ _____    ______ ____
ROOT
ATOM      1  C   UNL     1       3.736   3.315  18.599  0.00  0.00    +0.213 C 
ATOM      2  O   UNL     1       3.965   3.121  17.406  0.00  0.00    -0.276 OA
ATOM      3  N   UNL     1       3.098   4.451  19.062  0.00  0.00    -0.299 N 
ATOM      4  C   UNL     1       2.735   5.505  18.112  0.00  0.00    +0.030 C 
ATOM      5  C   UNL     1       2.809   6.916  18.726  0.00  0.00    +0.028 C 
ATOM      6  N   UNL     1       2.016   7.024  19.966  0.00  0.00    -0.327 N 
ATOM      7  C   UNL     1       1.660   5.771  20.648  0.00  0.00    +0.028 C 
ATOM      8  C   UNL     1       2.753   4.699  20.465  0.00  0.00    +0.030 C 
ATOM      9  H   UNL     1       1.709   5.293  17.787  0.00  0.00    +0.048 HD
ATOM     10  H   UNL     1       3.376   5.456  17.224  0.00  0.00    +0.048 HD
ATOM     11  H   UNL     1       3.854   7.157  18.956  0.00  0.00    +0.048 HD
ATOM     12  H   UNL     1       2.453   7.623  17.967  0.00  0.00    +0.048 HD
ATOM     13  H   UNL     1       0.709   5.400  20.246  0.00  0.00    +0.048 HD
ATOM     14  H   UNL     1       1.538   5.931  21.726  0.00  0.00    +0.048 HD
ATOM     15  H   UNL     1       2.432   3.765  20.936  0.00  0.00    +0.048 HD
ATOM     16  H   UNL     1       3.676   5.024  20.961  0.00  0.00    +0.048 HD
ENDROOT
BRANCH   6  17
ATOM     17  C   UNL     1       1.472   8.242  20.347  0.00  0.00    +0.030 A 
ATOM     18  C   UNL     1       1.138   8.528  21.679  0.00  0.00    -0.037 A 
ATOM     19  C   UNL     1       0.592   9.763  22.068  0.00  0.00    -0.018 A 
ATOM     20  C   UNL     1       0.367  10.757  21.123  0.00  0.00    +0.120 A 
ATOM     21  C   UNL     1       0.694  10.500  19.796  0.00  0.00    -0.018 A 
ATOM     22  C   UNL     1       1.237   9.266  19.417  0.00  0.00    -0.037 A 
ATOM     23  H   UNL     1       1.273   7.780  22.457  0.00  0.00    +0.064 HD
ATOM     24  H   UNL     1       0.353   9.904  23.116  0.00  0.00    +0.065 HD
ATOM     25  H   UNL     1       0.533  11.268  19.043  0.00  0.00    +0.065 HD
ATOM     26  H   UNL     1       1.497   9.134  18.371  0.00  0.00    +0.064 HD
BRANCH  20  27
ATOM     27  O   UNL     1      -0.155  11.997  21.361  0.00  0.00    -0.495 OA
BRANCH  27  28
ATOM     28  C   UNL     1      -0.893  12.163  22.565  0.00  0.00    +0.079 C 
ATOM     29  H   UNL     1      -1.956  12.322  22.358  0.00  0.00    +0.066 HD
ATOM     30  H   UNL     1      -0.481  12.977  23.172  0.00  0.00    +0.066 HD
ATOM     31  H   UNL     1      -0.801  11.238  23.142  0.00  0.00    +0.066 HD
ENDBRANCH  27  28
ENDBRANCH  20  27
ENDBRANCH   6  17
BRANCH   1  32
ATOM     32  C   UNL     1       4.145   2.293  19.630  0.00  0.00    +0.012 C 
ATOM     33  H   UNL     1       4.443   2.781  20.562  0.00  0.00    +0.032 HD
ATOM     34  H   UNL     1       5.006   1.729  19.258  0.00  0.00    +0.032 HD
ATOM     35  H   UNL     1       3.323   1.596  19.810  0.00  0.00    +0.032 HD
ENDBRANCH   1  32
TORSDOF 4
ENDMDL
MODEL 10
REMARK VINA RESULT:    -5.297      5.917      7.314
REMARK INTER + INTRA:          -6.419
REMARK INTER:                  -6.199
REMARK INTRA:                  -0.220
REMARK UNBOUND:                -0.192
REMARK  Name = 
REMARK  4 active torsions:
REMARK  status: ('A' for Active; 'I' for Inactive)
REMARK    1  A    between atoms: C_1  and  C_2
REMARK    2  A    between atoms: N_7  and  C_10
REMARK    3  A    between atoms: C_13  and  O_16
REMARK    4  A    between atoms: O_16  and  C_17
REMARK                            x       y       z     vdW  Elec       q    Type
REMARK                         _______ _______ _______ _____ _____    ______ ____
ROOT
ATOM      1  C   UNL     1      -0.653  11.945  21.787  0.00  0.00    +0.213 C 
ATOM      2  O   UNL     1      -0.582  13.015  21.183  0.00  0.00    -0.276 OA
ATOM      3  N   UNL     1       0.049  10.819  21.399  0.00  0.00    -0.299 N 
ATOM      4  C   UNL     1       0.862  10.867  20.181  0.00  0.00    +0.030 C 
ATOM      5  C   UNL     1       0.908   9.519  19.438  0.00  0.00    +0.028 C 
ATOM      6  N   UNL     1       1.337   8.415  20.319  0.00  0.00    -0.327 N 
ATOM      7  C   UNL     1       1.234   8.632  21.769  0.00  0.00    +0.028 C 
ATOM      8  C   UNL     1       0.040   9.542  22.119  0.00  0.00    +0.030 C 
ATOM      9  H   UNL     1       1.873  11.157  20.492  0.00  0.00    +0.048 HD
ATOM     10  H   UNL     1       0.491  11.647  19.506  0.00  0.00    +0.048 HD
ATOM     11  H   UNL     1      -0.089   9.287  19.046  0.00  0.00    +0.048 HD
ATOM     12  H   UNL     1       1.592   9.636  18.589  0.00  0.00    +0.048 HD
ATOM     13  H   UNL     1       2.164   9.087  22.132  0.00  0.00    +0.048 HD
ATOM     14  H   UNL     1       1.086   7.683  22.299  0.00  0.00    +0.048 HD
ATOM     15  H   UNL     1       0.026   9.728  23.197  0.00  0.00    +0.048 HD
ATOM     16  H   UNL     1      -0.898   9.040  21.853  0.00  0.00    +0.048 HD
ENDROOT
BRANCH   6  17
ATOM     17  C   UNL     1       1.990   7.310  19.791  0.00  0.00    +0.030 A 
ATOM     18  C   UNL     1       2.685   7.362  18.574  0.00  0.00    -0.037 A 
ATOM     19  C   UNL     1       3.350   6.245  18.040  0.00  0.00    -0.018 A 
ATOM     20  C   UNL     1       3.341   5.033  18.722  0.00  0.00    +0.120 A 
ATOM     21  C   UNL     1       2.663   4.957  19.934  0.00  0.00    -0.018 A 
ATOM     22  C   UNL     1       2.002   6.075  20.458  0.00  0.00    -0.037 A 
ATOM     23  H   UNL     1       2.707   8.277  17.987  0.00  0.00    +0.064 HD
ATOM     24  H   UNL     1       3.857   6.363  17.089  0.00  0.00    +0.065 HD
ATOM     25  H   UNL     1       2.651   4.021  20.486  0.00  0.00    +0.065 HD
ATOM     26  H   UNL     1       1.513   5.962  21.421  0.00  0.00    +0.064 HD
BRANCH  20  27
ATOM     27  O   UNL     1       3.943   3.874  18.321  0.00  0.00    -0.495 OA
BRANCH  27  28
ATOM     28  C   UNL     1       4.267   2.935  19.339  0.00  0.00    +0.079 C 
ATOM     29  H   UNL     1       5.115   3.279  19.938  0.00  0.00    +0.066 HD
ATOM     30  H   UNL     1       4.458   1.943  18.914  0.00  0.00    +0.066 HD
ATOM     31  H   UNL     1       3.402   2.852  20.003  0.00  0.00    +0.066 HD
ENDBRANCH  27  28
ENDBRANCH  20  27
ENDBRANCH   6  17
BRANCH   1  32
ATOM     32  C   UNL     1      -1.525  11.818  23.011  0.00  0.00    +0.012 C 
ATOM     33  H   UNL     1      -2.544  11.538  22.734  0.00  0.00    +0.032 HD
ATOM     34  H   UNL     1      -1.571  12.784  23.523  0.00  0.00    +0.032 HD
ATOM     35  H   UNL     1      -1.099  11.081  23.696  0.00  0.00    +0.032 HD
ENDBRANCH   1  32
TORSDOF 4
ENDMDL
MODEL 11
REMARK VINA RESULT:    -5.274      4.985      7.012
REMARK INTER + INTRA:          -6.391
REMARK INTER:                  -6.175
REMARK INTRA:                  -0.216
REMARK UNBOUND:                -0.192
REMARK  Name = 
REMARK  4 active torsions:
REMARK  status: ('A' for Active; 'I' for Inactive)
REMARK    1  A    between atoms: C_1  and  C_2
REMARK    2  A    between atoms: N_7  and  C_10
REMARK    3  A    between atoms: C_13  and  O_16
REMARK    4  A    between atoms: O_16  and  C_17
REMARK                            x       y       z     vdW  Elec       q    Type
REMARK                         _______ _______ _______ _____ _____    ______ ____
ROOT
ATOM      1  C   UNL     1       3.775   2.852  18.848  0.00  0.00    +0.213 C 
ATOM      2  O   UNL     1       3.848   2.340  17.731  0.00  0.00    -0.276 OA
ATOM      3  N   UNL     1       3.201   4.092  19.065  0.00  0.00    -0.299 N 
ATOM      4  C   UNL     1       2.719   4.868  17.919  0.00  0.00    +0.030 C 
ATOM      5  C   UNL     1       2.872   6.387  18.118  0.00  0.00    +0.028 C 
ATOM      6  N   UNL     1       2.245   6.848  19.372  0.00  0.00    -0.327 N 
ATOM      7  C   UNL     1       1.980   5.835  20.404  0.00  0.00    +0.028 C 
ATOM      8  C   UNL     1       3.040   4.716  20.381  0.00  0.00    +0.030 C 
ATOM      9  H   UNL     1       1.660   4.612  17.793  0.00  0.00    +0.048 HD
ATOM     10  H   UNL     1       3.241   4.562  17.004  0.00  0.00    +0.048 HD
ATOM     11  H   UNL     1       3.937   6.644  18.144  0.00  0.00    +0.048 HD
ATOM     12  H   UNL     1       2.421   6.879  17.247  0.00  0.00    +0.048 HD
ATOM     13  H   UNL     1       0.985   5.403  20.237  0.00  0.00    +0.048 HD
ATOM     14  H   UNL     1       1.998   6.281  21.406  0.00  0.00    +0.048 HD
ATOM     15  H   UNL     1       2.783   3.953  21.121  0.00  0.00    +0.048 HD
ATOM     16  H   UNL     1       4.020   5.129  20.653  0.00  0.00    +0.048 HD
ENDROOT
BRANCH   6  17
ATOM     17  C   UNL     1       1.755   8.142  19.477  0.00  0.00    +0.030 A 
ATOM     18  C   UNL     1       1.232   8.649  20.676  0.00  0.00    -0.037 A 
ATOM     19  C   UNL     1       0.740   9.960  20.786  0.00  0.00    -0.018 A 
ATOM     20  C   UNL     1       0.762  10.811  19.686  0.00  0.00    +0.120 A 
ATOM     21  C   UNL     1       1.280  10.334  18.487  0.00  0.00    -0.018 A 
ATOM     22  C   UNL     1       1.768   9.024  18.386  0.00  0.00    -0.037 A 
ATOM     23  H   UNL     1       1.170   8.022  21.562  0.00  0.00    +0.064 HD
ATOM     24  H   UNL     1       0.344  10.275  21.745  0.00  0.00    +0.065 HD
ATOM     25  H   UNL     1       1.314  10.986  17.617  0.00  0.00    +0.065 HD
ATOM     26  H   UNL     1       2.184   8.718  17.431  0.00  0.00    +0.064 HD
BRANCH  20  27
ATOM     27  O   UNL     1       0.319  12.103  19.652  0.00  0.00    -0.495 OA
BRANCH  27  28
ATOM     28  C   UNL     1      -0.494  12.473  18.547  0.00  0.00    +0.079 C 
ATOM     29  H   UNL     1      -1.373  13.038  18.875  0.00  0.00    +0.066 HD
ATOM     30  H   UNL     1      -0.785  11.595  17.958  0.00  0.00    +0.066 HD
ATOM     31  H   UNL     1       0.099  13.126  17.900  0.00  0.00    +0.066 HD
ENDBRANCH  27  28
ENDBRANCH  20  27
ENDBRANCH   6  17
BRANCH   1  32
ATOM     32  C   UNL     1       4.313   2.128  20.056  0.00  0.00    +0.012 C 
ATOM     33  H   UNL     1       4.879   2.810  20.696  0.00  0.00    +0.032 HD
ATOM     34  H   UNL     1       4.993   1.335  19.728  0.00  0.00    +0.032 HD
ATOM     35  H   UNL     1       3.491   1.673  20.614  0.00  0.00    +0.032 HD
ENDBRANCH   1  32
TORSDOF 4
ENDMDL
MODEL 12
REMARK VINA RESULT:    -5.263      5.421      6.937
REMARK INTER + INTRA:          -6.378
REMARK INTER:                  -6.173
REMARK INTRA:                  -0.205
REMARK UNBOUND:                -0.192
REMARK  Name = 
REMARK  4 active torsions:
REMARK  status: ('A' for Active; 'I' for Inactive)
REMARK    1  A    between atoms: C_1  and  C_2
REMARK    2  A    between atoms: N_7  and  C_10
REMARK    3  A    between atoms: C_13  and  O_16
REMARK    4  A    between atoms: O_16  and  C_17
REMARK                            x       y       z     vdW  Elec       q    Type
REMARK                         _______ _______ _______ _____ _____    ______ ____
ROOT
ATOM      1  C   UNL     1       0.272  11.952  19.007  0.00  0.00    +0.213 C 
ATOM      2  O   UNL     1       0.695  12.809  18.233  0.00  0.00    -0.276 OA
ATOM      3  N   UNL     1       0.844  10.697  19.117  0.00  0.00    -0.299 N 
ATOM      4  C   UNL     1       1.957  10.338  18.235  0.00  0.00    +0.030 C 
ATOM      5  C   UNL     1       1.967   8.844  17.863  0.00  0.00    +0.028 C 
ATOM      6  N   UNL     1       1.935   7.975  19.056  0.00  0.00    -0.327 N 
ATOM      7  C   UNL     1       1.475   8.578  20.315  0.00  0.00    +0.028 C 
ATOM      8  C   UNL     1       0.411   9.665  20.064  0.00  0.00    +0.030 C 
ATOM      9  H   UNL     1       2.877  10.595  18.772  0.00  0.00    +0.048 HD
ATOM     10  H   UNL     1       1.931  10.944  17.322  0.00  0.00    +0.048 HD
ATOM     11  H   UNL     1       1.093   8.618  17.241  0.00  0.00    +0.048 HD
ATOM     12  H   UNL     1       2.869   8.661  17.266  0.00  0.00    +0.048 HD
ATOM     13  H   UNL     1       2.334   9.016  20.839  0.00  0.00    +0.048 HD
ATOM     14  H   UNL     1       1.022   7.823  20.969  0.00  0.00    +0.048 HD
ATOM     15  H   UNL     1       0.133  10.131  21.014  0.00  0.00    +0.048 HD
ATOM     16  H   UNL     1      -0.491   9.208  19.638  0.00  0.00    +0.048 HD
ENDROOT
BRANCH   6  17
ATOM     17  C   UNL     1       2.502   6.709  19.017  0.00  0.00    +0.030 A 
ATOM     18  C   UNL     1       3.349   6.300  17.977  0.00  0.00    -0.037 A 
ATOM     19  C   UNL     1       3.928   5.020  17.939  0.00  0.00    -0.018 A 
ATOM     20  C   UNL     1       3.675   4.107  18.956  0.00  0.00    +0.120 A 
ATOM     21  C   UNL     1       2.842   4.490  20.002  0.00  0.00    -0.018 A 
ATOM     22  C   UNL     1       2.269   5.768  20.031  0.00  0.00    -0.037 A 
ATOM     23  H   UNL     1       3.565   6.965  17.144  0.00  0.00    +0.064 HD
ATOM     24  H   UNL     1       4.565   4.776  17.096  0.00  0.00    +0.065 HD
ATOM     25  H   UNL     1       2.639   3.793  20.811  0.00  0.00    +0.065 HD
ATOM     26  H   UNL     1       1.649   6.018  20.887  0.00  0.00    +0.064 HD
BRANCH  20  27
ATOM     27  O   UNL     1       4.169   2.836  19.045  0.00  0.00    -0.495 OA
BRANCH  27  28
ATOM     28  C   UNL     1       3.395   1.803  18.449  0.00  0.00    +0.079 C 
ATOM     29  H   UNL     1       3.660   1.670  17.395  0.00  0.00    +0.066 HD
ATOM     30  H   UNL     1       2.323   1.995  18.566  0.00  0.00    +0.066 HD
ATOM     31  H   UNL     1       3.626   0.870  18.970  0.00  0.00    +0.066 HD
ENDBRANCH  27  28
ENDBRANCH  20  27
ENDBRANCH   6  17
BRANCH   1  32
ATOM     32  C   UNL     1      -0.912  12.243  19.894  0.00  0.00    +0.012 C 
ATOM     33  H   UNL     1      -1.333  11.317  20.295  0.00  0.00    +0.032 HD
ATOM     34  H   UNL     1      -1.691  12.737  19.306  0.00  0.00    +0.032 HD
ATOM     35  H   UNL     1      -0.613  12.910  20.707  0.00  0.00    +0.032 HD
ENDBRANCH   1  32
TORSDOF 4
ENDMDL
MODEL 13
REMARK VINA RESULT:    -5.225      5.935      7.236
REMARK INTER + INTRA:          -6.334
REMARK INTER:                  -6.128
REMARK INTRA:                  -0.206
REMARK UNBOUND:                -0.192
REMARK  Name = 
REMARK  4 active torsions:
REMARK  status: ('A' for Active; 'I' for Inactive)
REMARK    1  A    between atoms: C_1  and  C_2
REMARK    2  A    between atoms: N_7  and  C_10
REMARK    3  A    between atoms: C_13  and  O_16
REMARK    4  A    between atoms: O_16  and  C_17
REMARK                            x       y       z     vdW  Elec       q    Type
REMARK                         _______ _______ _______ _____ _____    ______ ____
ROOT
ATOM      1  C   UNL     1      -0.650  11.938  21.795  0.00  0.00    +0.213 C 
ATOM      2  O   UNL     1      -0.577  13.013  21.201  0.00  0.00    -0.276 OA
ATOM      3  N   UNL     1       0.055  10.815  21.400  0.00  0.00    -0.299 N 
ATOM      4  C   UNL     1       0.874  10.876  20.187  0.00  0.00    +0.030 C 
ATOM      5  C   UNL     1       0.924   9.535  19.431  0.00  0.00    +0.028 C 
ATOM      6  N   UNL     1       1.350   8.423  20.303  0.00  0.00    -0.327 N 
ATOM      7  C   UNL     1       1.239   8.626  21.756  0.00  0.00    +0.028 C 
ATOM      8  C   UNL     1       0.043   9.532  22.108  0.00  0.00    +0.030 C 
ATOM      9  H   UNL     1       1.883  11.163  20.505  0.00  0.00    +0.048 HD
ATOM     10  H   UNL     1       0.506  11.662  19.517  0.00  0.00    +0.048 HD
ATOM     11  H   UNL     1      -0.071   9.306  19.032  0.00  0.00    +0.048 HD
ATOM     12  H   UNL     1       1.613   9.660  18.587  0.00  0.00    +0.048 HD
ATOM     13  H   UNL     1       2.167   9.079  22.127  0.00  0.00    +0.048 HD
ATOM     14  H   UNL     1       1.090   7.672  22.275  0.00  0.00    +0.048 HD
ATOM     15  H   UNL     1       0.023   9.708  23.188  0.00  0.00    +0.048 HD
ATOM     16  H   UNL     1      -0.894   9.032  21.833  0.00  0.00    +0.048 HD
ENDROOT
BRANCH   6  17
ATOM     17  C   UNL     1       2.006   7.323  19.769  0.00  0.00    +0.030 A 
ATOM     18  C   UNL     1       2.010   6.073  20.404  0.00  0.00    -0.037 A 
ATOM     19  C   UNL     1       2.670   4.957  19.862  0.00  0.00    -0.018 A 
ATOM     20  C   UNL     1       3.346   5.063  18.652  0.00  0.00    +0.120 A 
ATOM     21  C   UNL     1       3.352   6.291  17.999  0.00  0.00    -0.018 A 
ATOM     22  C   UNL     1       2.693   7.399  18.548  0.00  0.00    -0.037 A 
ATOM     23  H   UNL     1       1.516   5.937  21.363  0.00  0.00    +0.064 HD
ATOM     24  H   UNL     1       2.634   4.027  20.418  0.00  0.00    +0.065 HD
ATOM     25  H   UNL     1       3.868   6.392  17.048  0.00  0.00    +0.065 HD
ATOM     26  H   UNL     1       2.710   8.323  17.978  0.00  0.00    +0.064 HD
BRANCH  20  27
ATOM     27  O   UNL     1       4.025   4.064  18.013  0.00  0.00    -0.495 OA
BRANCH  27  28
ATOM     28  C   UNL     1       3.515   2.745  18.161  0.00  0.00    +0.079 C 
ATOM     29  H   UNL     1       3.988   2.232  19.004  0.00  0.00    +0.066 HD
ATOM     30  H   UNL     1       3.627   2.172  17.234  0.00  0.00    +0.066 HD
ATOM     31  H   UNL     1       2.445   2.823  18.377  0.00  0.00    +0.066 HD
ENDBRANCH  27  28
ENDBRANCH  20  27
ENDBRANCH   6  17
BRANCH   1  32
ATOM     32  C   UNL     1      -1.528  11.799  23.014  0.00  0.00    +0.012 C 
ATOM     33  H   UNL     1      -2.569  12.026  22.769  0.00  0.00    +0.032 HD
ATOM     34  H   UNL     1      -1.200  12.510  23.778  0.00  0.00    +0.032 HD
ATOM     35  H   UNL     1      -1.443  10.788  23.420  0.00  0.00    +0.032 HD
ENDBRANCH   1  32
TORSDOF 4
ENDMDL
MODEL 14
REMARK VINA RESULT:    -5.199      4.913      6.937
REMARK INTER + INTRA:          -6.303
REMARK INTER:                  -6.099
REMARK INTRA:                  -0.204
REMARK UNBOUND:                -0.192
REMARK  Name = 
REMARK  4 active torsions:
REMARK  status: ('A' for Active; 'I' for Inactive)
REMARK    1  A    between atoms: C_1  and  C_2
REMARK    2  A    between atoms: N_7  and  C_10
REMARK    3  A    between atoms: C_13  and  O_16
REMARK    4  A    between atoms: O_16  and  C_17
REMARK                            x       y       z     vdW  Elec       q    Type
REMARK                         _______ _______ _______ _____ _____    ______ ____
ROOT
ATOM      1  C   UNL     1       3.449   2.632  19.347  0.00  0.00    +0.213 C 
ATOM      2  O   UNL     1       3.669   2.069  20.419  0.00  0.00    -0.276 OA
ATOM      3  N   UNL     1       3.149   3.979  19.258  0.00  0.00    -0.299 N 
ATOM      4  C   UNL     1       3.020   4.766  20.487  0.00  0.00    +0.030 C 
ATOM      5  C   UNL     1       1.975   5.891  20.370  0.00  0.00    +0.028 C 
ATOM      6  N   UNL     1       2.228   6.764  19.207  0.00  0.00    -0.327 N 
ATOM      7  C   UNL     1       3.089   6.231  18.141  0.00  0.00    +0.028 C 
ATOM      8  C   UNL     1       2.936   4.704  18.002  0.00  0.00    +0.030 C 
ATOM      9  H   UNL     1       4.009   5.194  20.689  0.00  0.00    +0.048 HD
ATOM     10  H   UNL     1       2.766   4.115  21.332  0.00  0.00    +0.048 HD
ATOM     11  H   UNL     1       0.977   5.450  20.268  0.00  0.00    +0.048 HD
ATOM     12  H   UNL     1       2.003   6.463  21.306  0.00  0.00    +0.048 HD
ATOM     13  H   UNL     1       4.134   6.478  18.367  0.00  0.00    +0.048 HD
ATOM     14  H   UNL     1       2.834   6.674  17.171  0.00  0.00    +0.048 HD
ATOM     15  H   UNL     1       3.630   4.334  17.242  0.00  0.00    +0.048 HD
ATOM     16  H   UNL     1       1.918   4.463  17.672  0.00  0.00    +0.048 HD
ENDROOT
BRANCH   6  17
ATOM     17  C   UNL     1       1.826   8.092  19.225  0.00  0.00    +0.030 A 
ATOM     18  C   UNL     1       1.992   8.939  18.120  0.00  0.00    -0.037 A 
ATOM     19  C   UNL     1       1.581  10.283  18.135  0.00  0.00    -0.018 A 
ATOM     20  C   UNL     1       0.983  10.819  19.269  0.00  0.00    +0.120 A 
ATOM     21  C   UNL     1       0.802   9.998  20.377  0.00  0.00    -0.018 A 
ATOM     22  C   UNL     1       1.215   8.660  20.353  0.00  0.00    -0.037 A 
ATOM     23  H   UNL     1       2.473   8.579  17.214  0.00  0.00    +0.064 HD
ATOM     24  H   UNL     1       1.752  10.875  17.243  0.00  0.00    +0.065 HD
ATOM     25  H   UNL     1       0.328  10.396  21.271  0.00  0.00    +0.065 HD
ATOM     26  H   UNL     1       1.023   8.061  21.239  0.00  0.00    +0.064 HD
BRANCH  20  27
ATOM     27  O   UNL     1       0.538  12.102  19.420  0.00  0.00    -0.495 OA
BRANCH  27  28
ATOM     28  C   UNL     1      -0.503  12.526  18.549  0.00  0.00    +0.079 C 
ATOM     29  H   UNL     1      -0.117  13.184  17.764  0.00  0.00    +0.066 HD
ATOM     30  H   UNL     1      -1.313  13.009  19.107  0.00  0.00    +0.066 HD
ATOM     31  H   UNL     1      -0.917  11.637  18.065  0.00  0.00    +0.066 HD
ENDBRANCH  27  28
ENDBRANCH  20  27
ENDBRANCH   6  17
BRANCH   1  32
ATOM     32  C   UNL     1       3.504   1.858  18.054  0.00  0.00    +0.012 C 
ATOM     33  H   UNL     1       4.504   1.909  17.615  0.00  0.00    +0.032 HD
ATOM     34  H   UNL     1       2.802   2.299  17.339  0.00  0.00    +0.032 HD
ATOM     35  H   UNL     1       3.216   0.819  18.229  0.00  0.00    +0.032 HD
ENDBRANCH   1  32
TORSDOF 4
ENDMDL
MODEL 15
REMARK VINA RESULT:    -5.186      1.630      7.157
REMARK INTER + INTRA:          -6.288
REMARK INTER:                  -6.101
REMARK INTRA:                  -0.187
REMARK UNBOUND:                -0.192
REMARK  Name = 
REMARK  4 active torsions:
REMARK  status: ('A' for Active; 'I' for Inactive)
REMARK    1  A    between atoms: C_1  and  C_2
REMARK    2  A    between atoms: N_7  and  C_10
REMARK    3  A    between atoms: C_13  and  O_16
REMARK    4  A    between atoms: O_16  and  C_17
REMARK                            x       y       z     vdW  Elec       q    Type
REMARK                         _______ _______ _______ _____ _____    ______ ____
ROOT
ATOM      1  C   UNL     1       7.612   4.907  12.914  0.00  0.00    +0.213 C 
ATOM      2  O   UNL     1       7.262   4.338  11.880  0.00  0.00    -0.276 OA
ATOM      3  N   UNL     1       6.966   4.721  14.124  0.00  0.00    -0.299 N 
ATOM      4  C   UNL     1       5.776   3.868  14.176  0.00  0.00    +0.030 C 
ATOM      5  C   UNL     1       4.748   4.340  15.221  0.00  0.00    +0.028 C 
ATOM      6  N   UNL     1       5.349   4.494  16.560  0.00  0.00    -0.327 N 
ATOM      7  C   UNL     1       6.813   4.614  16.631  0.00  0.00    +0.028 C 
ATOM      8  C   UNL     1       7.381   5.331  15.391  0.00  0.00    +0.030 C 
ATOM      9  H   UNL     1       6.126   2.859  14.425  0.00  0.00    +0.048 HD
ATOM     10  H   UNL     1       5.301   3.816  13.190  0.00  0.00    +0.048 HD
ATOM     11  H   UNL     1       4.332   5.306  14.911  0.00  0.00    +0.048 HD
ATOM     12  H   UNL     1       3.935   3.604  15.236  0.00  0.00    +0.048 HD
ATOM     13  H   UNL     1       7.252   3.611  16.711  0.00  0.00    +0.048 HD
ATOM     14  H   UNL     1       7.118   5.193  17.511  0.00  0.00    +0.048 HD
ATOM     15  H   UNL     1       8.473   5.352  15.448  0.00  0.00    +0.048 HD
ATOM     16  H   UNL     1       7.026   6.368  15.369  0.00  0.00    +0.048 HD
ENDROOT
BRANCH   6  17
ATOM     17  C   UNL     1       4.574   4.333  17.700  0.00  0.00    +0.030 A 
ATOM     18  C   UNL     1       4.060   3.086  18.086  0.00  0.00    -0.037 A 
ATOM     19  C   UNL     1       3.279   2.921  19.242  0.00  0.00    -0.018 A 
ATOM     20  C   UNL     1       2.993   4.011  20.055  0.00  0.00    +0.120 A 
ATOM     21  C   UNL     1       3.496   5.258  19.698  0.00  0.00    -0.018 A 
ATOM     22  C   UNL     1       4.273   5.414  18.543  0.00  0.00    -0.037 A 
ATOM     23  H   UNL     1       4.234   2.203  17.476  0.00  0.00    +0.064 HD
ATOM     24  H   UNL     1       2.911   1.926  19.468  0.00  0.00    +0.065 HD
ATOM     25  H   UNL     1       3.290   6.122  20.325  0.00  0.00    +0.065 HD
ATOM     26  H   UNL     1       4.659   6.406  18.330  0.00  0.00    +0.064 HD
BRANCH  20  27
ATOM     27  O   UNL     1       2.251   3.993  21.202  0.00  0.00    -0.495 OA
BRANCH  27  28
ATOM     28  C   UNL     1       1.607   2.769  21.531  0.00  0.00    +0.079 C 
ATOM     29  H   UNL     1       1.014   2.868  22.445  0.00  0.00    +0.066 HD
ATOM     30  H   UNL     1       2.331   1.951  21.615  0.00  0.00    +0.066 HD
ATOM     31  H   UNL     1       0.921   2.524  20.714  0.00  0.00    +0.066 HD
ENDBRANCH  27  28
ENDBRANCH  20  27
ENDBRANCH   6  17
BRANCH   1  32
ATOM     32  C   UNL     1       8.791   5.846  12.907  0.00  0.00    +0.012 C 
ATOM     33  H   UNL     1       9.578   5.474  12.245  0.00  0.00    +0.032 HD
ATOM     34  H   UNL     1       9.207   5.911  13.917  0.00  0.00    +0.032 HD
ATOM     35  H   UNL     1       8.470   6.844  12.597  0.00  0.00    +0.032 HD
ENDBRANCH   1  32
TORSDOF 4
ENDMDL
MODEL 16
REMARK VINA RESULT:    -5.176      5.338      8.295
REMARK INTER + INTRA:          -6.276
REMARK INTER:                  -6.063
REMARK INTRA:                  -0.213
REMARK UNBOUND:                -0.192
REMARK  Name = 
REMARK  4 active torsions:
REMARK  status: ('A' for Active; 'I' for Inactive)
REMARK    1  A    between atoms: C_1  and  C_2
REMARK    2  A    between atoms: N_7  and  C_10
REMARK    3  A    between atoms: C_13  and  O_16
REMARK    4  A    between atoms: O_16  and  C_17
REMARK                            x       y       z     vdW  Elec       q    Type
REMARK                         _______ _______ _______ _____ _____    ______ ____
ROOT
ATOM      1  C   UNL     1       3.575   3.634  18.454  0.00  0.00    +0.213 C 
ATOM      2  O   UNL     1       3.879   2.713  19.210  0.00  0.00    -0.276 OA
ATOM      3  N   UNL     1       3.101   4.851  18.911  0.00  0.00    -0.299 N 
ATOM      4  C   UNL     1       2.884   5.040  20.347  0.00  0.00    +0.030 C 
ATOM      5  C   UNL     1       1.700   5.975  20.655  0.00  0.00    +0.028 C 
ATOM      6  N   UNL     1       1.824   7.273  19.963  0.00  0.00    -0.327 N 
ATOM      7  C   UNL     1       2.737   7.337  18.811  0.00  0.00    +0.028 C 
ATOM      8  C   UNL     1       2.782   5.996  18.053  0.00  0.00    +0.030 C 
ATOM      9  H   UNL     1       3.811   5.465  20.750  0.00  0.00    +0.048 HD
ATOM     10  H   UNL     1       2.727   4.073  20.840  0.00  0.00    +0.048 HD
ATOM     11  H   UNL     1       0.767   5.497  20.338  0.00  0.00    +0.048 HD
ATOM     12  H   UNL     1       1.664   6.111  21.743  0.00  0.00    +0.048 HD
ATOM     13  H   UNL     1       3.743   7.595  19.164  0.00  0.00    +0.048 HD
ATOM     14  H   UNL     1       2.415   8.105  18.098  0.00  0.00    +0.048 HD
ATOM     15  H   UNL     1       3.510   6.060  17.239  0.00  0.00    +0.048 HD
ATOM     16  H   UNL     1       1.801   5.789  17.609  0.00  0.00    +0.048 HD
ENDROOT
BRANCH   6  17
ATOM     17  C   UNL     1       1.253   8.415  20.505  0.00  0.00    +0.030 A 
ATOM     18  C   UNL     1       0.932   9.535  19.724  0.00  0.00    -0.037 A 
ATOM     19  C   UNL     1       0.349  10.691  20.271  0.00  0.00    -0.018 A 
ATOM     20  C   UNL     1       0.065  10.755  21.630  0.00  0.00    +0.120 A 
ATOM     21  C   UNL     1       0.369   9.656  22.426  0.00  0.00    -0.018 A 
ATOM     22  C   UNL     1       0.951   8.508  21.872  0.00  0.00    -0.037 A 
ATOM     23  H   UNL     1       1.152   9.548  18.659  0.00  0.00    +0.064 HD
ATOM     24  H   UNL     1       0.139  11.518  19.602  0.00  0.00    +0.065 HD
ATOM     25  H   UNL     1       0.147   9.684  23.490  0.00  0.00    +0.065 HD
ATOM     26  H   UNL     1       1.140   7.672  22.539  0.00  0.00    +0.064 HD
BRANCH  20  27
ATOM     27  O   UNL     1      -0.498  11.810  22.290  0.00  0.00    -0.495 OA
BRANCH  27  28
ATOM     28  C   UNL     1      -1.678  11.543  23.037  0.00  0.00    +0.079 C 
ATOM     29  H   UNL     1      -2.143  12.470  23.386  0.00  0.00    +0.066 HD
ATOM     30  H   UNL     1      -1.472  10.865  23.873  0.00  0.00    +0.066 HD
ATOM     31  H   UNL     1      -2.389  11.044  22.372  0.00  0.00    +0.066 HD
ENDBRANCH  27  28
ENDBRANCH  20  27
ENDBRANCH   6  17
BRANCH   1  32
ATOM     32  C   UNL     1       3.717   3.475  16.961  0.00  0.00    +0.012 C 
ATOM     33  H   UNL     1       4.746   3.219  16.695  0.00  0.00    +0.032 HD
ATOM     34  H   UNL     1       3.472   4.422  16.472  0.00  0.00    +0.032 HD
ATOM     35  H   UNL     1       3.027   2.707  16.602  0.00  0.00    +0.032 HD
ENDBRANCH   1  32
TORSDOF 4
ENDMDL
MODEL 17
REMARK VINA RESULT:    -4.918      5.243      7.714
REMARK INTER + INTRA:          -5.973
REMARK INTER:                  -5.763
REMARK INTRA:                  -0.209
REMARK UNBOUND:                -0.192
REMARK  Name = 
REMARK  4 active torsions:
REMARK  status: ('A' for Active; 'I' for Inactive)
REMARK    1  A    between atoms: C_1  and  C_2
REMARK    2  A    between atoms: N_7  and  C_10
REMARK    3  A    between atoms: C_13  and  O_16
REMARK    4  A    between atoms: O_16  and  C_17
REMARK                            x       y       z     vdW  Elec       q    Type
REMARK                         _______ _______ _______ _____ _____    ______ ____
ROOT
ATOM      1  C   UNL     1       4.914   4.103  18.047  0.00  0.00    +0.213 C 
ATOM      2  O   UNL     1       5.220   3.303  18.931  0.00  0.00    -0.276 OA
ATOM      3  N   UNL     1       4.191   5.255  18.300  0.00  0.00    -0.299 N 
ATOM      4  C   UNL     1       3.706   5.511  19.658  0.00  0.00    +0.030 C 
ATOM      5  C   UNL     1       2.359   6.258  19.680  0.00  0.00    +0.028 C 
ATOM      6  N   UNL     1       2.402   7.504  18.889  0.00  0.00    -0.327 N 
ATOM      7  C   UNL     1       3.478   7.632  17.894  0.00  0.00    +0.028 C 
ATOM      8  C   UNL     1       3.854   6.264  17.291  0.00  0.00    +0.030 C 
ATOM      9  H   UNL     1       4.475   6.113  20.156  0.00  0.00    +0.048 HD
ATOM     10  H   UNL     1       3.614   4.571  20.214  0.00  0.00    +0.048 HD
ATOM     11  H   UNL     1       1.577   5.609  19.270  0.00  0.00    +0.048 HD
ATOM     12  H   UNL     1       2.117   6.466  20.730  0.00  0.00    +0.048 HD
ATOM     13  H   UNL     1       4.358   8.079  18.373  0.00  0.00    +0.048 HD
ATOM     14  H   UNL     1       3.171   8.280  17.065  0.00  0.00    +0.048 HD
ATOM     15  H   UNL     1       4.692   6.387  16.599  0.00  0.00    +0.048 HD
ATOM     16  H   UNL     1       3.006   5.865  16.722  0.00  0.00    +0.048 HD
ENDROOT
BRANCH   6  17
ATOM     17  C   UNL     1       1.581   8.572  19.218  0.00  0.00    +0.030 A 
ATOM     18  C   UNL     1       1.149   8.808  20.531  0.00  0.00    -0.037 A 
ATOM     19  C   UNL     1       0.322   9.893  20.867  0.00  0.00    -0.018 A 
ATOM     20  C   UNL     1      -0.097  10.784  19.885  0.00  0.00    +0.120 A 
ATOM     21  C   UNL     1       0.323  10.576  18.575  0.00  0.00    -0.018 A 
ATOM     22  C   UNL     1       1.147   9.491  18.250  0.00  0.00    -0.037 A 
ATOM     23  H   UNL     1       1.428   8.132  21.335  0.00  0.00    +0.064 HD
ATOM     24  H   UNL     1       0.023  10.002  21.903  0.00  0.00    +0.065 HD
ATOM     25  H   UNL     1       0.013  11.266  17.794  0.00  0.00    +0.065 HD
ATOM     26  H   UNL     1       1.463   9.396  17.215  0.00  0.00    +0.064 HD
BRANCH  20  27
ATOM     27  O   UNL     1      -0.897  11.876  20.070  0.00  0.00    -0.495 OA
BRANCH  27  28
ATOM     28  C   UNL     1      -2.113  11.911  19.335  0.00  0.00    +0.079 C 
ATOM     29  H   UNL     1      -2.246  10.998  18.746  0.00  0.00    +0.066 HD
ATOM     30  H   UNL     1      -2.166  12.803  18.700  0.00  0.00    +0.066 HD
ATOM     31  H   UNL     1      -2.936  11.966  20.054  0.00  0.00    +0.066 HD
ENDBRANCH  27  28
ENDBRANCH  20  27
ENDBRANCH   6  17
BRANCH   1  32
ATOM     32  C   UNL     1       5.332   3.858  16.619  0.00  0.00    +0.012 C 
ATOM     33  H   UNL     1       5.879   2.916  16.531  0.00  0.00    +0.032 HD
ATOM     34  H   UNL     1       5.999   4.663  16.295  0.00  0.00    +0.032 HD
ATOM     35  H   UNL     1       4.453   3.852  15.970  0.00  0.00    +0.032 HD
ENDBRANCH   1  32
TORSDOF 4
ENDMDL
MODEL 18
REMARK VINA RESULT:    -4.850      6.741      7.827
REMARK INTER + INTRA:          -5.893
REMARK INTER:                  -5.685
REMARK INTRA:                  -0.208
REMARK UNBOUND:                -0.192
REMARK  Name = 
REMARK  4 active torsions:
REMARK  status: ('A' for Active; 'I' for Inactive)
REMARK    1  A    between atoms: C_1  and  C_2
REMARK    2  A    between atoms: N_7  and  C_10
REMARK    3  A    between atoms: C_13  and  O_16
REMARK    4  A    between atoms: O_16  and  C_17
REMARK                            x       y       z     vdW  Elec       q    Type
REMARK                         _______ _______ _______ _____ _____    ______ ____
ROOT
ATOM      1  C   UNL     1      -1.392  12.451  22.388  0.00  0.00    +0.213 C 
ATOM      2  O   UNL     1      -1.311  13.632  22.054  0.00  0.00    -0.276 OA
ATOM      3  N   UNL     1      -0.606  11.460  21.828  0.00  0.00    -0.299 N 
ATOM      4  C   UNL     1       0.317  11.806  20.745  0.00  0.00    +0.030 C 
ATOM      5  C   UNL     1       0.493  10.667  19.723  0.00  0.00    +0.028 C 
ATOM      6  N   UNL     1       0.885   9.399  20.368  0.00  0.00    -0.327 N 
ATOM      7  C   UNL     1       0.633   9.272  21.811  0.00  0.00    +0.028 C 
ATOM      8  C   UNL     1      -0.628  10.051  22.234  0.00  0.00    +0.030 C 
ATOM      9  H   UNL     1       1.279  12.037  21.216  0.00  0.00    +0.048 HD
ATOM     10  H   UNL     1      -0.022  12.713  20.230  0.00  0.00    +0.048 HD
ATOM     11  H   UNL     1      -0.450  10.511  19.187  0.00  0.00    +0.048 HD
ATOM     12  H   UNL     1       1.251  10.991  18.998  0.00  0.00    +0.048 HD
ATOM     13  H   UNL     1       1.503   9.651  22.363  0.00  0.00    +0.048 HD
ATOM     14  H   UNL     1       0.478   8.224  22.092  0.00  0.00    +0.048 HD
ATOM     15  H   UNL     1      -0.754   9.983  23.318  0.00  0.00    +0.048 HD
ATOM     16  H   UNL     1      -1.513   9.605  21.765  0.00  0.00    +0.048 HD
ENDROOT
BRANCH   6  17
ATOM     17  C   UNL     1       1.634   8.460  19.673  0.00  0.00    +0.030 A 
ATOM     18  C   UNL     1       1.965   7.212  20.222  0.00  0.00    -0.037 A 
ATOM     19  C   UNL     1       2.719   6.258  19.518  0.00  0.00    -0.018 A 
ATOM     20  C   UNL     1       3.162   6.529  18.228  0.00  0.00    +0.120 A 
ATOM     21  C   UNL     1       2.842   7.757  17.659  0.00  0.00    -0.018 A 
ATOM     22  C   UNL     1       2.091   8.703  18.369  0.00  0.00    -0.037 A 
ATOM     23  H   UNL     1       1.663   6.955  21.234  0.00  0.00    +0.064 HD
ATOM     24  H   UNL     1       2.941   5.320  20.014  0.00  0.00    +0.065 HD
ATOM     25  H   UNL     1       3.173   7.985  16.649  0.00  0.00    +0.065 HD
ATOM     26  H   UNL     1       1.850   9.633  17.862  0.00  0.00    +0.064 HD
BRANCH  20  27
ATOM     27  O   UNL     1       3.898   5.697  17.433  0.00  0.00    -0.495 OA
BRANCH  27  28
ATOM     28  C   UNL     1       3.782   4.302  17.684  0.00  0.00    +0.079 C 
ATOM     29  H   UNL     1       4.767   3.836  17.787  0.00  0.00    +0.066 HD
ATOM     30  H   UNL     1       3.191   3.808  16.904  0.00  0.00    +0.066 HD
ATOM     31  H   UNL     1       3.253   4.176  18.633  0.00  0.00    +0.066 HD
ENDBRANCH  27  28
ENDBRANCH  20  27
ENDBRANCH   6  17
BRANCH   1  32
ATOM     32  C   UNL     1      -2.371  12.025  23.454  0.00  0.00    +0.012 C 
ATOM     33  H   UNL     1      -2.738  11.014  23.261  0.00  0.00    +0.032 HD
ATOM     34  H   UNL     1      -3.231  12.701  23.444  0.00  0.00    +0.032 HD
ATOM     35  H   UNL     1      -1.897  12.079  24.437  0.00  0.00    +0.032 HD
ENDBRANCH   1  32
TORSDOF 4
ENDMDL
MODEL 19
REMARK VINA RESULT:    -4.809      4.312      7.352
REMARK INTER + INTRA:          -5.845
REMARK INTER:                  -5.625
REMARK INTRA:                  -0.221
REMARK UNBOUND:                -0.192
REMARK  Name = 
REMARK  4 active torsions:
REMARK  status: ('A' for Active; 'I' for Inactive)
REMARK    1  A    between atoms: C_1  and  C_2
REMARK    2  A    between atoms: N_7  and  C_10
REMARK    3  A    between atoms: C_13  and  O_16
REMARK    4  A    between atoms: O_16  and  C_17
REMARK                            x       y       z     vdW  Elec       q    Type
REMARK                         _______ _______ _______ _____ _____    ______ ____
ROOT
ATOM      1  C   UNL     1       6.939   4.852  16.768  0.00  0.00    +0.213 C 
ATOM      2  O   UNL     1       7.131   4.709  15.561  0.00  0.00    -0.276 OA
ATOM      3  N   UNL     1       5.829   5.503  17.275  0.00  0.00    -0.299 N 
ATOM      4  C   UNL     1       4.870   6.111  16.349  0.00  0.00    +0.030 C 
ATOM      5  C   UNL     1       4.220   7.388  16.914  0.00  0.00    +0.028 C 
ATOM      6  N   UNL     1       3.607   7.160  18.237  0.00  0.00    -0.327 N 
ATOM      7  C   UNL     1       4.050   5.976  18.989  0.00  0.00    +0.028 C 
ATOM      8  C   UNL     1       5.529   5.647  18.703  0.00  0.00    +0.030 C 
ATOM      9  H   UNL     1       4.101   5.355  16.155  0.00  0.00    +0.048 HD
ATOM     10  H   UNL     1       5.355   6.337  15.392  0.00  0.00    +0.048 HD
ATOM     11  H   UNL     1       4.982   8.171  17.011  0.00  0.00    +0.048 HD
ATOM     12  H   UNL     1       3.473   7.725  16.185  0.00  0.00    +0.048 HD
ATOM     13  H   UNL     1       3.422   5.120  18.713  0.00  0.00    +0.048 HD
ATOM     14  H   UNL     1       3.955   6.139  20.069  0.00  0.00    +0.048 HD
ATOM     15  H   UNL     1       5.809   4.732  19.232  0.00  0.00    +0.048 HD
ATOM     16  H   UNL     1       6.166   6.458  19.076  0.00  0.00    +0.048 HD
ENDROOT
BRANCH   6  17
ATOM     17  C   UNL     1       2.525   7.923  18.650  0.00  0.00    +0.030 A 
ATOM     18  C   UNL     1       1.979   7.813  19.938  0.00  0.00    -0.037 A 
ATOM     19  C   UNL     1       0.886   8.589  20.359  0.00  0.00    -0.018 A 
ATOM     20  C   UNL     1       0.307   9.510  19.494  0.00  0.00    +0.120 A 
ATOM     21  C   UNL     1       0.833   9.643  18.213  0.00  0.00    -0.018 A 
ATOM     22  C   UNL     1       1.922   8.864  17.801  0.00  0.00    -0.037 A 
ATOM     23  H   UNL     1       2.379   7.094  20.649  0.00  0.00    +0.064 HD
ATOM     24  H   UNL     1       0.517   8.439  21.368  0.00  0.00    +0.065 HD
ATOM     25  H   UNL     1       0.399  10.363  17.525  0.00  0.00    +0.065 HD
ATOM     26  H   UNL     1       2.305   9.031  16.799  0.00  0.00    +0.064 HD
BRANCH  20  27
ATOM     27  O   UNL     1      -0.754  10.326  19.772  0.00  0.00    -0.495 OA
BRANCH  27  28
ATOM     28  C   UNL     1      -1.568  10.715  18.673  0.00  0.00    +0.079 C 
ATOM     29  H   UNL     1      -0.990  10.745  17.744  0.00  0.00    +0.066 HD
ATOM     30  H   UNL     1      -2.059  11.676  18.866  0.00  0.00    +0.066 HD
ATOM     31  H   UNL     1      -2.351   9.960  18.554  0.00  0.00    +0.066 HD
ENDBRANCH  27  28
ENDBRANCH  20  27
ENDBRANCH   6  17
BRANCH   1  32
ATOM     32  C   UNL     1       7.925   4.302  17.768  0.00  0.00    +0.012 C 
ATOM     33  H   UNL     1       7.517   4.352  18.780  0.00  0.00    +0.032 HD
ATOM     34  H   UNL     1       8.837   4.907  17.744  0.00  0.00    +0.032 HD
ATOM     35  H   UNL     1       8.183   3.273  17.509  0.00  0.00    +0.032 HD
ENDBRANCH   1  32
TORSDOF 4
ENDMDL
MODEL 20
REMARK VINA RESULT:    -4.570     10.626     12.071
REMARK INTER + INTRA:          -5.565
REMARK INTER:                  -5.343
REMARK INTRA:                  -0.222
REMARK UNBOUND:                -0.192
REMARK  Name = 
REMARK  4 active torsions:
REMARK  status: ('A' for Active; 'I' for Inactive)
REMARK    1  A    between atoms: C_1  and  C_2
REMARK    2  A    between atoms: N_7  and  C_10
REMARK    3  A    between atoms: C_13  and  O_16
REMARK    4  A    between atoms: O_16  and  C_17
REMARK                            x       y       z     vdW  Elec       q    Type
REMARK                         _______ _______ _______ _____ _____    ______ ____
ROOT
ATOM      1  C   UNL     1      -4.180  14.363  23.327  0.00  0.00    +0.213 C 
ATOM      2  O   UNL     1      -5.147  15.115  23.444  0.00  0.00    -0.276 OA
ATOM      3  N   UNL     1      -3.862  13.733  22.137  0.00  0.00    -0.299 N 
ATOM      4  C   UNL     1      -4.742  13.906  20.979  0.00  0.00    +0.030 C 
ATOM      5  C   UNL     1      -4.798  12.657  20.079  0.00  0.00    +0.028 C 
ATOM      6  N   UNL     1      -3.454  12.214  19.661  0.00  0.00    -0.327 N 
ATOM      7  C   UNL     1      -2.311  12.693  20.453  0.00  0.00    +0.028 C 
ATOM      8  C   UNL     1      -2.690  12.876  21.936  0.00  0.00    +0.030 C 
ATOM      9  H   UNL     1      -4.349  14.758  20.412  0.00  0.00    +0.048 HD
ATOM     10  H   UNL     1      -5.755  14.169  21.306  0.00  0.00    +0.048 HD
ATOM     11  H   UNL     1      -5.284  11.839  20.623  0.00  0.00    +0.048 HD
ATOM     12  H   UNL     1      -5.419  12.908  19.210  0.00  0.00    +0.048 HD
ATOM     13  H   UNL     1      -1.963  13.649  20.041  0.00  0.00    +0.048 HD
ATOM     14  H   UNL     1      -1.480  11.979  20.415  0.00  0.00    +0.048 HD
ATOM     15  H   UNL     1      -1.836  13.286  22.484  0.00  0.00    +0.048 HD
ATOM     16  H   UNL     1      -2.935  11.903  22.378  0.00  0.00    +0.048 HD
ENDROOT
BRANCH   6  17
ATOM     17  C   UNL     1      -3.278  11.540  18.462  0.00  0.00    +0.030 A 
ATOM     18  C   UNL     1      -2.135  10.772  18.195  0.00  0.00    -0.037 A 
ATOM     19  C   UNL     1      -1.958  10.085  16.982  0.00  0.00    -0.018 A 
ATOM     20  C   UNL     1      -2.934  10.145  15.994  0.00  0.00    +0.120 A 
ATOM     21  C   UNL     1      -4.080  10.895  16.236  0.00  0.00    -0.018 A 
ATOM     22  C   UNL     1      -4.248  11.578  17.448  0.00  0.00    -0.037 A 
ATOM     23  H   UNL     1      -1.329  10.707  18.922  0.00  0.00    +0.064 HD
ATOM     24  H   UNL     1      -1.042   9.520  16.848  0.00  0.00    +0.065 HD
ATOM     25  H   UNL     1      -4.859  10.948  15.480  0.00  0.00    +0.065 HD
ATOM     26  H   UNL     1      -5.175  12.125  17.590  0.00  0.00    +0.064 HD
BRANCH  20  27
ATOM     27  O   UNL     1      -2.892   9.529  14.775  0.00  0.00    -0.495 OA
BRANCH  27  28
ATOM     28  C   UNL     1      -3.748  10.047  13.765  0.00  0.00    +0.079 C 
ATOM     29  H   UNL     1      -4.799   9.841  13.994  0.00  0.00    +0.066 HD
ATOM     30  H   UNL     1      -3.474   9.659  12.778  0.00  0.00    +0.066 HD
ATOM     31  H   UNL     1      -3.620  11.133  13.743  0.00  0.00    +0.066 HD
ENDBRANCH  27  28
ENDBRANCH  20  27
ENDBRANCH   6  17
BRANCH   1  32
ATOM     32  C   UNL     1      -3.275  14.097  24.504  0.00  0.00    +0.012 C 
ATOM     33  H   UNL     1      -2.227  14.086  24.192  0.00  0.00    +0.032 HD
ATOM     34  H   UNL     1      -3.509  13.114  24.924  0.00  0.00    +0.032 HD
ATOM     35  H   UNL     1      -3.436  14.854  25.276  0.00  0.00    +0.032 HD
ENDBRANCH   1  32
TORSDOF 4
ENDMDL
MODEL 21
REMARK VINA RESULT:    -4.506      8.382     11.275
REMARK INTER + INTRA:          -5.488
REMARK INTER:                  -5.274
REMARK INTRA:                  -0.214
REMARK UNBOUND:                -0.192
REMARK  Name = 
REMARK  4 active torsions:
REMARK  status: ('A' for Active; 'I' for Inactive)
REMARK    1  A    between atoms: C_1  and  C_2
REMARK    2  A    between atoms: N_7  and  C_10
REMARK    3  A    between atoms: C_13  and  O_16
REMARK    4  A    between atoms: O_16  and  C_17
REMARK                            x       y       z     vdW  Elec       q    Type
REMARK                         _______ _______ _______ _____ _____    ______ ____
ROOT
ATOM      1  C   UNL     1       2.379   7.401  19.243  0.00  0.00    +0.213 C 
ATOM      2  O   UNL     1       2.721   6.426  19.911  0.00  0.00    -0.276 OA
ATOM      3  N   UNL     1       1.621   8.435  19.763  0.00  0.00    -0.299 N 
ATOM      4  C   UNL     1       1.142   8.346  21.145  0.00  0.00    +0.030 C 
ATOM      5  C   UNL     1      -0.228   9.018  21.347  0.00  0.00    +0.028 C 
ATOM      6  N   UNL     1      -0.235  10.416  20.874  0.00  0.00    -0.327 N 
ATOM      7  C   UNL     1       0.825  10.814  19.935  0.00  0.00    +0.028 C 
ATOM      8  C   UNL     1       1.240   9.642  19.024  0.00  0.00    +0.030 C 
ATOM      9  H   UNL     1       1.896   8.838  21.769  0.00  0.00    +0.048 HD
ATOM     10  H   UNL     1       1.088   7.297  21.462  0.00  0.00    +0.048 HD
ATOM     11  H   UNL     1      -0.993   8.458  20.796  0.00  0.00    +0.048 HD
ATOM     12  H   UNL     1      -0.466   8.963  22.417  0.00  0.00    +0.048 HD
ATOM     13  H   UNL     1       1.695  11.165  20.503  0.00  0.00    +0.048 HD
ATOM     14  H   UNL     1       0.488  11.629  19.284  0.00  0.00    +0.048 HD
ATOM     15  H   UNL     1       2.066   9.955  18.379  0.00  0.00    +0.048 HD
ATOM     16  H   UNL     1       0.399   9.360  18.378  0.00  0.00    +0.048 HD
ENDROOT
BRANCH   6  17
ATOM     17  C   UNL     1      -1.087  11.348  21.448  0.00  0.00    +0.030 A 
ATOM     18  C   UNL     1      -1.667  12.389  20.708  0.00  0.00    -0.037 A 
ATOM     19  C   UNL     1      -2.534  13.330  21.287  0.00  0.00    -0.018 A 
ATOM     20  C   UNL     1      -2.852  13.251  22.638  0.00  0.00    +0.120 A 
ATOM     21  C   UNL     1      -2.295  12.225  23.393  0.00  0.00    -0.018 A 
ATOM     22  C   UNL     1      -1.430  11.291  22.807  0.00  0.00    -0.037 A 
ATOM     23  H   UNL     1      -1.437  12.512  19.652  0.00  0.00    +0.064 HD
ATOM     24  H   UNL     1      -2.935  14.111  20.650  0.00  0.00    +0.065 HD
ATOM     25  H   UNL     1      -2.538  12.140  24.450  0.00  0.00    +0.065 HD
ATOM     26  H   UNL     1      -1.048  10.497  23.442  0.00  0.00    +0.064 HD
BRANCH  20  27
ATOM     27  O   UNL     1      -3.677  14.094  23.327  0.00  0.00    -0.495 OA
BRANCH  27  28
ATOM     28  C   UNL     1      -3.280  14.445  24.646  0.00  0.00    +0.079 C 
ATOM     29  H   UNL     1      -2.202  14.317  24.781  0.00  0.00    +0.066 HD
ATOM     30  H   UNL     1      -3.843  13.874  25.393  0.00  0.00    +0.066 HD
ATOM     31  H   UNL     1      -3.511  15.504  24.794  0.00  0.00    +0.066 HD
ENDBRANCH  27  28
ENDBRANCH  20  27
ENDBRANCH   6  17
BRANCH   1  32
ATOM     32  C   UNL     1       2.790   7.517  17.796  0.00  0.00    +0.012 C 
ATOM     33  H   UNL     1       2.331   8.394  17.332  0.00  0.00    +0.032 HD
ATOM     34  H   UNL     1       2.446   6.632  17.252  0.00  0.00    +0.032 HD
ATOM     35  H   UNL     1       3.879   7.570  17.722  0.00  0.00    +0.032 HD
ENDBRANCH   1  32
TORSDOF 4
ENDMDL
MODEL 22
REMARK VINA RESULT:    -4.432      8.077     11.022
REMARK INTER + INTRA:          -5.402
REMARK INTER:                  -5.207
REMARK INTRA:                  -0.196
REMARK UNBOUND:                -0.192
REMARK  Name = 
REMARK  4 active torsions:
REMARK  status: ('A' for Active; 'I' for Inactive)
REMARK    1  A    between atoms: C_1  and  C_2
REMARK    2  A    between atoms: N_7  and  C_10
REMARK    3  A    between atoms: C_13  and  O_16
REMARK    4  A    between atoms: O_16  and  C_17
REMARK                            x       y       z     vdW  Elec       q    Type
REMARK                         _______ _______ _______ _____ _____    ______ ____
ROOT
ATOM      1  C   UNL     1       2.579   7.249  19.044  0.00  0.00    +0.213 C 
ATOM      2  O   UNL     1       2.995   6.294  19.699  0.00  0.00    -0.276 OA
ATOM      3  N   UNL     1       1.786   8.242  19.592  0.00  0.00    -0.299 N 
ATOM      4  C   UNL     1       1.362   8.129  20.989  0.00  0.00    +0.030 C 
ATOM      5  C   UNL     1      -0.034   8.729  21.241  0.00  0.00    +0.028 C 
ATOM      6  N   UNL     1      -0.132  10.124  20.768  0.00  0.00    -0.327 N 
ATOM      7  C   UNL     1       0.871  10.576  19.792  0.00  0.00    +0.028 C 
ATOM      8  C   UNL     1       1.315   9.426  18.867  0.00  0.00    +0.030 C 
ATOM      9  H   UNL     1       2.110   8.662  21.587  0.00  0.00    +0.048 HD
ATOM     10  H   UNL     1       1.374   7.080  21.308  0.00  0.00    +0.048 HD
ATOM     11  H   UNL     1      -0.787   8.128  20.717  0.00  0.00    +0.048 HD
ATOM     12  H   UNL     1      -0.231   8.663  22.318  0.00  0.00    +0.048 HD
ATOM     13  H   UNL     1       1.741  10.973  20.330  0.00  0.00    +0.048 HD
ATOM     14  H   UNL     1       0.468  11.371  19.154  0.00  0.00    +0.048 HD
ATOM     15  H   UNL     1       2.100   9.781  18.193  0.00  0.00    +0.048 HD
ATOM     16  H   UNL     1       0.468   9.099  18.251  0.00  0.00    +0.048 HD
ENDROOT
BRANCH   6  17
ATOM     17  C   UNL     1      -1.012  11.010  21.373  0.00  0.00    +0.030 A 
ATOM     18  C   UNL     1      -1.201  11.045  22.763  0.00  0.00    -0.037 A 
ATOM     19  C   UNL     1      -2.088  11.945  23.378  0.00  0.00    -0.018 A 
ATOM     20  C   UNL     1      -2.814  12.847  22.609  0.00  0.00    +0.120 A 
ATOM     21  C   UNL     1      -2.640  12.837  21.229  0.00  0.00    -0.018 A 
ATOM     22  C   UNL     1      -1.755  11.935  20.625  0.00  0.00    -0.037 A 
ATOM     23  H   UNL     1      -0.675  10.348  23.411  0.00  0.00    +0.064 HD
ATOM     24  H   UNL     1      -2.185  11.904  24.457  0.00  0.00    +0.065 HD
ATOM     25  H   UNL     1      -3.193  13.540  20.611  0.00  0.00    +0.065 HD
ATOM     26  H   UNL     1      -1.642  11.992  19.546  0.00  0.00    +0.064 HD
BRANCH  20  27
ATOM     27  O   UNL     1      -3.705  13.773  23.073  0.00  0.00    -0.495 OA
BRANCH  27  28
ATOM     28  C   UNL     1      -4.903  13.275  23.654  0.00  0.00    +0.079 C 
ATOM     29  H   UNL     1      -5.785  13.674  23.143  0.00  0.00    +0.066 HD
ATOM     30  H   UNL     1      -4.939  13.485  24.729  0.00  0.00    +0.066 HD
ATOM     31  H   UNL     1      -4.909  12.188  23.528  0.00  0.00    +0.066 HD
ENDBRANCH  27  28
ENDBRANCH  20  27
ENDBRANCH   6  17
BRANCH   1  32
ATOM     32  C   UNL     1       2.931   7.384  17.584  0.00  0.00    +0.012 C 
ATOM     33  H   UNL     1       3.802   8.031  17.454  0.00  0.00    +0.032 HD
ATOM     34  H   UNL     1       2.092   7.842  17.051  0.00  0.00    +0.032 HD
ATOM     35  H   UNL     1       3.119   6.397  17.154  0.00  0.00    +0.032 HD
ENDBRANCH   1  32
TORSDOF 4
ENDMDL
MODEL 23
REMARK VINA RESULT:    -4.231     10.485     12.038
REMARK INTER + INTRA:          -5.166
REMARK INTER:                  -4.961
REMARK INTRA:                  -0.205
REMARK UNBOUND:                -0.192
REMARK  Name = 
REMARK  4 active torsions:
REMARK  status: ('A' for Active; 'I' for Inactive)
REMARK    1  A    between atoms: C_1  and  C_2
REMARK    2  A    between atoms: N_7  and  C_10
REMARK    3  A    between atoms: C_13  and  O_16
REMARK    4  A    between atoms: O_16  and  C_17
REMARK                            x       y       z     vdW  Elec       q    Type
REMARK                         _______ _______ _______ _____ _____    ______ ____
ROOT
ATOM      1  C   UNL     1      -2.659  14.487  23.890  0.00  0.00    +0.213 C 
ATOM      2  O   UNL     1      -1.618  14.508  24.546  0.00  0.00    -0.276 OA
ATOM      3  N   UNL     1      -2.792  13.758  22.722  0.00  0.00    -0.299 N 
ATOM      4  C   UNL     1      -1.634  13.031  22.196  0.00  0.00    +0.030 C 
ATOM      5  C   UNL     1      -1.614  12.970  20.658  0.00  0.00    +0.028 C 
ATOM      6  N   UNL     1      -2.873  12.429  20.108  0.00  0.00    -0.327 N 
ATOM      7  C   UNL     1      -4.053  12.446  20.986  0.00  0.00    +0.028 C 
ATOM      8  C   UNL     1      -4.028  13.656  21.940  0.00  0.00    +0.030 C 
ATOM      9  H   UNL     1      -1.687  12.017  22.610  0.00  0.00    +0.048 HD
ATOM     10  H   UNL     1      -0.703  13.484  22.558  0.00  0.00    +0.048 HD
ATOM     11  H   UNL     1      -1.461  13.979  20.256  0.00  0.00    +0.048 HD
ATOM     12  H   UNL     1      -0.758  12.350  20.365  0.00  0.00    +0.048 HD
ATOM     13  H   UNL     1      -4.079  11.517  21.569  0.00  0.00    +0.048 HD
ATOM     14  H   UNL     1      -4.977  12.511  20.400  0.00  0.00    +0.048 HD
ATOM     15  H   UNL     1      -4.887  13.608  22.615  0.00  0.00    +0.048 HD
ATOM     16  H   UNL     1      -4.108  14.585  21.362  0.00  0.00    +0.048 HD
ENDROOT
BRANCH   6  17
ATOM     17  C   UNL     1      -2.878  11.761  18.892  0.00  0.00    +0.030 A 
ATOM     18  C   UNL     1      -3.966  11.823  18.009  0.00  0.00    -0.037 A 
ATOM     19  C   UNL     1      -3.971  11.150  16.775  0.00  0.00    -0.018 A 
ATOM     20  C   UNL     1      -2.872  10.393  16.386  0.00  0.00    +0.120 A 
ATOM     21  C   UNL     1      -1.777  10.321  17.242  0.00  0.00    -0.018 A 
ATOM     22  C   UNL     1      -1.782  10.993  18.471  0.00  0.00    -0.037 A 
ATOM     23  H   UNL     1      -4.861  12.382  18.271  0.00  0.00    +0.064 HD
ATOM     24  H   UNL     1      -4.853  11.240  16.152  0.00  0.00    +0.065 HD
ATOM     25  H   UNL     1      -0.905   9.740  16.952  0.00  0.00    +0.065 HD
ATOM     26  H   UNL     1      -0.888  10.921  19.084  0.00  0.00    +0.064 HD
BRANCH  20  27
ATOM     27  O   UNL     1      -2.742   9.693  15.220  0.00  0.00    -0.495 OA
BRANCH  27  28
ATOM     28  C   UNL     1      -3.649  10.016  14.174  0.00  0.00    +0.079 C 
ATOM     29  H   UNL     1      -3.152   9.989  13.199  0.00  0.00    +0.066 HD
ATOM     30  H   UNL     1      -4.125  10.987  14.349  0.00  0.00    +0.066 HD
ATOM     31  H   UNL     1      -4.436   9.256  14.168  0.00  0.00    +0.066 HD
ENDBRANCH  27  28
ENDBRANCH  20  27
ENDBRANCH   6  17
BRANCH   1  32
ATOM     32  C   UNL     1      -3.865  15.267  24.349  0.00  0.00    +0.012 C 
ATOM     33  H   UNL     1      -4.786  14.815  23.971  0.00  0.00    +0.032 HD
ATOM     34  H   UNL     1      -3.806  16.286  23.956  0.00  0.00    +0.032 HD
ATOM     35  H   UNL     1      -3.884  15.315  25.441  0.00  0.00    +0.032 HD
ENDBRANCH   1  32
TORSDOF 4
ENDMDL
MODEL 24
REMARK VINA RESULT:    -4.155      3.144      3.693
REMARK INTER + INTRA:          -5.076
REMARK INTER:                  -4.901
REMARK INTRA:                  -0.175
REMARK UNBOUND:                -0.192
REMARK  Name = 
REMARK  4 active torsions:
REMARK  status: ('A' for Active; 'I' for Inactive)
REMARK    1  A    between atoms: C_1  and  C_2
REMARK    2  A    between atoms: N_7  and  C_10
REMARK    3  A    between atoms: C_13  and  O_16
REMARK    4  A    between atoms: O_16  and  C_17
REMARK                            x       y       z     vdW  Elec       q    Type
REMARK                         _______ _______ _______ _____ _____    ______ ____
ROOT
ATOM      1  C   UNL     1       1.393   2.452  19.443  0.00  0.00    +0.213 C 
ATOM      2  O   UNL     1       1.000   1.685  18.565  0.00  0.00    -0.276 OA
ATOM      3  N   UNL     1       2.360   3.416  19.215  0.00  0.00    -0.299 N 
ATOM      4  C   UNL     1       2.998   3.492  17.898  0.00  0.00    +0.030 C 
ATOM      5  C   UNL     1       4.468   3.943  17.971  0.00  0.00    +0.028 C 
ATOM      6  N   UNL     1       4.622   5.213  18.709  0.00  0.00    -0.327 N 
ATOM      7  C   UNL     1       3.520   5.614  19.596  0.00  0.00    +0.028 C 
ATOM      8  C   UNL     1       2.817   4.388  20.212  0.00  0.00    +0.030 C 
ATOM      9  H   UNL     1       2.415   4.210  17.310  0.00  0.00    +0.048 HD
ATOM     10  H   UNL     1       2.936   2.523  17.388  0.00  0.00    +0.048 HD
ATOM     11  H   UNL     1       5.061   3.171  18.476  0.00  0.00    +0.048 HD
ATOM     12  H   UNL     1       4.834   4.039  16.941  0.00  0.00    +0.048 HD
ATOM     13  H   UNL     1       2.795   6.205  19.022  0.00  0.00    +0.048 HD
ATOM     14  H   UNL     1       3.887   6.230  20.425  0.00  0.00    +0.048 HD
ATOM     15  H   UNL     1       1.970   4.719  20.819  0.00  0.00    +0.048 HD
ATOM     16  H   UNL     1       3.514   3.855  20.871  0.00  0.00    +0.048 HD
ENDROOT
BRANCH   6  17
ATOM     17  C   UNL     1       5.673   6.070  18.418  0.00  0.00    +0.030 A 
ATOM     18  C   UNL     1       6.959   5.884  18.946  0.00  0.00    -0.037 A 
ATOM     19  C   UNL     1       8.026   6.749  18.648  0.00  0.00    -0.018 A 
ATOM     20  C   UNL     1       7.832   7.834  17.800  0.00  0.00    +0.120 A 
ATOM     21  C   UNL     1       6.567   8.037  17.258  0.00  0.00    -0.018 A 
ATOM     22  C   UNL     1       5.509   7.170  17.562  0.00  0.00    -0.037 A 
ATOM     23  H   UNL     1       7.163   5.066  19.632  0.00  0.00    +0.064 HD
ATOM     24  H   UNL     1       8.988   6.543  19.103  0.00  0.00    +0.065 HD
ATOM     25  H   UNL     1       6.397   8.875  16.587  0.00  0.00    +0.065 HD
ATOM     26  H   UNL     1       4.552   7.365  17.088  0.00  0.00    +0.064 HD
BRANCH  20  27
ATOM     27  O   UNL     1       8.776   8.749  17.427  0.00  0.00    -0.495 OA
BRANCH  27  28
ATOM     28  C   UNL     1       8.815   9.965  18.161  0.00  0.00    +0.079 C 
ATOM     29  H   UNL     1       7.862  10.154  18.664  0.00  0.00    +0.066 HD
ATOM     30  H   UNL     1       9.097  10.807  17.518  0.00  0.00    +0.066 HD
ATOM     31  H   UNL     1       9.584   9.864  18.933  0.00  0.00    +0.066 HD
ENDBRANCH  27  28
ENDBRANCH  20  27
ENDBRANCH   6  17
BRANCH   1  32
ATOM     32  C   UNL     1       0.818   2.378  20.835  0.00  0.00    +0.012 C 
ATOM     33  H   UNL     1       1.241   3.160  21.471  0.00  0.00    +0.032 HD
ATOM     34  H   UNL     1       1.072   1.411  21.279  0.00  0.00    +0.032 HD
ATOM     35  H   UNL     1      -0.270   2.467  20.792  0.00  0.00    +0.032 HD
ENDBRANCH   1  32
TORSDOF 4
ENDMDL
MODEL 25
REMARK VINA RESULT:    -4.119      6.683      8.585
REMARK INTER + INTRA:          -5.034
REMARK INTER:                  -4.810
REMARK INTRA:                  -0.224
REMARK UNBOUND:                -0.192
REMARK  Name = 
REMARK  4 active torsions:
REMARK  status: ('A' for Active; 'I' for Inactive)
REMARK    1  A    between atoms: C_1  and  C_2
REMARK    2  A    between atoms: N_7  and  C_10
REMARK    3  A    between atoms: C_13  and  O_16
REMARK    4  A    between atoms: O_16  and  C_17
REMARK                            x       y       z     vdW  Elec       q    Type
REMARK                         _______ _______ _______ _____ _____    ______ ____
ROOT
ATOM      1  C   UNL     1       9.653  13.698  19.353  0.00  0.00    +0.213 C 
ATOM      2  O   UNL     1       9.721  14.514  18.435  0.00  0.00    -0.276 OA
ATOM      3  N   UNL     1       9.403  12.354  19.141  0.00  0.00    -0.299 N 
ATOM      4  C   UNL     1       9.139  11.881  17.780  0.00  0.00    +0.030 C 
ATOM      5  C   UNL     1       8.147  10.704  17.737  0.00  0.00    +0.028 C 
ATOM      6  N   UNL     1       8.568   9.592  18.611  0.00  0.00    -0.327 N 
ATOM      7  C   UNL     1       9.544   9.899  19.668  0.00  0.00    +0.028 C 
ATOM      8  C   UNL     1       9.370  11.336  20.196  0.00  0.00    +0.030 C 
ATOM      9  H   UNL     1      10.105  11.571  17.364  0.00  0.00    +0.048 HD
ATOM     10  H   UNL     1       8.763  12.702  17.157  0.00  0.00    +0.048 HD
ATOM     11  H   UNL     1       7.159  11.050  18.061  0.00  0.00    +0.048 HD
ATOM     12  H   UNL     1       8.071  10.377  16.692  0.00  0.00    +0.048 HD
ATOM     13  H   UNL     1      10.558   9.774  19.267  0.00  0.00    +0.048 HD
ATOM     14  H   UNL     1       9.426   9.221  20.521  0.00  0.00    +0.048 HD
ATOM     15  H   UNL     1      10.145  11.550  20.938  0.00  0.00    +0.048 HD
ATOM     16  H   UNL     1       8.396  11.432  20.692  0.00  0.00    +0.048 HD
ENDROOT
BRANCH   6  17
ATOM     17  C   UNL     1       8.203   8.287  18.313  0.00  0.00    +0.030 A 
ATOM     18  C   UNL     1       8.431   7.225  19.200  0.00  0.00    -0.037 A 
ATOM     19  C   UNL     1       8.057   5.903  18.901  0.00  0.00    -0.018 A 
ATOM     20  C   UNL     1       7.433   5.608  17.695  0.00  0.00    +0.120 A 
ATOM     21  C   UNL     1       7.189   6.645  16.800  0.00  0.00    -0.018 A 
ATOM     22  C   UNL     1       7.567   7.959  17.106  0.00  0.00    -0.037 A 
ATOM     23  H   UNL     1       8.936   7.393  20.148  0.00  0.00    +0.064 HD
ATOM     24  H   UNL     1       8.276   5.136  19.635  0.00  0.00    +0.065 HD
ATOM     25  H   UNL     1       6.694   6.437  15.855  0.00  0.00    +0.065 HD
ATOM     26  H   UNL     1       7.326   8.730  16.380  0.00  0.00    +0.064 HD
BRANCH  20  27
ATOM     27  O   UNL     1       7.017   4.375  17.279  0.00  0.00    -0.495 OA
BRANCH  27  28
ATOM     28  C   UNL     1       6.419   4.301  15.991  0.00  0.00    +0.079 C 
ATOM     29  H   UNL     1       5.399   4.697  16.005  0.00  0.00    +0.066 HD
ATOM     30  H   UNL     1       6.441   3.276  15.603  0.00  0.00    +0.066 HD
ATOM     31  H   UNL     1       7.008   4.926  15.313  0.00  0.00    +0.066 HD
ENDBRANCH  27  28
ENDBRANCH  20  27
ENDBRANCH   6  17
BRANCH   1  32
ATOM     32  C   UNL     1       9.853  14.138  20.782  0.00  0.00    +0.012 C 
ATOM     33  H   UNL     1      10.197  15.174  20.823  0.00  0.00    +0.032 HD
ATOM     34  H   UNL     1      10.620  13.512  21.248  0.00  0.00    +0.032 HD
ATOM     35  H   UNL     1       8.921  14.021  21.340  0.00  0.00    +0.032 HD
ENDBRANCH   1  32
TORSDOF 4
ENDMDL
MODEL 26
REMARK VINA RESULT:    -4.082      7.167      8.995
REMARK INTER + INTRA:          -4.991
REMARK INTER:                  -4.802
REMARK INTRA:                  -0.188
REMARK UNBOUND:                -0.192
REMARK  Name = 
REMARK  4 active torsions:
REMARK  status: ('A' for Active; 'I' for Inactive)
REMARK    1  A    between atoms: C_1  and  C_2
REMARK    2  A    between atoms: N_7  and  C_10
REMARK    3  A    between atoms: C_13  and  O_16
REMARK    4  A    between atoms: O_16  and  C_17
REMARK                            x       y       z     vdW  Elec       q    Type
REMARK                         _______ _______ _______ _____ _____    ______ ____
ROOT
ATOM      1  C   UNL     1       2.768   5.501  19.124  0.00  0.00    +0.213 C 
ATOM      2  O   UNL     1       2.903   4.883  20.180  0.00  0.00    -0.276 OA
ATOM      3  N   UNL     1       2.375   6.827  19.079  0.00  0.00    -0.299 N 
ATOM      4  C   UNL     1       2.038   7.516  20.328  0.00  0.00    +0.030 C 
ATOM      5  C   UNL     1       0.929   8.568  20.150  0.00  0.00    +0.028 C 
ATOM      6  N   UNL     1       1.248   9.535  19.080  0.00  0.00    -0.327 N 
ATOM      7  C   UNL     1       2.269   9.140  18.099  0.00  0.00    +0.028 C 
ATOM      8  C   UNL     1       2.255   7.618  17.852  0.00  0.00    +0.030 C 
ATOM      9  H   UNL     1       2.959   7.998  20.676  0.00  0.00    +0.048 HD
ATOM     10  H   UNL     1       1.739   6.791  21.094  0.00  0.00    +0.048 HD
ATOM     11  H   UNL     1      -0.012   8.065  19.898  0.00  0.00    +0.048 HD
ATOM     12  H   UNL     1       0.800   9.076  21.114  0.00  0.00    +0.048 HD
ATOM     13  H   UNL     1       3.257   9.444  18.467  0.00  0.00    +0.048 HD
ATOM     14  H   UNL     1       2.096   9.629  17.133  0.00  0.00    +0.048 HD
ATOM     15  H   UNL     1       3.062   7.352  17.162  0.00  0.00    +0.048 HD
ATOM     16  H   UNL     1       1.306   7.329  17.385  0.00  0.00    +0.048 HD
ENDROOT
BRANCH   6  17
ATOM     17  C   UNL     1       0.743  10.826  19.128  0.00  0.00    +0.030 A 
ATOM     18  C   UNL     1      -0.558  11.105  19.574  0.00  0.00    -0.037 A 
ATOM     19  C   UNL     1      -1.069  12.413  19.627  0.00  0.00    -0.018 A 
ATOM     20  C   UNL     1      -0.281  13.489  19.235  0.00  0.00    +0.120 A 
ATOM     21  C   UNL     1       1.014  13.240  18.795  0.00  0.00    -0.018 A 
ATOM     22  C   UNL     1       1.515  11.932  18.744  0.00  0.00    -0.037 A 
ATOM     23  H   UNL     1      -1.225  10.300  19.872  0.00  0.00    +0.064 HD
ATOM     24  H   UNL     1      -2.088  12.545  19.975  0.00  0.00    +0.065 HD
ATOM     25  H   UNL     1       1.649  14.069  18.492  0.00  0.00    +0.065 HD
ATOM     26  H   UNL     1       2.543  11.803  18.416  0.00  0.00    +0.064 HD
BRANCH  20  27
ATOM     27  O   UNL     1      -0.649  14.805  19.237  0.00  0.00    -0.495 OA
BRANCH  27  28
ATOM     28  C   UNL     1      -1.374  15.267  20.370  0.00  0.00    +0.079 C 
ATOM     29  H   UNL     1      -1.708  14.431  20.993  0.00  0.00    +0.066 HD
ATOM     30  H   UNL     1      -2.219  15.897  20.068  0.00  0.00    +0.066 HD
ATOM     31  H   UNL     1      -0.698  15.881  20.971  0.00  0.00    +0.066 HD
ENDBRANCH  27  28
ENDBRANCH  20  27
ENDBRANCH   6  17
BRANCH   1  32
ATOM     32  C   UNL     1       3.038   4.824  17.804  0.00  0.00    +0.012 C 
ATOM     33  H   UNL     1       3.552   3.871  17.955  0.00  0.00    +0.032 HD
ATOM     34  H   UNL     1       3.688   5.462  17.198  0.00  0.00    +0.032 HD
ATOM     35  H   UNL     1       2.099   4.671  17.266  0.00  0.00    +0.032 HD
ENDBRANCH   1  32
TORSDOF 4
ENDMDL
MODEL 27
REMARK VINA RESULT:    -4.028      8.670     10.102
REMARK INTER + INTRA:          -4.927
REMARK INTER:                  -4.714
REMARK INTRA:                  -0.213
REMARK UNBOUND:                -0.192
REMARK  Name = 
REMARK  4 active torsions:
REMARK  status: ('A' for Active; 'I' for Inactive)
REMARK    1  A    between atoms: C_1  and  C_2
REMARK    2  A    between atoms: N_7  and  C_10
REMARK    3  A    between atoms: C_13  and  O_16
REMARK    4  A    between atoms: O_16  and  C_17
REMARK                            x       y       z     vdW  Elec       q    Type
REMARK                         _______ _______ _______ _____ _____    ______ ____
ROOT
ATOM      1  C   UNL     1      -3.243  14.498  21.779  0.00  0.00    +0.213 C 
ATOM      2  O   UNL     1      -3.636  15.247  20.885  0.00  0.00    -0.276 OA
ATOM      3  N   UNL     1      -2.339  13.475  21.553  0.00  0.00    -0.299 N 
ATOM      4  C   UNL     1      -1.877  13.218  20.187  0.00  0.00    +0.030 C 
ATOM      5  C   UNL     1      -1.595  11.728  19.921  0.00  0.00    +0.028 C 
ATOM      6  N   UNL     1      -0.664  11.154  20.912  0.00  0.00    -0.327 N 
ATOM      7  C   UNL     1      -0.498  11.881  22.179  0.00  0.00    +0.028 C 
ATOM      8  C   UNL     1      -1.799  12.596  22.594  0.00  0.00    +0.030 C 
ATOM      9  H   UNL     1      -0.958  13.801  20.053  0.00  0.00    +0.048 HD
ATOM     10  H   UNL     1      -2.609  13.590  19.460  0.00  0.00    +0.048 HD
ATOM     11  H   UNL     1      -2.536  11.168  19.959  0.00  0.00    +0.048 HD
ATOM     12  H   UNL     1      -1.188  11.647  18.905  0.00  0.00    +0.048 HD
ATOM     13  H   UNL     1       0.308  12.618  22.067  0.00  0.00    +0.048 HD
ATOM     14  H   UNL     1      -0.227  11.197  22.992  0.00  0.00    +0.048 HD
ATOM     15  H   UNL     1      -1.625  13.172  23.507  0.00  0.00    +0.048 HD
ATOM     16  H   UNL     1      -2.576  11.853  22.810  0.00  0.00    +0.048 HD
ENDROOT
BRANCH   6  17
ATOM     17  C   UNL     1       0.154  10.087  20.571  0.00  0.00    +0.030 A 
ATOM     18  C   UNL     1       0.318   8.972  21.406  0.00  0.00    -0.037 A 
ATOM     19  C   UNL     1       1.143   7.888  21.060  0.00  0.00    -0.018 A 
ATOM     20  C   UNL     1       1.831   7.890  19.852  0.00  0.00    +0.120 A 
ATOM     21  C   UNL     1       1.681   8.982  19.002  0.00  0.00    -0.018 A 
ATOM     22  C   UNL     1       0.857  10.058  19.357  0.00  0.00    -0.037 A 
ATOM     23  H   UNL     1      -0.179   8.926  22.372  0.00  0.00    +0.064 HD
ATOM     24  H   UNL     1       1.224   7.067  21.763  0.00  0.00    +0.065 HD
ATOM     25  H   UNL     1       2.204   8.999  18.049  0.00  0.00    +0.065 HD
ATOM     26  H   UNL     1       0.759  10.870  18.641  0.00  0.00    +0.064 HD
BRANCH  20  27
ATOM     27  O   UNL     1       2.661   6.908  19.391  0.00  0.00    -0.495 OA
BRANCH  27  28
ATOM     28  C   UNL     1       2.949   6.913  17.998  0.00  0.00    +0.079 C 
ATOM     29  H   UNL     1       3.639   7.722  17.741  0.00  0.00    +0.066 HD
ATOM     30  H   UNL     1       2.030   6.973  17.404  0.00  0.00    +0.066 HD
ATOM     31  H   UNL     1       3.440   5.966  17.756  0.00  0.00    +0.066 HD
ENDBRANCH  27  28
ENDBRANCH  20  27
ENDBRANCH   6  17
BRANCH   1  32
ATOM     32  C   UNL     1      -3.734  14.674  23.194  0.00  0.00    +0.012 C 
ATOM     33  H   UNL     1      -4.819  14.804  23.213  0.00  0.00    +0.032 HD
ATOM     34  H   UNL     1      -3.283  15.574  23.623  0.00  0.00    +0.032 HD
ATOM     35  H   UNL     1      -3.441  13.814  23.799  0.00  0.00    +0.032 HD
ENDBRANCH   1  32
TORSDOF 4
ENDMDL
MODEL 28
REMARK VINA RESULT:    -3.872      2.664      7.155
REMARK INTER + INTRA:          -4.744
REMARK INTER:                  -4.543
REMARK INTRA:                  -0.201
REMARK UNBOUND:                -0.192
REMARK  Name = 
REMARK  4 active torsions:
REMARK  status: ('A' for Active; 'I' for Inactive)
REMARK    1  A    between atoms: C_1  and  C_2
REMARK    2  A    between atoms: N_7  and  C_10
REMARK    3  A    between atoms: C_13  and  O_16
REMARK    4  A    between atoms: O_16  and  C_17
REMARK                            x       y       z     vdW  Elec       q    Type
REMARK                         _______ _______ _______ _____ _____    ______ ____
ROOT
ATOM      1  C   UNL     1       6.964   4.390  13.584  0.00  0.00    +0.213 C 
ATOM      2  O   UNL     1       6.883   3.256  13.112  0.00  0.00    -0.276 OA
ATOM      3  N   UNL     1       6.273   4.777  14.719  0.00  0.00    -0.299 N 
ATOM      4  C   UNL     1       5.354   3.830  15.355  0.00  0.00    +0.030 C 
ATOM      5  C   UNL     1       4.138   4.519  16.001  0.00  0.00    +0.028 C 
ATOM      6  N   UNL     1       4.539   5.582  16.944  0.00  0.00    -0.327 N 
ATOM      7  C   UNL     1       5.904   6.115  16.816  0.00  0.00    +0.028 C 
ATOM      8  C   UNL     1       6.381   6.095  15.350  0.00  0.00    +0.030 C 
ATOM      9  H   UNL     1       5.932   3.299  16.120  0.00  0.00    +0.048 HD
ATOM     10  H   UNL     1       5.011   3.084  14.628  0.00  0.00    +0.048 HD
ATOM     11  H   UNL     1       3.513   4.963  15.218  0.00  0.00    +0.048 HD
ATOM     12  H   UNL     1       3.552   3.742  16.509  0.00  0.00    +0.048 HD
ATOM     13  H   UNL     1       6.583   5.514  17.433  0.00  0.00    +0.048 HD
ATOM     14  H   UNL     1       5.953   7.154  17.161  0.00  0.00    +0.048 HD
ATOM     15  H   UNL     1       7.417   6.444  15.298  0.00  0.00    +0.048 HD
ATOM     16  H   UNL     1       5.767   6.779  14.752  0.00  0.00    +0.048 HD
ENDROOT
BRANCH   6  17
ATOM     17  C   UNL     1       3.725   5.912  18.017  0.00  0.00    +0.030 A 
ATOM     18  C   UNL     1       3.453   5.008  19.056  0.00  0.00    -0.037 A 
ATOM     19  C   UNL     1       2.633   5.342  20.147  0.00  0.00    -0.018 A 
ATOM     20  C   UNL     1       2.059   6.606  20.230  0.00  0.00    +0.120 A 
ATOM     21  C   UNL     1       2.317   7.522  19.216  0.00  0.00    -0.018 A 
ATOM     22  C   UNL     1       3.136   7.180  18.132  0.00  0.00    -0.037 A 
ATOM     23  H   UNL     1       3.857   3.999  19.032  0.00  0.00    +0.064 HD
ATOM     24  H   UNL     1       2.464   4.586  20.905  0.00  0.00    +0.065 HD
ATOM     25  H   UNL     1       1.885   8.518  19.267  0.00  0.00    +0.065 HD
ATOM     26  H   UNL     1       3.322   7.946  17.385  0.00  0.00    +0.064 HD
BRANCH  20  27
ATOM     27  O   UNL     1       1.247   7.062  21.229  0.00  0.00    -0.495 OA
BRANCH  27  28
ATOM     28  C   UNL     1       1.192   8.470  21.419  0.00  0.00    +0.079 C 
ATOM     29  H   UNL     1       0.277   8.891  20.991  0.00  0.00    +0.066 HD
ATOM     30  H   UNL     1       2.083   8.959  21.008  0.00  0.00    +0.066 HD
ATOM     31  H   UNL     1       1.175   8.662  22.496  0.00  0.00    +0.066 HD
ENDBRANCH  27  28
ENDBRANCH  20  27
ENDBRANCH   6  17
BRANCH   1  32
ATOM     32  C   UNL     1       7.845   5.426  12.935  0.00  0.00    +0.012 C 
ATOM     33  H   UNL     1       8.716   4.958  12.471  0.00  0.00    +0.032 HD
ATOM     34  H   UNL     1       8.207   6.122  13.698  0.00  0.00    +0.032 HD
ATOM     35  H   UNL     1       7.273   5.989  12.193  0.00  0.00    +0.032 HD
ENDBRANCH   1  32
TORSDOF 4
ENDMDL
MODEL 29
REMARK VINA RESULT:    -3.742      6.689      8.487
REMARK INTER + INTRA:          -4.591
REMARK INTER:                  -4.392
REMARK INTRA:                  -0.199
REMARK UNBOUND:                -0.192
REMARK  Name = 
REMARK  4 active torsions:
REMARK  status: ('A' for Active; 'I' for Inactive)
REMARK    1  A    between atoms: C_1  and  C_2
REMARK    2  A    between atoms: N_7  and  C_10
REMARK    3  A    between atoms: C_13  and  O_16
REMARK    4  A    between atoms: O_16  and  C_17
REMARK                            x       y       z     vdW  Elec       q    Type
REMARK                         _______ _______ _______ _____ _____    ______ ____
ROOT
ATOM      1  C   UNL     1       3.318   5.068  18.671  0.00  0.00    +0.213 C 
ATOM      2  O   UNL     1       3.516   4.617  17.544  0.00  0.00    -0.276 OA
ATOM      3  N   UNL     1       2.672   6.272  18.892  0.00  0.00    -0.299 N 
ATOM      4  C   UNL     1       2.263   7.085  17.744  0.00  0.00    +0.030 C 
ATOM      5  C   UNL     1       2.329   8.597  18.028  0.00  0.00    +0.028 C 
ATOM      6  N   UNL     1       1.570   8.968  19.238  0.00  0.00    -0.327 N 
ATOM      7  C   UNL     1       1.257   7.893  20.192  0.00  0.00    +0.028 C 
ATOM      8  C   UNL     1       2.363   6.821  20.216  0.00  0.00    +0.030 C 
ATOM      9  H   UNL     1       1.232   6.794  17.507  0.00  0.00    +0.048 HD
ATOM     10  H   UNL     1       2.879   6.847  16.869  0.00  0.00    +0.048 HD
ATOM     11  H   UNL     1       3.375   8.895  18.166  0.00  0.00    +0.048 HD
ATOM     12  H   UNL     1       1.938   9.114  17.143  0.00  0.00    +0.048 HD
ATOM     13  H   UNL     1       0.302   7.431  19.912  0.00  0.00    +0.048 HD
ATOM     14  H   UNL     1       1.163   8.288  21.211  0.00  0.00    +0.048 HD
ATOM     15  H   UNL     1       2.073   6.010  20.891  0.00  0.00    +0.048 HD
ATOM     16  H   UNL     1       3.294   7.258  20.597  0.00  0.00    +0.048 HD
ENDROOT
BRANCH   6  17
ATOM     17  C   UNL     1       1.015  10.234  19.358  0.00  0.00    +0.030 A 
ATOM     18  C   UNL     1       1.530  11.344  18.672  0.00  0.00    -0.037 A 
ATOM     19  C   UNL     1       0.966  12.626  18.789  0.00  0.00    -0.018 A 
ATOM     20  C   UNL     1      -0.144  12.832  19.600  0.00  0.00    +0.120 A 
ATOM     21  C   UNL     1      -0.677  11.746  20.286  0.00  0.00    -0.018 A 
ATOM     22  C   UNL     1      -0.108  10.472  20.165  0.00  0.00    -0.037 A 
ATOM     23  H   UNL     1       2.409  11.246  18.041  0.00  0.00    +0.064 HD
ATOM     24  H   UNL     1       1.427  13.435  18.234  0.00  0.00    +0.065 HD
ATOM     25  H   UNL     1      -1.550  11.884  20.919  0.00  0.00    +0.065 HD
ATOM     26  H   UNL     1      -0.584   9.658  20.704  0.00  0.00    +0.064 HD
BRANCH  20  27
ATOM     27  O   UNL     1      -0.790  14.019  19.803  0.00  0.00    -0.495 OA
BRANCH  27  28
ATOM     28  C   UNL     1      -0.277  15.154  19.117  0.00  0.00    +0.079 C 
ATOM     29  H   UNL     1      -1.085  15.746  18.676  0.00  0.00    +0.066 HD
ATOM     30  H   UNL     1       0.457  14.859  18.358  0.00  0.00    +0.066 HD
ATOM     31  H   UNL     1       0.236  15.783  19.849  0.00  0.00    +0.066 HD
ENDBRANCH  27  28
ENDBRANCH  20  27
ENDBRANCH   6  17
BRANCH   1  32
ATOM     32  C   UNL     1       3.775   4.305  19.889  0.00  0.00    +0.012 C 
ATOM     33  H   UNL     1       4.340   3.416  19.599  0.00  0.00    +0.032 HD
ATOM     34  H   UNL     1       2.900   3.974  20.457  0.00  0.00    +0.032 HD
ATOM     35  H   UNL     1       4.380   4.953  20.528  0.00  0.00    +0.032 HD
ENDBRANCH   1  32
TORSDOF 4
ENDMDL
MODEL 30
REMARK VINA RESULT:    -3.738      9.650     10.526
REMARK INTER + INTRA:          -4.586
REMARK INTER:                  -4.409
REMARK INTRA:                  -0.177
REMARK UNBOUND:                -0.192
REMARK  Name = 
REMARK  4 active torsions:
REMARK  status: ('A' for Active; 'I' for Inactive)
REMARK    1  A    between atoms: C_1  and  C_2
REMARK    2  A    between atoms: N_7  and  C_10
REMARK    3  A    between atoms: C_13  and  O_16
REMARK    4  A    between atoms: O_16  and  C_17
REMARK                            x       y       z     vdW  Elec       q    Type
REMARK                         _______ _______ _______ _____ _____    ______ ____
ROOT
ATOM      1  C   UNL     1      -3.208  10.909  18.164  0.00  0.00    +0.213 C 
ATOM      2  O   UNL     1      -4.251  11.477  18.485  0.00  0.00    -0.276 OA
ATOM      3  N   UNL     1      -1.957  11.411  18.476  0.00  0.00    -0.299 N 
ATOM      4  C   UNL     1      -1.854  12.703  19.158  0.00  0.00    +0.030 C 
ATOM      5  C   UNL     1      -0.600  13.498  18.750  0.00  0.00    +0.028 C 
ATOM      6  N   UNL     1       0.636  12.709  18.921  0.00  0.00    -0.327 N 
ATOM      7  C   UNL     1       0.495  11.248  19.012  0.00  0.00    +0.028 C 
ATOM      8  C   UNL     1      -0.690  10.742  18.166  0.00  0.00    +0.030 C 
ATOM      9  H   UNL     1      -1.827  12.488  20.233  0.00  0.00    +0.048 HD
ATOM     10  H   UNL     1      -2.750  13.307  18.969  0.00  0.00    +0.048 HD
ATOM     11  H   UNL     1      -0.684  13.793  17.698  0.00  0.00    +0.048 HD
ATOM     12  H   UNL     1      -0.575  14.408  19.361  0.00  0.00    +0.048 HD
ATOM     13  H   UNL     1       0.344  10.967  20.062  0.00  0.00    +0.048 HD
ATOM     14  H   UNL     1       1.396  10.743  18.647  0.00  0.00    +0.048 HD
ATOM     15  H   UNL     1      -0.802   9.662  18.300  0.00  0.00    +0.048 HD
ATOM     16  H   UNL     1      -0.491  10.929  17.103  0.00  0.00    +0.048 HD
ENDROOT
BRANCH   6  17
ATOM     17  C   UNL     1       1.843  13.343  19.180  0.00  0.00    +0.030 A 
ATOM     18  C   UNL     1       2.668  13.827  18.154  0.00  0.00    -0.037 A 
ATOM     19  C   UNL     1       3.888  14.474  18.415  0.00  0.00    -0.018 A 
ATOM     20  C   UNL     1       4.317  14.658  19.724  0.00  0.00    +0.120 A 
ATOM     21  C   UNL     1       3.514  14.192  20.760  0.00  0.00    -0.018 A 
ATOM     22  C   UNL     1       2.300  13.547  20.490  0.00  0.00    -0.037 A 
ATOM     23  H   UNL     1       2.393  13.692  17.111  0.00  0.00    +0.064 HD
ATOM     24  H   UNL     1       4.474  14.812  17.567  0.00  0.00    +0.065 HD
ATOM     25  H   UNL     1       3.828  14.333  21.791  0.00  0.00    +0.065 HD
ATOM     26  H   UNL     1       1.704  13.229  21.341  0.00  0.00    +0.064 HD
BRANCH  20  27
ATOM     27  O   UNL     1       5.475  15.267  20.119  0.00  0.00    -0.495 OA
BRANCH  27  28
ATOM     28  C   UNL     1       6.612  15.085  19.285  0.00  0.00    +0.079 C 
ATOM     29  H   UNL     1       7.536  15.331  19.818  0.00  0.00    +0.066 HD
ATOM     30  H   UNL     1       6.522  15.666  18.361  0.00  0.00    +0.066 HD
ATOM     31  H   UNL     1       6.658  14.027  19.010  0.00  0.00    +0.066 HD
ENDBRANCH  27  28
ENDBRANCH  20  27
ENDBRANCH   6  17
BRANCH   1  32
ATOM     32  C   UNL     1      -3.251   9.608  17.404  0.00  0.00    +0.012 C 
ATOM     33  H   UNL     1      -4.256   9.416  17.020  0.00  0.00    +0.032 HD
ATOM     34  H   UNL     1      -2.989   8.787  18.079  0.00  0.00    +0.032 HD
ATOM     35  H   UNL     1      -2.527   9.630  16.586  0.00  0.00    +0.032 HD
ENDBRANCH   1  32
TORSDOF 4
ENDMDL
MODEL 31
REMARK VINA RESULT:    -3.495     11.169     13.915
REMARK INTER + INTRA:          -4.301
REMARK INTER:                  -4.108
REMARK INTRA:                  -0.192
REMARK UNBOUND:                -0.192
REMARK  Name = 
REMARK  4 active torsions:
REMARK  status: ('A' for Active; 'I' for Inactive)
REMARK    1  A    between atoms: C_1  and  C_2
REMARK    2  A    between atoms: N_7  and  C_10
REMARK    3  A    between atoms: C_13  and  O_16
REMARK    4  A    between atoms: O_16  and  C_17
REMARK                            x       y       z     vdW  Elec       q    Type
REMARK                         _______ _______ _______ _____ _____    ______ ____
ROOT
ATOM      1  C   UNL     1      -3.765  11.048  16.567  0.00  0.00    +0.213 C 
ATOM      2  O   UNL     1      -4.859  10.645  16.173  0.00  0.00    -0.276 OA
ATOM      3  N   UNL     1      -3.553  11.490  17.861  0.00  0.00    -0.299 N 
ATOM      4  C   UNL     1      -4.684  11.550  18.791  0.00  0.00    +0.030 C 
ATOM      5  C   UNL     1      -4.570  12.710  19.798  0.00  0.00    +0.028 C 
ATOM      6  N   UNL     1      -3.286  12.687  20.526  0.00  0.00    -0.327 N 
ATOM      7  C   UNL     1      -2.188  11.909  19.931  0.00  0.00    +0.028 C 
ATOM      8  C   UNL     1      -2.257  11.924  18.391  0.00  0.00    +0.030 C 
ATOM      9  H   UNL     1      -4.701  10.593  19.324  0.00  0.00    +0.048 HD
ATOM     10  H   UNL     1      -5.628  11.634  18.239  0.00  0.00    +0.048 HD
ATOM     11  H   UNL     1      -4.653  13.664  19.264  0.00  0.00    +0.048 HD
ATOM     12  H   UNL     1      -5.417  12.628  20.490  0.00  0.00    +0.048 HD
ATOM     13  H   UNL     1      -2.244  10.875  20.293  0.00  0.00    +0.048 HD
ATOM     14  H   UNL     1      -1.214  12.322  20.218  0.00  0.00    +0.048 HD
ATOM     15  H   UNL     1      -1.463  11.292  17.983  0.00  0.00    +0.048 HD
ATOM     16  H   UNL     1      -2.095  12.944  18.023  0.00  0.00    +0.048 HD
ENDROOT
BRANCH   6  17
ATOM     17  C   UNL     1      -3.195  13.215  21.805  0.00  0.00    +0.030 A 
ATOM     18  C   UNL     1      -3.805  12.604  22.912  0.00  0.00    -0.037 A 
ATOM     19  C   UNL     1      -3.710  13.135  24.209  0.00  0.00    -0.018 A 
ATOM     20  C   UNL     1      -2.991  14.303  24.437  0.00  0.00    +0.120 A 
ATOM     21  C   UNL     1      -2.372  14.925  23.358  0.00  0.00    -0.018 A 
ATOM     22  C   UNL     1      -2.473  14.389  22.067  0.00  0.00    -0.037 A 
ATOM     23  H   UNL     1      -4.398  11.702  22.789  0.00  0.00    +0.064 HD
ATOM     24  H   UNL     1      -4.217  12.609  25.011  0.00  0.00    +0.065 HD
ATOM     25  H   UNL     1      -1.798  15.834  23.517  0.00  0.00    +0.065 HD
ATOM     26  H   UNL     1      -1.946  14.904  21.270  0.00  0.00    +0.064 HD
BRANCH  20  27
ATOM     27  O   UNL     1      -2.817  14.925  25.641  0.00  0.00    -0.495 OA
BRANCH  27  28
ATOM     28  C   UNL     1      -1.484  15.265  26.001  0.00  0.00    +0.079 C 
ATOM     29  H   UNL     1      -1.455  15.774  26.969  0.00  0.00    +0.066 HD
ATOM     30  H   UNL     1      -1.006  15.869  25.221  0.00  0.00    +0.066 HD
ATOM     31  H   UNL     1      -0.917  14.335  26.097  0.00  0.00    +0.066 HD
ENDBRANCH  27  28
ENDBRANCH  20  27
ENDBRANCH   6  17
BRANCH   1  32
ATOM     32  C   UNL     1      -2.579  11.069  15.636  0.00  0.00    +0.012 C 
ATOM     33  H   UNL     1      -2.627  10.236  14.930  0.00  0.00    +0.032 HD
ATOM     34  H   UNL     1      -1.660  10.961  16.220  0.00  0.00    +0.032 HD
ATOM     35  H   UNL     1      -2.542  12.022  15.102  0.00  0.00    +0.032 HD
ENDBRANCH   1  32
TORSDOF 4
ENDMDL
