MODEL 1
REMARK VINA RESULT:    -7.621      0.000      0.000
REMARK INTER + INTRA:         -11.687
REMARK INTER:                 -11.016
REMARK INTRA:                  -0.671
REMARK UNBOUND:                -0.503
REMARK  Name = 
REMARK  10 active torsions:
REMARK  status: ('A' for Active; 'I' for Inactive)
REMARK    1  A    between atoms: C_1  and  C_2
REMARK    2  A    between atoms: C_4  and  C_5
REMARK    3  A    between atoms: N_7  and  C_8
REMARK    4  A    between atoms: C_15  and  N_16
REMARK    5  A    between atoms: N_16  and  C_17
REMARK    6  A    between atoms: C_17  and  C_18
REMARK    7  A    between atoms: C_22  and  C_24
REMARK    8  A    between atoms: C_24  and  C_25
REMARK    9  A    between atoms: C_24  and  C_26
REMARK   10  A    between atoms: C_24  and  C_27
REMARK                            x       y       z     vdW  Elec       q    Type
REMARK                         _______ _______ _______ _____ _____    ______ ____
ROOT
ATOM      1  N   UNL     1       2.351   7.004  20.026  0.00  0.00    -0.343 N 
ATOM      2  H   UNL     1       3.321   7.161  20.284  0.00  0.00    +0.146 HD
ENDROOT
BRANCH   1   8
ATOM      3  C   UNL     1       1.290   9.051  19.253  0.00  0.00    -0.029 A 
ATOM      4  C   UNL     1       0.467  10.170  19.491  0.00  0.00    -0.045 A 
ATOM      5  C   UNL     1      -0.108  10.381  20.747  0.00  0.00    +0.037 A 
ATOM      6  C   UNL     1       0.116   9.451  21.761  0.00  0.00    -0.048 A 
ATOM      7  C   UNL     1       0.939   8.342  21.532  0.00  0.00    -0.040 A 
ATOM      8  C   UNL     1       1.572   8.138  20.297  0.00  0.00    +0.030 A 
ATOM      9  H   UNL     1       0.248  10.850  18.672  0.00  0.00    +0.063 HD
ATOM     10  H   UNL     1      -0.351   9.581  22.735  0.00  0.00    +0.063 HD
ATOM     11  H   UNL     1       1.069   7.644  22.354  0.00  0.00    +0.064 HD
BRANCH   3  12
ATOM     12  C   UNL     1       1.858   8.865  17.869  0.00  0.00    -0.038 C 
ATOM     13  H   UNL     1       2.307   9.797  17.508  0.00  0.00    +0.028 HD
ATOM     14  H   UNL     1       1.070   8.546  17.181  0.00  0.00    +0.028 HD
ATOM     15  H   UNL     1       2.645   8.104  17.855  0.00  0.00    +0.028 HD
ENDBRANCH   3  12
BRANCH   5  16
ATOM     16  C   UNL     1      -0.987  11.549  21.030  0.00  0.00    +0.244 C 
ATOM     17  O   UNL     1      -1.473  12.194  20.108  0.00  0.00    -0.270 OA
ATOM     18  N   UNL     1      -1.237  11.816  22.363  0.00  0.00    -0.308 N 
ATOM     19  H   UNL     1      -1.033  11.091  23.036  0.00  0.00    +0.149 HD
BRANCH  18  20
ATOM     20  C   UNL     1      -2.183  12.842  22.747  0.00  0.00    +0.023 C 
ATOM     21  C   UNL     1      -1.541  13.943  23.580  0.00  0.00    -0.034 C 
ATOM     22  C   UNL     1      -2.730  14.638  24.232  0.00  0.00    -0.051 C 
ATOM     23  C   UNL     1      -3.805  13.562  24.388  0.00  0.00    -0.051 C 
ATOM     24  C   UNL     1      -3.279  12.321  23.672  0.00  0.00    -0.034 C 
ATOM     25  H   UNL     1      -2.634  13.269  21.842  0.00  0.00    +0.050 HD
ATOM     26  H   UNL     1      -0.941  14.630  22.974  0.00  0.00    +0.028 HD
ATOM     27  H   UNL     1      -0.884  13.523  24.352  0.00  0.00    +0.028 HD
ATOM     28  H   UNL     1      -3.101  15.439  23.582  0.00  0.00    +0.027 HD
ATOM     29  H   UNL     1      -2.459  15.091  25.191  0.00  0.00    +0.027 HD
ATOM     30  H   UNL     1      -4.006  13.345  25.442  0.00  0.00    +0.027 HD
ATOM     31  H   UNL     1      -4.745  13.902  23.939  0.00  0.00    +0.027 HD
ATOM     32  H   UNL     1      -2.867  11.617  24.407  0.00  0.00    +0.028 HD
ATOM     33  H   UNL     1      -4.070  11.794  23.127  0.00  0.00    +0.028 HD
ENDBRANCH  18  20
ENDBRANCH   5  16
ENDBRANCH   1   8
BRANCH   1  34
ATOM     34  C   UNL     1       1.870   5.667  20.364  0.00  0.00    +0.012 C 
ATOM     35  H   UNL     1       2.070   5.443  21.418  0.00  0.00    +0.046 HD
ATOM     36  H   UNL     1       0.787   5.620  20.199  0.00  0.00    +0.046 HD
BRANCH  34  37
ATOM     37  C   UNL     1       2.537   4.616  19.458  0.00  0.00    -0.023 C 
ATOM     38  C   UNL     1       2.522   5.031  17.973  0.00  0.00    -0.033 C 
ATOM     39  C   UNL     1       3.294   4.032  17.111  0.00  0.00    +0.015 C 
ATOM     40  N   UNL     1       4.656   3.882  17.614  0.00  0.00    -0.301 N 
ATOM     41  C   UNL     1       5.830   4.387  17.068  0.00  0.00    +0.221 C 
ATOM     42  O   UNL     1       6.865   4.385  17.748  0.00  0.00    -0.275 OA
ATOM     43  C   UNL     1       4.698   3.383  18.989  0.00  0.00    +0.015 C 
ATOM     44  C   UNL     1       3.984   4.361  19.922  0.00  0.00    -0.033 C 
ATOM     45  H   UNL     1       1.982   3.671  19.551  0.00  0.00    +0.032 HD
ATOM     46  H   UNL     1       1.494   5.097  17.600  0.00  0.00    +0.028 HD
ATOM     47  H   UNL     1       2.969   6.028  17.867  0.00  0.00    +0.028 HD
ATOM     48  H   UNL     1       3.259   4.343  16.074  0.00  0.00    +0.046 HD
ATOM     49  H   UNL     1       2.815   3.046  17.156  0.00  0.00    +0.046 HD
ATOM     50  H   UNL     1       4.198   2.407  19.005  0.00  0.00    +0.046 HD
ATOM     51  H   UNL     1       5.723   3.220  19.336  0.00  0.00    +0.046 HD
ATOM     52  H   UNL     1       3.987   3.958  20.941  0.00  0.00    +0.028 HD
ATOM     53  H   UNL     1       4.537   5.310  19.946  0.00  0.00    +0.028 HD
BRANCH  41  54
ATOM     54  C   UNL     1       5.890   4.945  15.618  0.00  0.00    +0.039 C 
BRANCH  54  55
ATOM     55  C   UNL     1       5.312   3.948  14.604  0.00  0.00    -0.052 C 
ATOM     56  H   UNL     1       5.738   2.946  14.684  0.00  0.00    +0.024 HD
ATOM     57  H   UNL     1       4.229   3.840  14.731  0.00  0.00    +0.024 HD
ATOM     58  H   UNL     1       5.497   4.287  13.579  0.00  0.00    +0.024 HD
ENDBRANCH  54  55
BRANCH  54  59
ATOM     59  C   UNL     1       5.246   6.335  15.508  0.00  0.00    -0.052 C 
ATOM     60  H   UNL     1       5.247   6.738  14.494  0.00  0.00    +0.024 HD
ATOM     61  H   UNL     1       5.780   7.068  16.124  0.00  0.00    +0.024 HD
ATOM     62  H   UNL     1       4.205   6.311  15.848  0.00  0.00    +0.024 HD
ENDBRANCH  54  59
BRANCH  54  63
ATOM     63  C   UNL     1       7.386   5.129  15.244  0.00  0.00    -0.052 C 
ATOM     64  H   UNL     1       8.003   5.297  16.134  0.00  0.00    +0.024 HD
ATOM     65  H   UNL     1       7.783   4.244  14.733  0.00  0.00    +0.024 HD
ATOM     66  H   UNL     1       7.528   5.987  14.577  0.00  0.00    +0.024 HD
ENDBRANCH  54  63
ENDBRANCH  41  54
ENDBRANCH  34  37
ENDBRANCH   1  34
TORSDOF 10
ENDMDL
MODEL 2
REMARK VINA RESULT:    -7.393      1.220      1.367
REMARK INTER + INTRA:         -11.353
REMARK INTER:                 -10.635
REMARK INTRA:                  -0.718
REMARK UNBOUND:                -0.503
REMARK  Name = 
REMARK  10 active torsions:
REMARK  status: ('A' for Active; 'I' for Inactive)
REMARK    1  A    between atoms: C_1  and  C_2
REMARK    2  A    between atoms: C_4  and  C_5
REMARK    3  A    between atoms: N_7  and  C_8
REMARK    4  A    between atoms: C_15  and  N_16
REMARK    5  A    between atoms: N_16  and  C_17
REMARK    6  A    between atoms: C_17  and  C_18
REMARK    7  A    between atoms: C_22  and  C_24
REMARK    8  A    between atoms: C_24  and  C_25
REMARK    9  A    between atoms: C_24  and  C_26
REMARK   10  A    between atoms: C_24  and  C_27
REMARK                            x       y       z     vdW  Elec       q    Type
REMARK                         _______ _______ _______ _____ _____    ______ ____
ROOT
ATOM      1  N   UNL     1       2.352   6.962  20.247  0.00  0.00    -0.343 N 
ATOM      2  H   UNL     1       3.158   7.072  20.855  0.00  0.00    +0.146 HD
ENDROOT
BRANCH   1   8
ATOM      3  C   UNL     1       1.603   8.909  18.998  0.00  0.00    -0.029 A 
ATOM      4  C   UNL     1       0.817  10.075  18.902  0.00  0.00    -0.045 A 
ATOM      5  C   UNL     1       0.004  10.479  19.963  0.00  0.00    +0.037 A 
ATOM      6  C   UNL     1      -0.047   9.696  21.115  0.00  0.00    -0.048 A 
ATOM      7  C   UNL     1       0.737   8.542  21.219  0.00  0.00    -0.040 A 
ATOM      8  C   UNL     1       1.603   8.145  20.190  0.00  0.00    +0.030 A 
ATOM      9  H   UNL     1       0.817  10.638  17.972  0.00  0.00    +0.063 HD
ATOM     10  H   UNL     1      -0.701   9.977  21.938  0.00  0.00    +0.063 HD
ATOM     11  H   UNL     1       0.649   7.964  22.135  0.00  0.00    +0.064 HD
BRANCH   3  12
ATOM     12  C   UNL     1       2.438   8.511  17.808  0.00  0.00    -0.038 C 
ATOM     13  H   UNL     1       3.430   8.176  18.127  0.00  0.00    +0.028 HD
ATOM     14  H   UNL     1       2.540   9.358  17.122  0.00  0.00    +0.028 HD
ATOM     15  H   UNL     1       1.983   7.684  17.254  0.00  0.00    +0.028 HD
ENDBRANCH   3  12
BRANCH   5  16
ATOM     16  C   UNL     1      -0.844  11.701  19.892  0.00  0.00    +0.244 C 
ATOM     17  O   UNL     1      -0.761  12.455  18.928  0.00  0.00    -0.270 OA
ATOM     18  N   UNL     1      -1.726  11.895  20.937  0.00  0.00    -0.308 N 
ATOM     19  H   UNL     1      -1.927  11.107  21.537  0.00  0.00    +0.149 HD
BRANCH  18  20
ATOM     20  C   UNL     1      -2.689  12.975  20.904  0.00  0.00    +0.023 C 
ATOM     21  C   UNL     1      -3.238  13.308  22.284  0.00  0.00    -0.034 C 
ATOM     22  C   UNL     1      -4.500  14.107  21.983  0.00  0.00    -0.051 C 
ATOM     23  C   UNL     1      -5.013  13.583  20.641  0.00  0.00    -0.051 C 
ATOM     24  C   UNL     1      -3.949  12.621  20.119  0.00  0.00    -0.034 C 
ATOM     25  H   UNL     1      -2.215  13.861  20.463  0.00  0.00    +0.050 HD
ATOM     26  H   UNL     1      -2.525  13.874  22.892  0.00  0.00    +0.028 HD
ATOM     27  H   UNL     1      -3.495  12.397  22.838  0.00  0.00    +0.028 HD
ATOM     28  H   UNL     1      -4.259  15.173  21.895  0.00  0.00    +0.027 HD
ATOM     29  H   UNL     1      -5.246  14.002  22.778  0.00  0.00    +0.027 HD
ATOM     30  H   UNL     1      -5.976  13.075  20.751  0.00  0.00    +0.027 HD
ATOM     31  H   UNL     1      -5.161  14.416  19.945  0.00  0.00    +0.027 HD
ATOM     32  H   UNL     1      -4.256  11.587  20.321  0.00  0.00    +0.028 HD
ATOM     33  H   UNL     1      -3.808  12.712  19.037  0.00  0.00    +0.028 HD
ENDBRANCH  18  20
ENDBRANCH   5  16
ENDBRANCH   1   8
BRANCH   1  34
ATOM     34  C   UNL     1       1.694   5.665  20.385  0.00  0.00    +0.012 C 
ATOM     35  H   UNL     1       1.689   5.348  21.434  0.00  0.00    +0.046 HD
ATOM     36  H   UNL     1       0.656   5.748  20.043  0.00  0.00    +0.046 HD
BRANCH  34  37
ATOM     37  C   UNL     1       2.401   4.613  19.512  0.00  0.00    -0.023 C 
ATOM     38  C   UNL     1       2.428   5.013  18.022  0.00  0.00    -0.033 C 
ATOM     39  C   UNL     1       3.239   4.014  17.196  0.00  0.00    +0.015 C 
ATOM     40  N   UNL     1       4.586   3.886  17.742  0.00  0.00    -0.301 N 
ATOM     41  C   UNL     1       5.771   4.399  17.228  0.00  0.00    +0.221 C 
ATOM     42  O   UNL     1       6.784   4.417  17.940  0.00  0.00    -0.275 OA
ATOM     43  C   UNL     1       4.591   3.402  19.124  0.00  0.00    +0.015 C 
ATOM     44  C   UNL     1       3.837   4.380  20.023  0.00  0.00    -0.033 C 
ATOM     45  H   UNL     1       1.856   3.662  19.597  0.00  0.00    +0.032 HD
ATOM     46  H   UNL     1       1.412   5.062  17.617  0.00  0.00    +0.028 HD
ATOM     47  H   UNL     1       2.867   6.013  17.919  0.00  0.00    +0.028 HD
ATOM     48  H   UNL     1       3.233   4.314  16.155  0.00  0.00    +0.046 HD
ATOM     49  H   UNL     1       2.771   3.023  17.236  0.00  0.00    +0.046 HD
ATOM     50  H   UNL     1       4.102   2.419  19.134  0.00  0.00    +0.046 HD
ATOM     51  H   UNL     1       5.607   3.254  19.504  0.00  0.00    +0.046 HD
ATOM     52  H   UNL     1       3.813   3.988  21.046  0.00  0.00    +0.028 HD
ATOM     53  H   UNL     1       4.377   5.336  20.054  0.00  0.00    +0.028 HD
BRANCH  41  54
ATOM     54  C   UNL     1       5.870   4.943  15.775  0.00  0.00    +0.039 C 
BRANCH  54  55
ATOM     55  C   UNL     1       5.357   3.919  14.751  0.00  0.00    -0.052 C 
ATOM     56  H   UNL     1       5.018   4.369  13.817  0.00  0.00    +0.024 HD
ATOM     57  H   UNL     1       6.142   3.200  14.489  0.00  0.00    +0.024 HD
ATOM     58  H   UNL     1       4.510   3.357  15.157  0.00  0.00    +0.024 HD
ENDBRANCH  54  55
BRANCH  54  59
ATOM     59  C   UNL     1       5.192   6.313  15.624  0.00  0.00    -0.052 C 
ATOM     60  H   UNL     1       4.317   6.299  14.974  0.00  0.00    +0.024 HD
ATOM     61  H   UNL     1       5.880   7.047  15.187  0.00  0.00    +0.024 HD
ATOM     62  H   UNL     1       4.869   6.699  16.598  0.00  0.00    +0.024 HD
ENDBRANCH  54  59
BRANCH  54  63
ATOM     63  C   UNL     1       7.373   5.164  15.454  0.00  0.00    -0.052 C 
ATOM     64  H   UNL     1       8.001   4.405  15.936  0.00  0.00    +0.024 HD
ATOM     65  H   UNL     1       7.565   5.110  14.376  0.00  0.00    +0.024 HD
ATOM     66  H   UNL     1       7.716   6.145  15.801  0.00  0.00    +0.024 HD
ENDBRANCH  54  63
ENDBRANCH  41  54
ENDBRANCH  34  37
ENDBRANCH   1  34
TORSDOF 10
ENDMDL
MODEL 3
REMARK VINA RESULT:    -6.915      2.006     11.149
REMARK INTER + INTRA:         -10.651
REMARK INTER:                 -10.115
REMARK INTRA:                  -0.536
REMARK UNBOUND:                -0.503
REMARK  Name = 
REMARK  10 active torsions:
REMARK  status: ('A' for Active; 'I' for Inactive)
REMARK    1  A    between atoms: C_1  and  C_2
REMARK    2  A    between atoms: C_4  and  C_5
REMARK    3  A    between atoms: N_7  and  C_8
REMARK    4  A    between atoms: C_15  and  N_16
REMARK    5  A    between atoms: N_16  and  C_17
REMARK    6  A    between atoms: C_17  and  C_18
REMARK    7  A    between atoms: C_22  and  C_24
REMARK    8  A    between atoms: C_24  and  C_25
REMARK    9  A    between atoms: C_24  and  C_26
REMARK   10  A    between atoms: C_24  and  C_27
REMARK                            x       y       z     vdW  Elec       q    Type
REMARK                         _______ _______ _______ _____ _____    ______ ____
ROOT
ATOM      1  N   UNL     1       0.097  10.844  19.853  0.00  0.00    -0.343 N 
ATOM      2  H   UNL     1       0.672  11.612  20.183  0.00  0.00    +0.146 HD
ENDROOT
BRANCH   1   8
ATOM      3  C   UNL     1       1.188   8.742  20.407  0.00  0.00    -0.029 A 
ATOM      4  C   UNL     1       1.941   7.614  20.024  0.00  0.00    -0.045 A 
ATOM      5  C   UNL     1       2.378   7.460  18.705  0.00  0.00    +0.037 A 
ATOM      6  C   UNL     1       2.033   8.424  17.759  0.00  0.00    -0.048 A 
ATOM      7  C   UNL     1       1.293   9.549  18.136  0.00  0.00    -0.040 A 
ATOM      8  C   UNL     1       0.890   9.755  19.464  0.00  0.00    +0.030 A 
ATOM      9  H   UNL     1       2.144   6.838  20.758  0.00  0.00    +0.063 HD
ATOM     10  H   UNL     1       2.336   8.303  16.721  0.00  0.00    +0.063 HD
ATOM     11  H   UNL     1       1.043  10.262  17.356  0.00  0.00    +0.064 HD
BRANCH   3  12
ATOM     12  C   UNL     1       0.723   8.836  21.838  0.00  0.00    -0.038 C 
ATOM     13  H   UNL     1       1.408   9.455  22.426  0.00  0.00    +0.028 HD
ATOM     14  H   UNL     1       0.661   7.836  22.278  0.00  0.00    +0.028 HD
ATOM     15  H   UNL     1      -0.267   9.297  21.910  0.00  0.00    +0.028 HD
ENDBRANCH   3  12
BRANCH   5  16
ATOM     16  C   UNL     1       3.168   6.277  18.265  0.00  0.00    +0.244 C 
ATOM     17  O   UNL     1       2.756   5.143  18.484  0.00  0.00    -0.270 OA
ATOM     18  N   UNL     1       4.340   6.545  17.584  0.00  0.00    -0.308 N 
ATOM     19  H   UNL     1       4.466   7.475  17.210  0.00  0.00    +0.149 HD
BRANCH  18  20
ATOM     20  C   UNL     1       5.116   5.475  16.995  0.00  0.00    +0.023 C 
ATOM     21  C   UNL     1       6.496   5.340  17.626  0.00  0.00    -0.034 C 
ATOM     22  C   UNL     1       7.273   4.512  16.611  0.00  0.00    -0.051 C 
ATOM     23  C   UNL     1       6.663   4.843  15.249  0.00  0.00    -0.051 C 
ATOM     24  C   UNL     1       5.443   5.718  15.525  0.00  0.00    -0.034 C 
ATOM     25  H   UNL     1       4.562   4.533  17.100  0.00  0.00    +0.050 HD
ATOM     26  H   UNL     1       6.461   4.864  18.610  0.00  0.00    +0.028 HD
ATOM     27  H   UNL     1       6.970   6.321  17.750  0.00  0.00    +0.028 HD
ATOM     28  H   UNL     1       7.147   3.443  16.821  0.00  0.00    +0.027 HD
ATOM     29  H   UNL     1       8.345   4.730  16.645  0.00  0.00    +0.027 HD
ATOM     30  H   UNL     1       7.377   5.365  14.605  0.00  0.00    +0.027 HD
ATOM     31  H   UNL     1       6.372   3.921  14.733  0.00  0.00    +0.027 HD
ATOM     32  H   UNL     1       5.698   6.772  15.352  0.00  0.00    +0.028 HD
ATOM     33  H   UNL     1       4.604   5.475  14.865  0.00  0.00    +0.028 HD
ENDBRANCH  18  20
ENDBRANCH   5  16
ENDBRANCH   1   8
BRANCH   1  34
ATOM     34  C   UNL     1      -1.034  11.275  19.036  0.00  0.00    +0.012 C 
ATOM     35  H   UNL     1      -0.748  11.320  17.979  0.00  0.00    +0.046 HD
ATOM     36  H   UNL     1      -1.854  10.555  19.143  0.00  0.00    +0.046 HD
BRANCH  34  37
ATOM     37  C   UNL     1      -1.541  12.650  19.510  0.00  0.00    -0.023 C 
ATOM     38  C   UNL     1      -2.854  12.543  20.312  0.00  0.00    -0.033 C 
ATOM     39  C   UNL     1      -3.272  13.902  20.874  0.00  0.00    +0.015 C 
ATOM     40  N   UNL     1      -2.194  14.465  21.680  0.00  0.00    -0.301 N 
ATOM     41  C   UNL     1      -2.120  14.559  23.065  0.00  0.00    +0.221 C 
ATOM     42  O   UNL     1      -1.036  14.830  23.597  0.00  0.00    -0.275 OA
ATOM     43  C   UNL     1      -0.966  14.679  20.912  0.00  0.00    +0.015 C 
ATOM     44  C   UNL     1      -0.459  13.348  20.357  0.00  0.00    -0.033 C 
ATOM     45  H   UNL     1      -1.733  13.276  18.627  0.00  0.00    +0.032 HD
ATOM     46  H   UNL     1      -3.663  12.159  19.680  0.00  0.00    +0.028 HD
ATOM     47  H   UNL     1      -2.722  11.832  21.138  0.00  0.00    +0.028 HD
ATOM     48  H   UNL     1      -4.200  13.799  21.423  0.00  0.00    +0.046 HD
ATOM     49  H   UNL     1      -3.472  14.603  20.054  0.00  0.00    +0.046 HD
ATOM     50  H   UNL     1      -1.202  15.369  20.091  0.00  0.00    +0.046 HD
ATOM     51  H   UNL     1      -0.184  15.155  21.511  0.00  0.00    +0.046 HD
ATOM     52  H   UNL     1       0.437  13.525  19.751  0.00  0.00    +0.028 HD
ATOM     53  H   UNL     1      -0.164  12.696  21.190  0.00  0.00    +0.028 HD
BRANCH  41  54
ATOM     54  C   UNL     1      -3.364  14.345  23.971  0.00  0.00    +0.039 C 
BRANCH  54  55
ATOM     55  C   UNL     1      -4.541  15.230  23.536  0.00  0.00    -0.052 C 
ATOM     56  H   UNL     1      -4.445  16.270  23.853  0.00  0.00    +0.024 HD
ATOM     57  H   UNL     1      -4.641  15.242  22.445  0.00  0.00    +0.024 HD
ATOM     58  H   UNL     1      -5.482  14.858  23.955  0.00  0.00    +0.024 HD
ENDBRANCH  54  55
BRANCH  54  59
ATOM     59  C   UNL     1      -3.753  12.863  24.078  0.00  0.00    -0.052 C 
ATOM     60  H   UNL     1      -3.940  12.390  23.113  0.00  0.00    +0.024 HD
ATOM     61  H   UNL     1      -4.675  12.737  24.658  0.00  0.00    +0.024 HD
ATOM     62  H   UNL     1      -2.965  12.287  24.576  0.00  0.00    +0.024 HD
ENDBRANCH  54  59
BRANCH  54  63
ATOM     63  C   UNL     1      -2.986  14.799  25.408  0.00  0.00    -0.052 C 
ATOM     64  H   UNL     1      -3.879  15.010  26.008  0.00  0.00    +0.024 HD
ATOM     65  H   UNL     1      -2.413  14.027  25.935  0.00  0.00    +0.024 HD
ATOM     66  H   UNL     1      -2.377  15.709  25.392  0.00  0.00    +0.024 HD
ENDBRANCH  54  63
ENDBRANCH  41  54
ENDBRANCH  34  37
ENDBRANCH   1  34
TORSDOF 10
ENDMDL
MODEL 4
REMARK VINA RESULT:    -6.871      2.313      2.914
REMARK INTER + INTRA:         -10.586
REMARK INTER:                 -10.192
REMARK INTRA:                  -0.395
REMARK UNBOUND:                -0.503
REMARK  Name = 
REMARK  10 active torsions:
REMARK  status: ('A' for Active; 'I' for Inactive)
REMARK    1  A    between atoms: C_1  and  C_2
REMARK    2  A    between atoms: C_4  and  C_5
REMARK    3  A    between atoms: N_7  and  C_8
REMARK    4  A    between atoms: C_15  and  N_16
REMARK    5  A    between atoms: N_16  and  C_17
REMARK    6  A    between atoms: C_17  and  C_18
REMARK    7  A    between atoms: C_22  and  C_24
REMARK    8  A    between atoms: C_24  and  C_25
REMARK    9  A    between atoms: C_24  and  C_26
REMARK   10  A    between atoms: C_24  and  C_27
REMARK                            x       y       z     vdW  Elec       q    Type
REMARK                         _______ _______ _______ _____ _____    ______ ____
ROOT
ATOM      1  N   UNL     1       2.820   6.711  20.176  0.00  0.00    -0.343 N 
ATOM      2  H   UNL     1       3.544   6.961  20.842  0.00  0.00    +0.146 HD
ENDROOT
BRANCH   1   8
ATOM      3  C   UNL     1       1.984   8.435  18.679  0.00  0.00    -0.029 A 
ATOM      4  C   UNL     1       1.094   9.493  18.403  0.00  0.00    -0.045 A 
ATOM      5  C   UNL     1       0.157   9.905  19.355  0.00  0.00    +0.037 A 
ATOM      6  C   UNL     1       0.089   9.236  20.575  0.00  0.00    -0.048 A 
ATOM      7  C   UNL     1       0.975   8.190  20.856  0.00  0.00    -0.040 A 
ATOM      8  C   UNL     1       1.961   7.794  19.940  0.00  0.00    +0.030 A 
ATOM      9  H   UNL     1       1.115   9.961  17.422  0.00  0.00    +0.063 HD
ATOM     10  H   UNL     1      -0.657   9.521  21.314  0.00  0.00    +0.063 HD
ATOM     11  H   UNL     1       0.869   7.697  21.818  0.00  0.00    +0.064 HD
BRANCH   3  12
ATOM     12  C   UNL     1       2.952   8.019  17.601  0.00  0.00    -0.038 C 
ATOM     13  H   UNL     1       2.572   8.298  16.613  0.00  0.00    +0.028 HD
ATOM     14  H   UNL     1       3.115   6.938  17.641  0.00  0.00    +0.028 HD
ATOM     15  H   UNL     1       3.924   8.510  17.720  0.00  0.00    +0.028 HD
ENDBRANCH   3  12
BRANCH   5  16
ATOM     16  C   UNL     1      -0.802  11.014  19.093  0.00  0.00    +0.244 C 
ATOM     17  O   UNL     1      -0.459  12.180  19.262  0.00  0.00    -0.270 OA
ATOM     18  N   UNL     1      -2.049  10.646  18.627  0.00  0.00    -0.308 N 
ATOM     19  H   UNL     1      -2.159   9.711  18.259  0.00  0.00    +0.149 HD
BRANCH  18  20
ATOM     20  C   UNL     1      -3.011  11.646  18.215  0.00  0.00    +0.023 C 
ATOM     21  C   UNL     1      -4.010  11.981  19.314  0.00  0.00    -0.034 C 
ATOM     22  C   UNL     1      -5.146  12.668  18.567  0.00  0.00    -0.051 C 
ATOM     23  C   UNL     1      -5.147  12.062  17.163  0.00  0.00    -0.051 C 
ATOM     24  C   UNL     1      -3.912  11.169  17.079  0.00  0.00    -0.034 C 
ATOM     25  H   UNL     1      -2.473  12.552  17.906  0.00  0.00    +0.050 HD
ATOM     26  H   UNL     1      -3.579  12.621  20.090  0.00  0.00    +0.028 HD
ATOM     27  H   UNL     1      -4.380  11.072  19.803  0.00  0.00    +0.028 HD
ATOM     28  H   UNL     1      -4.957  13.746  18.502  0.00  0.00    +0.027 HD
ATOM     29  H   UNL     1      -6.106  12.532  19.074  0.00  0.00    +0.027 HD
ATOM     30  H   UNL     1      -6.057  11.483  16.976  0.00  0.00    +0.027 HD
ATOM     31  H   UNL     1      -5.105  12.856  16.410  0.00  0.00    +0.027 HD
ATOM     32  H   UNL     1      -4.203  10.121  17.227  0.00  0.00    +0.028 HD
ATOM     33  H   UNL     1      -3.422  11.235  16.102  0.00  0.00    +0.028 HD
ENDBRANCH  18  20
ENDBRANCH   5  16
ENDBRANCH   1   8
BRANCH   1  34
ATOM     34  C   UNL     1       2.289   5.365  20.374  0.00  0.00    +0.012 C 
ATOM     35  H   UNL     1       2.421   5.051  21.416  0.00  0.00    +0.046 HD
ATOM     36  H   UNL     1       1.217   5.360  20.143  0.00  0.00    +0.046 HD
BRANCH  34  37
ATOM     37  C   UNL     1       2.985   4.372  19.425  0.00  0.00    -0.023 C 
ATOM     38  C   UNL     1       2.806   4.759  17.942  0.00  0.00    -0.033 C 
ATOM     39  C   UNL     1       3.605   3.830  17.028  0.00  0.00    +0.015 C 
ATOM     40  N   UNL     1       5.011   3.830  17.417  0.00  0.00    -0.301 N 
ATOM     41  C   UNL     1       6.079   4.443  16.771  0.00  0.00    +0.221 C 
ATOM     42  O   UNL     1       7.160   4.559  17.363  0.00  0.00    -0.275 OA
ATOM     43  C   UNL     1       5.217   3.361  18.788  0.00  0.00    +0.015 C 
ATOM     44  C   UNL     1       4.485   4.275  19.769  0.00  0.00    -0.033 C 
ATOM     45  H   UNL     1       2.541   3.377  19.571  0.00  0.00    +0.032 HD
ATOM     46  H   UNL     1       1.750   4.713  17.655  0.00  0.00    +0.028 HD
ATOM     47  H   UNL     1       3.138   5.795  17.791  0.00  0.00    +0.028 HD
ATOM     48  H   UNL     1       3.454   4.119  15.995  0.00  0.00    +0.046 HD
ATOM     49  H   UNL     1       3.236   2.802  17.120  0.00  0.00    +0.046 HD
ATOM     50  H   UNL     1       4.824   2.338  18.854  0.00  0.00    +0.046 HD
ATOM     51  H   UNL     1       6.279   3.309  19.050  0.00  0.00    +0.046 HD
ATOM     52  H   UNL     1       4.612   3.892  20.788  0.00  0.00    +0.028 HD
ATOM     53  H   UNL     1       4.936   5.277  19.739  0.00  0.00    +0.028 HD
BRANCH  41  54
ATOM     54  C   UNL     1       5.962   4.980  15.317  0.00  0.00    +0.039 C 
BRANCH  54  55
ATOM     55  C   UNL     1       7.342   5.236  14.696  0.00  0.00    -0.052 C 
ATOM     56  H   UNL     1       7.932   5.981  15.233  0.00  0.00    +0.024 HD
ATOM     57  H   UNL     1       7.940   4.318  14.674  0.00  0.00    +0.024 HD
ATOM     58  H   UNL     1       7.243   5.596  13.666  0.00  0.00    +0.024 HD
ENDBRANCH  54  55
BRANCH  54  59
ATOM     59  C   UNL     1       5.080   4.081  14.439  0.00  0.00    -0.052 C 
ATOM     60  H   UNL     1       5.481   3.921  13.437  0.00  0.00    +0.024 HD
ATOM     61  H   UNL     1       4.085   4.520  14.298  0.00  0.00    +0.024 HD
ATOM     62  H   UNL     1       4.947   3.095  14.898  0.00  0.00    +0.024 HD
ENDBRANCH  54  59
BRANCH  54  63
ATOM     63  C   UNL     1       5.250   6.359  15.379  0.00  0.00    -0.052 C 
ATOM     64  H   UNL     1       5.049   6.750  14.374  0.00  0.00    +0.024 HD
ATOM     65  H   UNL     1       4.289   6.292  15.902  0.00  0.00    +0.024 HD
ATOM     66  H   UNL     1       5.861   7.101  15.905  0.00  0.00    +0.024 HD
ENDBRANCH  54  63
ENDBRANCH  41  54
ENDBRANCH  34  37
ENDBRANCH   1  34
TORSDOF 10
ENDMDL
MODEL 5
REMARK VINA RESULT:    -6.794      1.958      3.235
REMARK INTER + INTRA:         -10.474
REMARK INTER:                  -9.960
REMARK INTRA:                  -0.514
REMARK UNBOUND:                -0.503
REMARK  Name = 
REMARK  10 active torsions:
REMARK  status: ('A' for Active; 'I' for Inactive)
REMARK    1  A    between atoms: C_1  and  C_2
REMARK    2  A    between atoms: C_4  and  C_5
REMARK    3  A    between atoms: N_7  and  C_8
REMARK    4  A    between atoms: C_15  and  N_16
REMARK    5  A    between atoms: N_16  and  C_17
REMARK    6  A    between atoms: C_17  and  C_18
REMARK    7  A    between atoms: C_22  and  C_24
REMARK    8  A    between atoms: C_24  and  C_25
REMARK    9  A    between atoms: C_24  and  C_26
REMARK   10  A    between atoms: C_24  and  C_27
REMARK                            x       y       z     vdW  Elec       q    Type
REMARK                         _______ _______ _______ _____ _____    ______ ____
ROOT
ATOM      1  N   UNL     1       2.197  10.016  17.796  0.00  0.00    -0.343 N 
ATOM      2  H   UNL     1       3.128  10.231  18.140  0.00  0.00    +0.146 HD
ENDROOT
BRANCH   1   8
ATOM      3  C   UNL     1       1.310  12.070  18.749  0.00  0.00    -0.029 A 
ATOM      4  C   UNL     1       0.310  12.755  19.467  0.00  0.00    -0.045 A 
ATOM      5  C   UNL     1      -0.800  12.075  19.973  0.00  0.00    +0.037 A 
ATOM      6  C   UNL     1      -0.927  10.708  19.733  0.00  0.00    -0.048 A 
ATOM      7  C   UNL     1       0.067  10.022  19.027  0.00  0.00    -0.040 A 
ATOM      8  C   UNL     1       1.219  10.671  18.557  0.00  0.00    +0.030 A 
ATOM      9  H   UNL     1       0.389  13.833  19.589  0.00  0.00    +0.063 HD
ATOM     10  H   UNL     1      -1.802  10.169  20.090  0.00  0.00    +0.063 HD
ATOM     11  H   UNL     1      -0.088   8.960  18.858  0.00  0.00    +0.064 HD
BRANCH   3  12
ATOM     12  C   UNL     1       2.469  12.866  18.205  0.00  0.00    -0.038 C 
ATOM     13  H   UNL     1       2.466  13.882  18.615  0.00  0.00    +0.028 HD
ATOM     14  H   UNL     1       2.414  12.909  17.113  0.00  0.00    +0.028 HD
ATOM     15  H   UNL     1       3.430  12.416  18.475  0.00  0.00    +0.028 HD
ENDBRANCH   3  12
BRANCH   5  16
ATOM     16  C   UNL     1      -1.879  12.770  20.730  0.00  0.00    +0.244 C 
ATOM     17  O   UNL     1      -2.935  13.057  20.177  0.00  0.00    -0.270 OA
ATOM     18  N   UNL     1      -1.623  13.023  22.064  0.00  0.00    -0.308 N 
ATOM     19  H   UNL     1      -0.864  12.520  22.503  0.00  0.00    +0.149 HD
BRANCH  18  20
ATOM     20  C   UNL     1      -2.650  13.571  22.924  0.00  0.00    +0.023 C 
ATOM     21  C   UNL     1      -2.073  14.389  24.072  0.00  0.00    -0.034 C 
ATOM     22  C   UNL     1      -3.228  14.482  25.061  0.00  0.00    -0.051 C 
ATOM     23  C   UNL     1      -4.050  13.207  24.861  0.00  0.00    -0.051 C 
ATOM     24  C   UNL     1      -3.451  12.495  23.651  0.00  0.00    -0.034 C 
ATOM     25  H   UNL     1      -3.325  14.193  22.322  0.00  0.00    +0.050 HD
ATOM     26  H   UNL     1      -1.724  15.374  23.749  0.00  0.00    +0.028 HD
ATOM     27  H   UNL     1      -1.224  13.873  24.537  0.00  0.00    +0.028 HD
ATOM     28  H   UNL     1      -3.847  15.358  24.836  0.00  0.00    +0.027 HD
ATOM     29  H   UNL     1      -2.873  14.584  26.091  0.00  0.00    +0.027 HD
ATOM     30  H   UNL     1      -4.016  12.565  25.746  0.00  0.00    +0.027 HD
ATOM     31  H   UNL     1      -5.100  13.462  24.682  0.00  0.00    +0.027 HD
ATOM     32  H   UNL     1      -2.795  11.682  23.989  0.00  0.00    +0.028 HD
ATOM     33  H   UNL     1      -4.222  12.047  23.015  0.00  0.00    +0.028 HD
ENDBRANCH  18  20
ENDBRANCH   5  16
ENDBRANCH   1   8
BRANCH   1  34
ATOM     34  C   UNL     1       2.031   8.619  17.406  0.00  0.00    +0.012 C 
ATOM     35  H   UNL     1       1.007   8.284  17.608  0.00  0.00    +0.046 HD
ATOM     36  H   UNL     1       2.223   8.517  16.331  0.00  0.00    +0.046 HD
BRANCH  34  37
ATOM     37  C   UNL     1       3.041   7.732  18.157  0.00  0.00    -0.023 C 
ATOM     38  C   UNL     1       2.346   6.708  19.078  0.00  0.00    -0.033 C 
ATOM     39  C   UNL     1       3.362   5.762  19.719  0.00  0.00    +0.015 C 
ATOM     40  N   UNL     1       4.156   5.104  18.687  0.00  0.00    -0.301 N 
ATOM     41  C   UNL     1       4.068   3.788  18.247  0.00  0.00    +0.221 C 
ATOM     42  O   UNL     1       4.636   3.460  17.198  0.00  0.00    -0.275 OA
ATOM     43  C   UNL     1       4.912   6.051  17.866  0.00  0.00    +0.015 C 
ATOM     44  C   UNL     1       3.955   7.003  17.152  0.00  0.00    -0.033 C 
ATOM     45  H   UNL     1       3.675   8.375  18.783  0.00  0.00    +0.032 HD
ATOM     46  H   UNL     1       1.790   7.218  19.872  0.00  0.00    +0.028 HD
ATOM     47  H   UNL     1       1.620   6.125  18.497  0.00  0.00    +0.028 HD
ATOM     48  H   UNL     1       2.848   5.062  20.366  0.00  0.00    +0.046 HD
ATOM     49  H   UNL     1       4.052   6.326  20.358  0.00  0.00    +0.046 HD
ATOM     50  H   UNL     1       5.580   6.611  18.534  0.00  0.00    +0.046 HD
ATOM     51  H   UNL     1       5.549   5.544  17.134  0.00  0.00    +0.046 HD
ATOM     52  H   UNL     1       4.534   7.733  16.573  0.00  0.00    +0.028 HD
ATOM     53  H   UNL     1       3.342   6.436  16.439  0.00  0.00    +0.028 HD
BRANCH  41  54
ATOM     54  C   UNL     1       3.284   2.706  19.042  0.00  0.00    +0.039 C 
BRANCH  54  55
ATOM     55  C   UNL     1       3.849   2.524  20.458  0.00  0.00    -0.052 C 
ATOM     56  H   UNL     1       4.438   3.374  20.806  0.00  0.00    +0.024 HD
ATOM     57  H   UNL     1       3.043   2.380  21.188  0.00  0.00    +0.024 HD
ATOM     58  H   UNL     1       4.503   1.647  20.505  0.00  0.00    +0.024 HD
ENDBRANCH  54  55
BRANCH  54  59
ATOM     59  C   UNL     1       1.771   2.973  19.044  0.00  0.00    -0.052 C 
ATOM     60  H   UNL     1       1.169   2.074  19.182  0.00  0.00    +0.024 HD
ATOM     61  H   UNL     1       1.447   3.409  18.091  0.00  0.00    +0.024 HD
ATOM     62  H   UNL     1       1.499   3.674  19.840  0.00  0.00    +0.024 HD
ENDBRANCH  54  59
BRANCH  54  63
ATOM     63  C   UNL     1       3.484   1.348  18.316  0.00  0.00    -0.052 C 
ATOM     64  H   UNL     1       4.298   0.769  18.769  0.00  0.00    +0.024 HD
ATOM     65  H   UNL     1       2.580   0.731  18.363  0.00  0.00    +0.024 HD
ATOM     66  H   UNL     1       3.731   1.493  17.259  0.00  0.00    +0.024 HD
ENDBRANCH  54  63
ENDBRANCH  41  54
ENDBRANCH  34  37
ENDBRANCH   1  34
TORSDOF 10
ENDMDL
MODEL 6
REMARK VINA RESULT:    -6.733      2.348     11.002
REMARK INTER + INTRA:         -10.384
REMARK INTER:                  -9.836
REMARK INTRA:                  -0.548
REMARK UNBOUND:                -0.503
REMARK  Name = 
REMARK  10 active torsions:
REMARK  status: ('A' for Active; 'I' for Inactive)
REMARK    1  A    between atoms: C_1  and  C_2
REMARK    2  A    between atoms: C_4  and  C_5
REMARK    3  A    between atoms: N_7  and  C_8
REMARK    4  A    between atoms: C_15  and  N_16
REMARK    5  A    between atoms: N_16  and  C_17
REMARK    6  A    between atoms: C_17  and  C_18
REMARK    7  A    between atoms: C_22  and  C_24
REMARK    8  A    between atoms: C_24  and  C_25
REMARK    9  A    between atoms: C_24  and  C_26
REMARK   10  A    between atoms: C_24  and  C_27
REMARK                            x       y       z     vdW  Elec       q    Type
REMARK                         _______ _______ _______ _____ _____    ______ ____
ROOT
ATOM      1  N   UNL     1      -0.021  10.945  19.796  0.00  0.00    -0.343 N 
ATOM      2  H   UNL     1       0.533  11.732  20.118  0.00  0.00    +0.146 HD
ENDROOT
BRANCH   1   8
ATOM      3  C   UNL     1       1.103   8.877  20.406  0.00  0.00    -0.029 A 
ATOM      4  C   UNL     1       1.885   7.758  20.056  0.00  0.00    -0.045 A 
ATOM      5  C   UNL     1       2.350   7.591  18.749  0.00  0.00    +0.037 A 
ATOM      6  C   UNL     1       2.003   8.531  17.780  0.00  0.00    -0.048 A 
ATOM      7  C   UNL     1       1.233   9.647  18.124  0.00  0.00    -0.040 A 
ATOM      8  C   UNL     1       0.802   9.867  19.440  0.00  0.00    +0.030 A 
ATOM      9  H   UNL     1       2.091   7.000  20.807  0.00  0.00    +0.063 HD
ATOM     10  H   UNL     1       2.327   8.398  16.749  0.00  0.00    +0.063 HD
ATOM     11  H   UNL     1       0.983  10.341  17.326  0.00  0.00    +0.064 HD
BRANCH   3  12
ATOM     12  C   UNL     1       0.610   8.986  21.826  0.00  0.00    -0.038 C 
ATOM     13  H   UNL     1       0.077   9.931  21.978  0.00  0.00    +0.028 HD
ATOM     14  H   UNL     1       1.452   8.922  22.521  0.00  0.00    +0.028 HD
ATOM     15  H   UNL     1      -0.090   8.181  22.073  0.00  0.00    +0.028 HD
ENDBRANCH   3  12
BRANCH   5  16
ATOM     16  C   UNL     1       3.172   6.418  18.344  0.00  0.00    +0.244 C 
ATOM     17  O   UNL     1       4.287   6.582  17.859  0.00  0.00    -0.270 OA
ATOM     18  N   UNL     1       2.621   5.173  18.582  0.00  0.00    -0.308 N 
ATOM     19  H   UNL     1       1.841   5.118  19.222  0.00  0.00    +0.149 HD
BRANCH  18  20
ATOM     20  C   UNL     1       3.386   3.967  18.352  0.00  0.00    +0.023 C 
ATOM     21  C   UNL     1       2.522   2.812  17.864  0.00  0.00    -0.034 C 
ATOM     22  C   UNL     1       3.390   1.586  18.112  0.00  0.00    -0.051 C 
ATOM     23  C   UNL     1       4.265   1.933  19.318  0.00  0.00    -0.051 C 
ATOM     24  C   UNL     1       4.005   3.404  19.629  0.00  0.00    -0.034 C 
ATOM     25  H   UNL     1       4.177   4.180  17.621  0.00  0.00    +0.050 HD
ATOM     26  H   UNL     1       2.243   2.916  16.811  0.00  0.00    +0.028 HD
ATOM     27  H   UNL     1       1.596   2.739  18.446  0.00  0.00    +0.028 HD
ATOM     28  H   UNL     1       4.025   1.391  17.240  0.00  0.00    +0.027 HD
ATOM     29  H   UNL     1       2.786   0.690  18.287  0.00  0.00    +0.027 HD
ATOM     30  H   UNL     1       4.025   1.305  20.182  0.00  0.00    +0.027 HD
ATOM     31  H   UNL     1       5.320   1.767  19.077  0.00  0.00    +0.027 HD
ATOM     32  H   UNL     1       3.304   3.486  20.470  0.00  0.00    +0.028 HD
ATOM     33  H   UNL     1       4.920   3.932  19.917  0.00  0.00    +0.028 HD
ENDBRANCH  18  20
ENDBRANCH   5  16
ENDBRANCH   1   8
BRANCH   1  34
ATOM     34  C   UNL     1      -1.149  11.335  18.954  0.00  0.00    +0.012 C 
ATOM     35  H   UNL     1      -0.840  11.397  17.904  0.00  0.00    +0.046 HD
ATOM     36  H   UNL     1      -1.941  10.582  19.038  0.00  0.00    +0.046 HD
BRANCH  34  37
ATOM     37  C   UNL     1      -1.722  12.685  19.423  0.00  0.00    -0.023 C 
ATOM     38  C   UNL     1      -2.976  12.512  20.303  0.00  0.00    -0.033 C 
ATOM     39  C   UNL     1      -3.455  13.856  20.855  0.00  0.00    +0.015 C 
ATOM     40  N   UNL     1      -2.375  14.515  21.581  0.00  0.00    -0.301 N 
ATOM     41  C   UNL     1      -2.227  14.654  22.956  0.00  0.00    +0.221 C 
ATOM     42  O   UNL     1      -1.136  15.014  23.416  0.00  0.00    -0.275 OA
ATOM     43  C   UNL     1      -1.211  14.789  20.736  0.00  0.00    +0.015 C 
ATOM     44  C   UNL     1      -0.645  13.480  20.186  0.00  0.00    -0.033 C 
ATOM     45  H   UNL     1      -2.008  13.271  18.537  0.00  0.00    +0.032 HD
ATOM     46  H   UNL     1      -3.791  12.056  19.731  0.00  0.00    +0.028 HD
ATOM     47  H   UNL     1      -2.748  11.836  21.138  0.00  0.00    +0.028 HD
ATOM     48  H   UNL     1      -4.340  13.706  21.460  0.00  0.00    +0.046 HD
ATOM     49  H   UNL     1      -3.751  14.517  20.031  0.00  0.00    +0.046 HD
ATOM     50  H   UNL     1      -1.541  15.437  19.914  0.00  0.00    +0.046 HD
ATOM     51  H   UNL     1      -0.431  15.334  21.275  0.00  0.00    +0.046 HD
ATOM     52  H   UNL     1       0.200  13.701  19.524  0.00  0.00    +0.028 HD
ATOM     53  H   UNL     1      -0.258  12.874  21.016  0.00  0.00    +0.028 HD
BRANCH  41  54
ATOM     54  C   UNL     1      -3.400  14.382  23.940  0.00  0.00    +0.039 C 
BRANCH  54  55
ATOM     55  C   UNL     1      -4.640  15.215  23.587  0.00  0.00    -0.052 C 
ATOM     56  H   UNL     1      -5.282  15.428  24.444  0.00  0.00    +0.024 HD
ATOM     57  H   UNL     1      -4.355  16.183  23.159  0.00  0.00    +0.024 HD
ATOM     58  H   UNL     1      -5.260  14.693  22.850  0.00  0.00    +0.024 HD
ENDBRANCH  54  55
BRANCH  54  59
ATOM     59  C   UNL     1      -3.714  12.884  24.063  0.00  0.00    -0.052 C 
ATOM     60  H   UNL     1      -4.232  12.473  23.196  0.00  0.00    +0.024 HD
ATOM     61  H   UNL     1      -4.366  12.686  24.923  0.00  0.00    +0.024 HD
ATOM     62  H   UNL     1      -2.796  12.302  24.202  0.00  0.00    +0.024 HD
ENDBRANCH  54  59
BRANCH  54  63
ATOM     63  C   UNL     1      -2.950  14.849  25.352  0.00  0.00    -0.052 C 
ATOM     64  H   UNL     1      -3.642  15.591  25.766  0.00  0.00    +0.024 HD
ATOM     65  H   UNL     1      -2.908  14.011  26.057  0.00  0.00    +0.024 HD
ATOM     66  H   UNL     1      -1.954  15.305  25.323  0.00  0.00    +0.024 HD
ENDBRANCH  54  63
ENDBRANCH  41  54
ENDBRANCH  34  37
ENDBRANCH   1  34
TORSDOF 10
ENDMDL
MODEL 7
REMARK VINA RESULT:    -6.679      1.930     10.612
REMARK INTER + INTRA:         -10.306
REMARK INTER:                  -9.784
REMARK INTRA:                  -0.522
REMARK UNBOUND:                -0.503
REMARK  Name = 
REMARK  10 active torsions:
REMARK  status: ('A' for Active; 'I' for Inactive)
REMARK    1  A    between atoms: C_1  and  C_2
REMARK    2  A    between atoms: C_4  and  C_5
REMARK    3  A    between atoms: N_7  and  C_8
REMARK    4  A    between atoms: C_15  and  N_16
REMARK    5  A    between atoms: N_16  and  C_17
REMARK    6  A    between atoms: C_17  and  C_18
REMARK    7  A    between atoms: C_22  and  C_24
REMARK    8  A    between atoms: C_24  and  C_25
REMARK    9  A    between atoms: C_24  and  C_26
REMARK   10  A    between atoms: C_24  and  C_27
REMARK                            x       y       z     vdW  Elec       q    Type
REMARK                         _______ _______ _______ _____ _____    ______ ____
ROOT
ATOM      1  N   UNL     1       1.615   6.914  20.292  0.00  0.00    -0.343 N 
ATOM      2  H   UNL     1       1.286   6.196  20.929  0.00  0.00    +0.146 HD
ENDROOT
BRANCH   1   8
ATOM      3  C   UNL     1       3.094   5.095  19.644  0.00  0.00    -0.029 A 
ATOM      4  C   UNL     1       4.069   4.558  18.781  0.00  0.00    -0.045 A 
ATOM      5  C   UNL     1       4.565   5.305  17.709  0.00  0.00    +0.037 A 
ATOM      6  C   UNL     1       4.059   6.583  17.480  0.00  0.00    -0.048 A 
ATOM      7  C   UNL     1       3.096   7.124  18.339  0.00  0.00    -0.040 A 
ATOM      8  C   UNL     1       2.623   6.416  19.454  0.00  0.00    +0.030 A 
ATOM      9  H   UNL     1       4.405   3.535  18.932  0.00  0.00    +0.063 HD
ATOM     10  H   UNL     1       4.409   7.165  16.630  0.00  0.00    +0.063 HD
ATOM     11  H   UNL     1       2.729   8.119  18.107  0.00  0.00    +0.064 HD
BRANCH   3  12
ATOM     12  C   UNL     1       2.579   4.229  20.765  0.00  0.00    -0.038 C 
ATOM     13  H   UNL     1       2.393   4.829  21.662  0.00  0.00    +0.028 HD
ATOM     14  H   UNL     1       3.304   3.442  20.994  0.00  0.00    +0.028 HD
ATOM     15  H   UNL     1       1.633   3.747  20.501  0.00  0.00    +0.028 HD
ENDBRANCH   3  12
BRANCH   5  16
ATOM     16  C   UNL     1       5.591   4.765  16.774  0.00  0.00    +0.244 C 
ATOM     17  O   UNL     1       6.666   4.360  17.203  0.00  0.00    -0.270 OA
ATOM     18  N   UNL     1       5.238   4.721  15.439  0.00  0.00    -0.308 N 
ATOM     19  H   UNL     1       4.259   4.810  15.206  0.00  0.00    +0.149 HD
BRANCH  18  20
ATOM     20  C   UNL     1       6.104   4.094  14.464  0.00  0.00    +0.023 C 
ATOM     21  C   UNL     1       7.088   5.075  13.841  0.00  0.00    -0.034 C 
ATOM     22  C   UNL     1       7.563   4.357  12.585  0.00  0.00    -0.051 C 
ATOM     23  C   UNL     1       6.397   3.470  12.147  0.00  0.00    -0.051 C 
ATOM     24  C   UNL     1       5.345   3.566  13.249  0.00  0.00    -0.034 C 
ATOM     25  H   UNL     1       6.648   3.271  14.946  0.00  0.00    +0.050 HD
ATOM     26  H   UNL     1       7.915   5.322  14.515  0.00  0.00    +0.028 HD
ATOM     27  H   UNL     1       6.591   6.014  13.570  0.00  0.00    +0.028 HD
ATOM     28  H   UNL     1       8.435   3.732  12.814  0.00  0.00    +0.027 HD
ATOM     29  H   UNL     1       7.860   5.062  11.802  0.00  0.00    +0.027 HD
ATOM     30  H   UNL     1       5.984   3.795  11.187  0.00  0.00    +0.027 HD
ATOM     31  H   UNL     1       6.737   2.436  12.023  0.00  0.00    +0.027 HD
ATOM     32  H   UNL     1       4.557   4.268  12.947  0.00  0.00    +0.028 HD
ATOM     33  H   UNL     1       4.864   2.602  13.444  0.00  0.00    +0.028 HD
ENDBRANCH  18  20
ENDBRANCH   5  16
ENDBRANCH   1   8
BRANCH   1  34
ATOM     34  C   UNL     1       1.741   8.229  20.915  0.00  0.00    +0.012 C 
ATOM     35  H   UNL     1       1.935   8.126  21.990  0.00  0.00    +0.046 HD
ATOM     36  H   UNL     1       2.582   8.766  20.461  0.00  0.00    +0.046 HD
BRANCH  34  37
ATOM     37  C   UNL     1       0.464   9.055  20.679  0.00  0.00    -0.023 C 
ATOM     38  C   UNL     1       0.385  10.285  21.607  0.00  0.00    -0.033 C 
ATOM     39  C   UNL     1      -0.828  11.154  21.271  0.00  0.00    +0.015 C 
ATOM     40  N   UNL     1      -0.794  11.543  19.866  0.00  0.00    -0.301 N 
ATOM     41  C   UNL     1      -0.477  12.784  19.328  0.00  0.00    +0.221 C 
ATOM     42  O   UNL     1      -0.250  12.880  18.114  0.00  0.00    -0.275 OA
ATOM     43  C   UNL     1      -0.829  10.392  18.961  0.00  0.00    +0.015 C 
ATOM     44  C   UNL     1       0.386   9.499  19.205  0.00  0.00    -0.033 C 
ATOM     45  H   UNL     1      -0.408   8.419  20.885  0.00  0.00    +0.032 HD
ATOM     46  H   UNL     1       0.317   9.975  22.655  0.00  0.00    +0.028 HD
ATOM     47  H   UNL     1       1.301  10.881  21.504  0.00  0.00    +0.028 HD
ATOM     48  H   UNL     1      -0.863  12.003  21.943  0.00  0.00    +0.046 HD
ATOM     49  H   UNL     1      -1.753  10.589  21.436  0.00  0.00    +0.046 HD
ATOM     50  H   UNL     1      -1.755   9.839  19.160  0.00  0.00    +0.046 HD
ATOM     51  H   UNL     1      -0.862  10.696  17.910  0.00  0.00    +0.046 HD
ATOM     52  H   UNL     1       0.329   8.621  18.551  0.00  0.00    +0.028 HD
ATOM     53  H   UNL     1       1.300  10.046  18.935  0.00  0.00    +0.028 HD
BRANCH  41  54
ATOM     54  C   UNL     1      -0.408  14.067  20.203  0.00  0.00    +0.039 C 
BRANCH  54  55
ATOM     55  C   UNL     1      -1.756  14.367  20.874  0.00  0.00    -0.052 C 
ATOM     56  H   UNL     1      -2.383  13.484  21.009  0.00  0.00    +0.024 HD
ATOM     57  H   UNL     1      -1.612  14.807  21.868  0.00  0.00    +0.024 HD
ATOM     58  H   UNL     1      -2.337  15.077  20.275  0.00  0.00    +0.024 HD
ENDBRANCH  54  55
BRANCH  54  59
ATOM     59  C   UNL     1       0.750  14.017  21.211  0.00  0.00    -0.052 C 
ATOM     60  H   UNL     1       0.423  13.990  22.251  0.00  0.00    +0.024 HD
ATOM     61  H   UNL     1       1.391  14.902  21.120  0.00  0.00    +0.024 HD
ATOM     62  H   UNL     1       1.376  13.134  21.043  0.00  0.00    +0.024 HD
ENDBRANCH  54  59
BRANCH  54  63
ATOM     63  C   UNL     1      -0.113  15.267  19.262  0.00  0.00    -0.052 C 
ATOM     64  H   UNL     1       0.161  16.163  19.831  0.00  0.00    +0.024 HD
ATOM     65  H   UNL     1       0.716  15.047  18.580  0.00  0.00    +0.024 HD
ATOM     66  H   UNL     1      -0.987  15.518  18.650  0.00  0.00    +0.024 HD
ENDBRANCH  54  63
ENDBRANCH  41  54
ENDBRANCH  34  37
ENDBRANCH   1  34
TORSDOF 10
ENDMDL
MODEL 8
REMARK VINA RESULT:    -6.640      1.816     11.098
REMARK INTER + INTRA:         -10.248
REMARK INTER:                  -9.783
REMARK INTRA:                  -0.465
REMARK UNBOUND:                -0.503
REMARK  Name = 
REMARK  10 active torsions:
REMARK  status: ('A' for Active; 'I' for Inactive)
REMARK    1  A    between atoms: C_1  and  C_2
REMARK    2  A    between atoms: C_4  and  C_5
REMARK    3  A    between atoms: N_7  and  C_8
REMARK    4  A    between atoms: C_15  and  N_16
REMARK    5  A    between atoms: N_16  and  C_17
REMARK    6  A    between atoms: C_17  and  C_18
REMARK    7  A    between atoms: C_22  and  C_24
REMARK    8  A    between atoms: C_24  and  C_25
REMARK    9  A    between atoms: C_24  and  C_26
REMARK   10  A    between atoms: C_24  and  C_27
REMARK                            x       y       z     vdW  Elec       q    Type
REMARK                         _______ _______ _______ _____ _____    ______ ____
ROOT
ATOM      1  N   UNL     1       1.743   8.291  19.632  0.00  0.00    -0.343 N 
ATOM      2  H   UNL     1       2.266   8.697  20.401  0.00  0.00    +0.146 HD
ENDROOT
BRANCH   1   8
ATOM      3  C   UNL     1       2.547   6.031  19.228  0.00  0.00    -0.029 A 
ATOM      4  C   UNL     1       3.304   5.118  18.467  0.00  0.00    -0.045 A 
ATOM      5  C   UNL     1       4.037   5.546  17.357  0.00  0.00    +0.037 A 
ATOM      6  C   UNL     1       3.986   6.889  16.987  0.00  0.00    -0.048 A 
ATOM      7  C   UNL     1       3.242   7.801  17.744  0.00  0.00    -0.040 A 
ATOM      8  C   UNL     1       2.543   7.407  18.894  0.00  0.00    +0.030 A 
ATOM      9  H   UNL     1       3.279   4.063  18.728  0.00  0.00    +0.063 HD
ATOM     10  H   UNL     1       4.523   7.234  16.105  0.00  0.00    +0.063 HD
ATOM     11  H   UNL     1       3.229   8.833  17.403  0.00  0.00    +0.064 HD
BRANCH   3  12
ATOM     12  C   UNL     1       1.756   5.502  20.397  0.00  0.00    -0.038 C 
ATOM     13  H   UNL     1       1.321   6.326  20.973  0.00  0.00    +0.028 HD
ATOM     14  H   UNL     1       2.402   4.901  21.044  0.00  0.00    +0.028 HD
ATOM     15  H   UNL     1       0.926   4.868  20.069  0.00  0.00    +0.028 HD
ENDBRANCH   3  12
BRANCH   5  16
ATOM     16  C   UNL     1       4.841   4.607  16.528  0.00  0.00    +0.244 C 
ATOM     17  O   UNL     1       4.984   3.440  16.878  0.00  0.00    -0.270 OA
ATOM     18  N   UNL     1       5.364   5.120  15.356  0.00  0.00    -0.308 N 
ATOM     19  H   UNL     1       4.980   5.988  15.008  0.00  0.00    +0.149 HD
BRANCH  18  20
ATOM     20  C   UNL     1       6.047   4.263  14.411  0.00  0.00    +0.023 C 
ATOM     21  C   UNL     1       7.064   5.019  13.567  0.00  0.00    -0.034 C 
ATOM     22  C   UNL     1       7.321   4.083  12.394  0.00  0.00    -0.051 C 
ATOM     23  C   UNL     1       6.023   3.299  12.195  0.00  0.00    -0.051 C 
ATOM     24  C   UNL     1       5.111   3.676  13.359  0.00  0.00    -0.034 C 
ATOM     25  H   UNL     1       6.543   3.451  14.960  0.00  0.00    +0.050 HD
ATOM     26  H   UNL     1       7.979   5.249  14.122  0.00  0.00    +0.028 HD
ATOM     27  H   UNL     1       6.649   5.968  13.206  0.00  0.00    +0.028 HD
ATOM     28  H   UNL     1       8.137   3.391  12.635  0.00  0.00    +0.027 HD
ATOM     29  H   UNL     1       7.611   4.633  11.492  0.00  0.00    +0.027 HD
ATOM     30  H   UNL     1       5.551   3.541  11.238  0.00  0.00    +0.027 HD
ATOM     31  H   UNL     1       6.231   2.224  12.194  0.00  0.00    +0.027 HD
ATOM     32  H   UNL     1       4.379   4.424  13.028  0.00  0.00    +0.028 HD
ATOM     33  H   UNL     1       4.547   2.815  13.735  0.00  0.00    +0.028 HD
ENDBRANCH  18  20
ENDBRANCH   5  16
ENDBRANCH   1   8
BRANCH   1  34
ATOM     34  C   UNL     1       0.865   9.245  18.960  0.00  0.00    +0.012 C 
ATOM     35  H   UNL     1       1.264   9.500  17.971  0.00  0.00    +0.046 HD
ATOM     36  H   UNL     1      -0.126   8.795  18.828  0.00  0.00    +0.046 HD
BRANCH  34  37
ATOM     37  C   UNL     1       0.703  10.515  19.814  0.00  0.00    -0.023 C 
ATOM     38  C   UNL     1      -0.328  11.493  19.216  0.00  0.00    -0.033 C 
ATOM     39  C   UNL     1      -0.560  12.688  20.142  0.00  0.00    +0.015 C 
ATOM     40  N   UNL     1      -0.962  12.226  21.466  0.00  0.00    -0.301 N 
ATOM     41  C   UNL     1      -2.227  12.268  22.040  0.00  0.00    +0.221 C 
ATOM     42  O   UNL     1      -2.451  11.610  23.064  0.00  0.00    -0.275 OA
ATOM     43  C   UNL     1       0.051  11.382  22.102  0.00  0.00    +0.015 C 
ATOM     44  C   UNL     1       0.300  10.136  21.253  0.00  0.00    -0.033 C 
ATOM     45  H   UNL     1       1.673  11.031  19.861  0.00  0.00    +0.032 HD
ATOM     46  H   UNL     1       0.010  11.864  18.242  0.00  0.00    +0.028 HD
ATOM     47  H   UNL     1      -1.278  10.969  19.052  0.00  0.00    +0.028 HD
ATOM     48  H   UNL     1      -1.279  13.361  19.693  0.00  0.00    +0.046 HD
ATOM     49  H   UNL     1       0.370  13.259  20.260  0.00  0.00    +0.046 HD
ATOM     50  H   UNL     1       0.971  11.974  22.191  0.00  0.00    +0.046 HD
ATOM     51  H   UNL     1      -0.235  11.089  23.117  0.00  0.00    +0.046 HD
ATOM     52  H   UNL     1       1.088   9.532  21.717  0.00  0.00    +0.028 HD
ATOM     53  H   UNL     1      -0.610   9.522  21.232  0.00  0.00    +0.028 HD
BRANCH  41  54
ATOM     54  C   UNL     1      -3.374  13.129  21.440  0.00  0.00    +0.039 C 
BRANCH  54  55
ATOM     55  C   UNL     1      -2.999  14.617  21.392  0.00  0.00    -0.052 C 
ATOM     56  H   UNL     1      -1.943  14.807  21.585  0.00  0.00    +0.024 HD
ATOM     57  H   UNL     1      -3.222  15.047  20.408  0.00  0.00    +0.024 HD
ATOM     58  H   UNL     1      -3.564  15.183  22.140  0.00  0.00    +0.024 HD
ENDBRANCH  54  55
BRANCH  54  59
ATOM     59  C   UNL     1      -3.843  12.597  20.077  0.00  0.00    -0.052 C 
ATOM     60  H   UNL     1      -3.574  11.555  19.899  0.00  0.00    +0.024 HD
ATOM     61  H   UNL     1      -3.394  13.168  19.255  0.00  0.00    +0.024 HD
ATOM     62  H   UNL     1      -4.931  12.674  19.980  0.00  0.00    +0.024 HD
ENDBRANCH  54  59
BRANCH  54  63
ATOM     63  C   UNL     1      -4.596  13.019  22.392  0.00  0.00    -0.052 C 
ATOM     64  H   UNL     1      -5.541  13.042  21.835  0.00  0.00    +0.024 HD
ATOM     65  H   UNL     1      -4.576  12.083  22.963  0.00  0.00    +0.024 HD
ATOM     66  H   UNL     1      -4.617  13.845  23.112  0.00  0.00    +0.024 HD
ENDBRANCH  54  63
ENDBRANCH  41  54
ENDBRANCH  34  37
ENDBRANCH   1  34
TORSDOF 10
ENDMDL
MODEL 9
REMARK VINA RESULT:    -6.538      2.500     10.425
REMARK INTER + INTRA:         -10.098
REMARK INTER:                  -9.170
REMARK INTRA:                  -0.928
REMARK UNBOUND:                -0.503
REMARK  Name = 
REMARK  10 active torsions:
REMARK  status: ('A' for Active; 'I' for Inactive)
REMARK    1  A    between atoms: C_1  and  C_2
REMARK    2  A    between atoms: C_4  and  C_5
REMARK    3  A    between atoms: N_7  and  C_8
REMARK    4  A    between atoms: C_15  and  N_16
REMARK    5  A    between atoms: N_16  and  C_17
REMARK    6  A    between atoms: C_17  and  C_18
REMARK    7  A    between atoms: C_22  and  C_24
REMARK    8  A    between atoms: C_24  and  C_25
REMARK    9  A    between atoms: C_24  and  C_26
REMARK   10  A    between atoms: C_24  and  C_27
REMARK                            x       y       z     vdW  Elec       q    Type
REMARK                         _______ _______ _______ _____ _____    ______ ____
ROOT
ATOM      1  N   UNL     1       0.883  11.625  18.330  0.00  0.00    -0.343 N 
ATOM      2  H   UNL     1      -0.076  11.806  18.607  0.00  0.00    +0.146 HD
ENDROOT
BRANCH   1   8
ATOM      3  C   UNL     1       0.810   9.784  19.917  0.00  0.00    -0.029 A 
ATOM      4  C   UNL     1       1.149   8.465  20.280  0.00  0.00    -0.045 A 
ATOM      5  C   UNL     1       1.918   7.665  19.432  0.00  0.00    +0.037 A 
ATOM      6  C   UNL     1       2.324   8.175  18.200  0.00  0.00    -0.048 A 
ATOM      7  C   UNL     1       1.996   9.487  17.838  0.00  0.00    -0.040 A 
ATOM      8  C   UNL     1       1.273  10.329  18.696  0.00  0.00    +0.030 A 
ATOM      9  H   UNL     1       0.769   8.058  21.214  0.00  0.00    +0.063 HD
ATOM     10  H   UNL     1       2.894   7.554  17.512  0.00  0.00    +0.063 HD
ATOM     11  H   UNL     1       2.329   9.828  16.862  0.00  0.00    +0.064 HD
BRANCH   3  12
ATOM     12  C   UNL     1      -0.045  10.587  20.864  0.00  0.00    -0.038 C 
ATOM     13  H   UNL     1       0.435  11.542  21.102  0.00  0.00    +0.028 HD
ATOM     14  H   UNL     1      -0.216  10.022  21.785  0.00  0.00    +0.028 HD
ATOM     15  H   UNL     1      -1.021  10.819  20.427  0.00  0.00    +0.028 HD
ENDBRANCH   3  12
BRANCH   5  16
ATOM     16  C   UNL     1       2.288   6.265  19.782  0.00  0.00    +0.244 C 
ATOM     17  O   UNL     1       2.243   5.888  20.948  0.00  0.00    -0.270 OA
ATOM     18  N   UNL     1       2.636   5.443  18.727  0.00  0.00    -0.308 N 
ATOM     19  H   UNL     1       2.386   5.741  17.794  0.00  0.00    +0.149 HD
BRANCH  18  20
ATOM     20  C   UNL     1       2.883   4.033  18.937  0.00  0.00    +0.023 C 
ATOM     21  C   UNL     1       3.661   3.401  17.790  0.00  0.00    -0.034 C 
ATOM     22  C   UNL     1       3.425   1.908  17.979  0.00  0.00    -0.051 C 
ATOM     23  C   UNL     1       2.050   1.784  18.637  0.00  0.00    -0.051 C 
ATOM     24  C   UNL     1       1.601   3.205  18.967  0.00  0.00    -0.034 C 
ATOM     25  H   UNL     1       3.430   3.903  19.880  0.00  0.00    +0.050 HD
ATOM     26  H   UNL     1       4.724   3.659  17.815  0.00  0.00    +0.028 HD
ATOM     27  H   UNL     1       3.264   3.722  16.820  0.00  0.00    +0.028 HD
ATOM     28  H   UNL     1       4.190   1.486  18.642  0.00  0.00    +0.027 HD
ATOM     29  H   UNL     1       3.476   1.366  17.030  0.00  0.00    +0.027 HD
ATOM     30  H   UNL     1       1.330   1.294  17.974  0.00  0.00    +0.027 HD
ATOM     31  H   UNL     1       2.122   1.177  19.546  0.00  0.00    +0.027 HD
ATOM     32  H   UNL     1       0.893   3.555  18.205  0.00  0.00    +0.028 HD
ATOM     33  H   UNL     1       1.091   3.261  19.935  0.00  0.00    +0.028 HD
ENDBRANCH  18  20
ENDBRANCH   5  16
ENDBRANCH   1   8
BRANCH   1  34
ATOM     34  C   UNL     1       1.774  12.763  18.541  0.00  0.00    +0.012 C 
ATOM     35  H   UNL     1       2.683  12.444  19.064  0.00  0.00    +0.046 HD
ATOM     36  H   UNL     1       2.061  13.183  17.570  0.00  0.00    +0.046 HD
BRANCH  34  37
ATOM     37  C   UNL     1       1.054  13.862  19.342  0.00  0.00    -0.023 C 
ATOM     38  C   UNL     1      -0.478  13.803  19.168  0.00  0.00    -0.033 C 
ATOM     39  C   UNL     1      -1.177  14.825  20.066  0.00  0.00    +0.015 C 
ATOM     40  N   UNL     1      -0.785  14.622  21.457  0.00  0.00    -0.301 N 
ATOM     41  C   UNL     1      -1.535  14.061  22.485  0.00  0.00    +0.221 C 
ATOM     42  O   UNL     1      -0.972  13.732  23.537  0.00  0.00    -0.275 OA
ATOM     43  C   UNL     1       0.655  14.781  21.668  0.00  0.00    +0.015 C 
ATOM     44  C   UNL     1       1.421  13.754  20.835  0.00  0.00    -0.033 C 
ATOM     45  H   UNL     1       1.398  14.842  18.981  0.00  0.00    +0.032 HD
ATOM     46  H   UNL     1      -0.757  14.000  18.127  0.00  0.00    +0.028 HD
ATOM     47  H   UNL     1      -0.836  12.795  19.415  0.00  0.00    +0.028 HD
ATOM     48  H   UNL     1      -2.248  14.767  19.916  0.00  0.00    +0.046 HD
ATOM     49  H   UNL     1      -0.877  15.842  19.784  0.00  0.00    +0.046 HD
ATOM     50  H   UNL     1       0.926  15.799  21.362  0.00  0.00    +0.046 HD
ATOM     51  H   UNL     1       0.929  14.684  22.723  0.00  0.00    +0.046 HD
ATOM     52  H   UNL     1       2.498  13.909  20.970  0.00  0.00    +0.028 HD
ATOM     53  H   UNL     1       1.189  12.744  21.200  0.00  0.00    +0.028 HD
BRANCH  41  54
ATOM     54  C   UNL     1      -3.070  13.844  22.359  0.00  0.00    +0.039 C 
BRANCH  54  55
ATOM     55  C   UNL     1      -3.811  15.168  22.123  0.00  0.00    -0.052 C 
ATOM     56  H   UNL     1      -3.157  16.041  22.125  0.00  0.00    +0.024 HD
ATOM     57  H   UNL     1      -4.325  15.163  21.155  0.00  0.00    +0.024 HD
ATOM     58  H   UNL     1      -4.563  15.335  22.901  0.00  0.00    +0.024 HD
ENDBRANCH  54  55
BRANCH  54  59
ATOM     59  C   UNL     1      -3.418  12.781  21.307  0.00  0.00    -0.052 C 
ATOM     60  H   UNL     1      -3.237  11.759  21.643  0.00  0.00    +0.024 HD
ATOM     61  H   UNL     1      -2.816  12.910  20.400  0.00  0.00    +0.024 HD
ATOM     62  H   UNL     1      -4.473  12.847  21.019  0.00  0.00    +0.024 HD
ENDBRANCH  54  59
BRANCH  54  63
ATOM     63  C   UNL     1      -3.582  13.296  23.718  0.00  0.00    -0.052 C 
ATOM     64  H   UNL     1      -4.665  13.434  23.823  0.00  0.00    +0.024 HD
ATOM     65  H   UNL     1      -3.379  12.223  23.820  0.00  0.00    +0.024 HD
ATOM     66  H   UNL     1      -3.102  13.805  24.561  0.00  0.00    +0.024 HD
ENDBRANCH  54  63
ENDBRANCH  41  54
ENDBRANCH  34  37
ENDBRANCH   1  34
TORSDOF 10
ENDMDL
MODEL 10
REMARK VINA RESULT:    -6.433      2.207     10.176
REMARK INTER + INTRA:          -9.945
REMARK INTER:                  -9.188
REMARK INTRA:                  -0.756
REMARK UNBOUND:                -0.503
REMARK  Name = 
REMARK  10 active torsions:
REMARK  status: ('A' for Active; 'I' for Inactive)
REMARK    1  A    between atoms: C_1  and  C_2
REMARK    2  A    between atoms: C_4  and  C_5
REMARK    3  A    between atoms: N_7  and  C_8
REMARK    4  A    between atoms: C_15  and  N_16
REMARK    5  A    between atoms: N_16  and  C_17
REMARK    6  A    between atoms: C_17  and  C_18
REMARK    7  A    between atoms: C_22  and  C_24
REMARK    8  A    between atoms: C_24  and  C_25
REMARK    9  A    between atoms: C_24  and  C_26
REMARK   10  A    between atoms: C_24  and  C_27
REMARK                            x       y       z     vdW  Elec       q    Type
REMARK                         _______ _______ _______ _____ _____    ______ ____
ROOT
ATOM      1  N   UNL     1       1.742   8.198  20.530  0.00  0.00    -0.343 N 
ATOM      2  H   UNL     1       2.044   9.148  20.339  0.00  0.00    +0.146 HD
ENDROOT
BRANCH   1   8
ATOM      3  C   UNL     1       2.671   7.696  18.340  0.00  0.00    -0.029 A 
ATOM      4  C   UNL     1       3.340   6.816  17.465  0.00  0.00    -0.045 A 
ATOM      5  C   UNL     1       3.736   5.546  17.892  0.00  0.00    +0.037 A 
ATOM      6  C   UNL     1       3.490   5.166  19.210  0.00  0.00    -0.048 A 
ATOM      7  C   UNL     1       2.819   6.033  20.080  0.00  0.00    -0.040 A 
ATOM      8  C   UNL     1       2.362   7.290  19.660  0.00  0.00    +0.030 A 
ATOM      9  H   UNL     1       3.585   7.152  16.461  0.00  0.00    +0.063 HD
ATOM     10  H   UNL     1       3.822   4.194  19.570  0.00  0.00    +0.063 HD
ATOM     11  H   UNL     1       2.664   5.689  21.099  0.00  0.00    +0.064 HD
BRANCH   3  12
ATOM     12  C   UNL     1       2.295   9.062  17.827  0.00  0.00    -0.038 C 
ATOM     13  H   UNL     1       1.767   8.983  16.871  0.00  0.00    +0.028 HD
ATOM     14  H   UNL     1       3.193   9.675  17.701  0.00  0.00    +0.028 HD
ATOM     15  H   UNL     1       1.627   9.583  18.520  0.00  0.00    +0.028 HD
ENDBRANCH   3  12
BRANCH   5  16
ATOM     16  C   UNL     1       4.451   4.595  16.996  0.00  0.00    +0.244 C 
ATOM     17  O   UNL     1       4.302   3.386  17.134  0.00  0.00    -0.270 OA
ATOM     18  N   UNL     1       5.237   5.159  16.009  0.00  0.00    -0.308 N 
ATOM     19  H   UNL     1       5.091   6.135  15.791  0.00  0.00    +0.149 HD
BRANCH  18  20
ATOM     20  C   UNL     1       5.868   4.333  15.003  0.00  0.00    +0.023 C 
ATOM     21  C   UNL     1       7.018   5.045  14.302  0.00  0.00    -0.034 C 
ATOM     22  C   UNL     1       7.231   4.221  13.039  0.00  0.00    -0.051 C 
ATOM     23  C   UNL     1       5.863   3.634  12.689  0.00  0.00    -0.051 C 
ATOM     24  C   UNL     1       4.933   3.990  13.846  0.00  0.00    -0.034 C 
ATOM     25  H   UNL     1       6.229   3.410  15.474  0.00  0.00    +0.050 HD
ATOM     26  H   UNL     1       7.918   5.094  14.922  0.00  0.00    +0.028 HD
ATOM     27  H   UNL     1       6.742   6.073  14.036  0.00  0.00    +0.028 HD
ATOM     28  H   UNL     1       7.941   3.409  13.234  0.00  0.00    +0.027 HD
ATOM     29  H   UNL     1       7.639   4.826  12.224  0.00  0.00    +0.027 HD
ATOM     30  H   UNL     1       5.482   4.039  11.746  0.00  0.00    +0.027 HD
ATOM     31  H   UNL     1       5.939   2.548  12.571  0.00  0.00    +0.027 HD
ATOM     32  H   UNL     1       4.318   4.857  13.572  0.00  0.00    +0.028 HD
ATOM     33  H   UNL     1       4.249   3.171  14.091  0.00  0.00    +0.028 HD
ENDBRANCH  18  20
ENDBRANCH   5  16
ENDBRANCH   1   8
BRANCH   1  34
ATOM     34  C   UNL     1       0.316   8.092  20.831  0.00  0.00    +0.012 C 
ATOM     35  H   UNL     1      -0.195   7.505  20.058  0.00  0.00    +0.046 HD
ATOM     36  H   UNL     1       0.186   7.585  21.794  0.00  0.00    +0.046 HD
BRANCH  34  37
ATOM     37  C   UNL     1      -0.311   9.493  20.940  0.00  0.00    -0.023 C 
ATOM     38  C   UNL     1       0.661  10.522  21.553  0.00  0.00    -0.033 C 
ATOM     39  C   UNL     1       0.060  11.928  21.540  0.00  0.00    +0.015 C 
ATOM     40  N   UNL     1      -0.326  12.296  20.182  0.00  0.00    -0.301 N 
ATOM     41  C   UNL     1       0.311  13.182  19.321  0.00  0.00    +0.221 C 
ATOM     42  O   UNL     1       0.002  13.192  18.122  0.00  0.00    -0.275 OA
ATOM     43  C   UNL     1      -1.332  11.396  19.616  0.00  0.00    +0.015 C 
ATOM     44  C   UNL     1      -0.781   9.972  19.552  0.00  0.00    -0.033 C 
ATOM     45  H   UNL     1      -1.195   9.432  21.591  0.00  0.00    +0.032 HD
ATOM     46  H   UNL     1       0.906  10.254  22.587  0.00  0.00    +0.028 HD
ATOM     47  H   UNL     1       1.600  10.521  20.986  0.00  0.00    +0.028 HD
ATOM     48  H   UNL     1       0.759  12.626  21.984  0.00  0.00    +0.046 HD
ATOM     49  H   UNL     1      -0.845  11.957  22.160  0.00  0.00    +0.046 HD
ATOM     50  H   UNL     1      -2.216  11.433  20.265  0.00  0.00    +0.046 HD
ATOM     51  H   UNL     1      -1.657  11.714  18.621  0.00  0.00    +0.046 HD
ATOM     52  H   UNL     1      -1.556   9.300  19.165  0.00  0.00    +0.028 HD
ATOM     53  H   UNL     1       0.060   9.939  18.846  0.00  0.00    +0.028 HD
BRANCH  41  54
ATOM     54  C   UNL     1       1.398  14.176  19.820  0.00  0.00    +0.039 C 
BRANCH  54  55
ATOM     55  C   UNL     1       0.842  15.133  20.885  0.00  0.00    -0.052 C 
ATOM     56  H   UNL     1       1.524  15.300  21.720  0.00  0.00    +0.024 HD
ATOM     57  H   UNL     1       0.626  16.117  20.454  0.00  0.00    +0.024 HD
ATOM     58  H   UNL     1      -0.088  14.742  21.310  0.00  0.00    +0.024 HD
ENDBRANCH  54  55
BRANCH  54  59
ATOM     59  C   UNL     1       2.670  13.454  20.286  0.00  0.00    -0.052 C 
ATOM     60  H   UNL     1       3.591  13.911  19.921  0.00  0.00    +0.024 HD
ATOM     61  H   UNL     1       2.688  12.417  19.931  0.00  0.00    +0.024 HD
ATOM     62  H   UNL     1       2.729  13.431  21.380  0.00  0.00    +0.024 HD
ENDBRANCH  54  59
BRANCH  54  63
ATOM     63  C   UNL     1       1.817  15.062  18.616  0.00  0.00    -0.052 C 
ATOM     64  H   UNL     1       1.176  15.947  18.528  0.00  0.00    +0.024 HD
ATOM     65  H   UNL     1       2.850  15.416  18.718  0.00  0.00    +0.024 HD
ATOM     66  H   UNL     1       1.750  14.510  17.671  0.00  0.00    +0.024 HD
ENDBRANCH  54  63
ENDBRANCH  41  54
ENDBRANCH  34  37
ENDBRANCH   1  34
TORSDOF 10
ENDMDL
MODEL 11
REMARK VINA RESULT:    -6.365      2.538     10.398
REMARK INTER + INTRA:          -9.844
REMARK INTER:                  -9.787
REMARK INTRA:                  -0.057
REMARK UNBOUND:                -0.503
REMARK  Name = 
REMARK  10 active torsions:
REMARK  status: ('A' for Active; 'I' for Inactive)
REMARK    1  A    between atoms: C_1  and  C_2
REMARK    2  A    between atoms: C_4  and  C_5
REMARK    3  A    between atoms: N_7  and  C_8
REMARK    4  A    between atoms: C_15  and  N_16
REMARK    5  A    between atoms: N_16  and  C_17
REMARK    6  A    between atoms: C_17  and  C_18
REMARK    7  A    between atoms: C_22  and  C_24
REMARK    8  A    between atoms: C_24  and  C_25
REMARK    9  A    between atoms: C_24  and  C_26
REMARK   10  A    between atoms: C_24  and  C_27
REMARK                            x       y       z     vdW  Elec       q    Type
REMARK                         _______ _______ _______ _____ _____    ______ ____
ROOT
ATOM      1  N   UNL     1       1.416   7.375  20.102  0.00  0.00    -0.343 N 
ATOM      2  H   UNL     1       0.978   6.672  20.689  0.00  0.00    +0.146 HD
ENDROOT
BRANCH   1   8
ATOM      3  C   UNL     1       2.896   5.504  19.627  0.00  0.00    -0.029 A 
ATOM      4  C   UNL     1       3.896   4.903  18.837  0.00  0.00    -0.045 A 
ATOM      5  C   UNL     1       4.437   5.574  17.737  0.00  0.00    +0.037 A 
ATOM      6  C   UNL     1       3.954   6.838  17.407  0.00  0.00    -0.048 A 
ATOM      7  C   UNL     1       2.967   7.443  18.194  0.00  0.00    -0.040 A 
ATOM      8  C   UNL     1       2.447   6.814  19.335  0.00  0.00    +0.030 A 
ATOM      9  H   UNL     1       4.214   3.889  19.066  0.00  0.00    +0.063 HD
ATOM     10  H   UNL     1       4.340   7.361  16.534  0.00  0.00    +0.063 HD
ATOM     11  H   UNL     1       2.619   8.424  17.884  0.00  0.00    +0.064 HD
BRANCH   3  12
ATOM     12  C   UNL     1       2.333   4.718  20.783  0.00  0.00    -0.038 C 
ATOM     13  H   UNL     1       2.964   4.832  21.671  0.00  0.00    +0.028 HD
ATOM     14  H   UNL     1       2.260   3.660  20.517  0.00  0.00    +0.028 HD
ATOM     15  H   UNL     1       1.331   5.065  21.057  0.00  0.00    +0.028 HD
ENDBRANCH   3  12
BRANCH   5  16
ATOM     16  C   UNL     1       5.490   4.965  16.877  0.00  0.00    +0.244 C 
ATOM     17  O   UNL     1       6.484   4.457  17.384  0.00  0.00    -0.270 OA
ATOM     18  N   UNL     1       5.251   4.980  15.516  0.00  0.00    -0.308 N 
ATOM     19  H   UNL     1       4.307   5.162  15.204  0.00  0.00    +0.149 HD
BRANCH  18  20
ATOM     20  C   UNL     1       6.141   4.299  14.600  0.00  0.00    +0.023 C 
ATOM     21  C   UNL     1       7.171   5.236  13.983  0.00  0.00    -0.034 C 
ATOM     22  C   UNL     1       7.679   4.462  12.774  0.00  0.00    -0.051 C 
ATOM     23  C   UNL     1       6.511   3.585  12.321  0.00  0.00    -0.051 C 
ATOM     24  C   UNL     1       5.419   3.744  13.375  0.00  0.00    -0.034 C 
ATOM     25  H   UNL     1       6.646   3.484  15.134  0.00  0.00    +0.050 HD
ATOM     26  H   UNL     1       7.975   5.490  14.680  0.00  0.00    +0.028 HD
ATOM     27  H   UNL     1       6.706   6.175  13.658  0.00  0.00    +0.028 HD
ATOM     28  H   UNL     1       8.526   3.828  13.061  0.00  0.00    +0.027 HD
ATOM     29  H   UNL     1       8.022   5.131  11.979  0.00  0.00    +0.027 HD
ATOM     30  H   UNL     1       6.144   3.884  11.334  0.00  0.00    +0.027 HD
ATOM     31  H   UNL     1       6.832   2.540  12.248  0.00  0.00    +0.027 HD
ATOM     32  H   UNL     1       4.660   4.451  13.017  0.00  0.00    +0.028 HD
ATOM     33  H   UNL     1       4.908   2.798  13.585  0.00  0.00    +0.028 HD
ENDBRANCH  18  20
ENDBRANCH   5  16
ENDBRANCH   1   8
BRANCH   1  34
ATOM     34  C   UNL     1       1.594   8.661  20.771  0.00  0.00    +0.012 C 
ATOM     35  H   UNL     1       1.032   8.684  21.712  0.00  0.00    +0.046 HD
ATOM     36  H   UNL     1       2.657   8.806  20.998  0.00  0.00    +0.046 HD
BRANCH  34  37
ATOM     37  C   UNL     1       1.141   9.808  19.850  0.00  0.00    -0.023 C 
ATOM     38  C   UNL     1       0.327   9.300  18.642  0.00  0.00    -0.033 C 
ATOM     39  C   UNL     1      -0.213  10.464  17.810  0.00  0.00    +0.015 C 
ATOM     40  N   UNL     1      -1.001  11.359  18.651  0.00  0.00    -0.301 N 
ATOM     41  C   UNL     1      -2.383  11.499  18.693  0.00  0.00    +0.221 C 
ATOM     42  O   UNL     1      -2.902  12.115  19.633  0.00  0.00    -0.275 OA
ATOM     43  C   UNL     1      -0.219  11.941  19.743  0.00  0.00    +0.015 C 
ATOM     44  C   UNL     1       0.315  10.834  20.651  0.00  0.00    -0.033 C 
ATOM     45  H   UNL     1       2.034  10.322  19.465  0.00  0.00    +0.032 HD
ATOM     46  H   UNL     1       0.946   8.665  17.999  0.00  0.00    +0.028 HD
ATOM     47  H   UNL     1      -0.510   8.686  18.997  0.00  0.00    +0.028 HD
ATOM     48  H   UNL     1      -0.771  10.078  16.966  0.00  0.00    +0.046 HD
ATOM     49  H   UNL     1       0.617  11.047  17.394  0.00  0.00    +0.046 HD
ATOM     50  H   UNL     1       0.611  12.503  19.297  0.00  0.00    +0.046 HD
ATOM     51  H   UNL     1      -0.803  12.655  20.332  0.00  0.00    +0.046 HD
ATOM     52  H   UNL     1       0.931  11.278  21.441  0.00  0.00    +0.028 HD
ATOM     53  H   UNL     1      -0.527  10.327  21.141  0.00  0.00    +0.028 HD
BRANCH  41  54
ATOM     54  C   UNL     1      -3.303  10.914  17.586  0.00  0.00    +0.039 C 
BRANCH  54  55
ATOM     55  C   UNL     1      -2.794  11.269  16.181  0.00  0.00    -0.052 C 
ATOM     56  H   UNL     1      -2.208  10.475  15.715  0.00  0.00    +0.024 HD
ATOM     57  H   UNL     1      -3.629  11.483  15.503  0.00  0.00    +0.024 HD
ATOM     58  H   UNL     1      -2.154  12.156  16.214  0.00  0.00    +0.024 HD
ENDBRANCH  54  55
BRANCH  54  59
ATOM     59  C   UNL     1      -3.533   9.405  17.763  0.00  0.00    -0.052 C 
ATOM     60  H   UNL     1      -3.036   8.988  18.640  0.00  0.00    +0.024 HD
ATOM     61  H   UNL     1      -3.147   8.844  16.903  0.00  0.00    +0.024 HD
ATOM     62  H   UNL     1      -4.601   9.181  17.855  0.00  0.00    +0.024 HD
ENDBRANCH  54  59
BRANCH  54  63
ATOM     63  C   UNL     1      -4.697  11.584  17.725  0.00  0.00    -0.052 C 
ATOM     64  H   UNL     1      -4.707  12.320  18.539  0.00  0.00    +0.024 HD
ATOM     65  H   UNL     1      -4.984  12.109  16.807  0.00  0.00    +0.024 HD
ATOM     66  H   UNL     1      -5.476  10.845  17.940  0.00  0.00    +0.024 HD
ENDBRANCH  54  63
ENDBRANCH  41  54
ENDBRANCH  34  37
ENDBRANCH   1  34
TORSDOF 10
ENDMDL
MODEL 12
REMARK VINA RESULT:    -6.308      1.994      2.814
REMARK INTER + INTRA:          -9.760
REMARK INTER:                  -9.409
REMARK INTRA:                  -0.351
REMARK UNBOUND:                -0.503
REMARK  Name = 
REMARK  10 active torsions:
REMARK  status: ('A' for Active; 'I' for Inactive)
REMARK    1  A    between atoms: C_1  and  C_2
REMARK    2  A    between atoms: C_4  and  C_5
REMARK    3  A    between atoms: N_7  and  C_8
REMARK    4  A    between atoms: C_15  and  N_16
REMARK    5  A    between atoms: N_16  and  C_17
REMARK    6  A    between atoms: C_17  and  C_18
REMARK    7  A    between atoms: C_22  and  C_24
REMARK    8  A    between atoms: C_24  and  C_25
REMARK    9  A    between atoms: C_24  and  C_26
REMARK   10  A    between atoms: C_24  and  C_27
REMARK                            x       y       z     vdW  Elec       q    Type
REMARK                         _______ _______ _______ _____ _____    ______ ____
ROOT
ATOM      1  N   UNL     1       0.718   9.342  17.734  0.00  0.00    -0.343 N 
ATOM      2  H   UNL     1       0.431   9.358  16.761  0.00  0.00    +0.146 HD
ENDROOT
BRANCH   1   8
ATOM      3  C   UNL     1      -1.388  10.500  18.101  0.00  0.00    -0.029 A 
ATOM      4  C   UNL     1      -2.204  11.341  18.884  0.00  0.00    -0.045 A 
ATOM      5  C   UNL     1      -1.729  11.887  20.079  0.00  0.00    +0.037 A 
ATOM      6  C   UNL     1      -0.443  11.565  20.509  0.00  0.00    -0.048 A 
ATOM      7  C   UNL     1       0.373  10.737  19.731  0.00  0.00    -0.040 A 
ATOM      8  C   UNL     1      -0.060  10.221  18.501  0.00  0.00    +0.030 A 
ATOM      9  H   UNL     1      -3.228  11.529  18.570  0.00  0.00    +0.063 HD
ATOM     10  H   UNL     1      -0.069  11.954  21.454  0.00  0.00    +0.063 HD
ATOM     11  H   UNL     1       1.362  10.510  20.120  0.00  0.00    +0.064 HD
BRANCH   3  12
ATOM     12  C   UNL     1      -1.969   9.921  16.836  0.00  0.00    -0.038 C 
ATOM     13  H   UNL     1      -2.363   8.915  17.018  0.00  0.00    +0.028 HD
ATOM     14  H   UNL     1      -1.202   9.879  16.057  0.00  0.00    +0.028 HD
ATOM     15  H   UNL     1      -2.799  10.526  16.458  0.00  0.00    +0.028 HD
ENDBRANCH   3  12
BRANCH   5  16
ATOM     16  C   UNL     1      -2.567  12.774  20.934  0.00  0.00    +0.244 C 
ATOM     17  O   UNL     1      -3.679  13.125  20.556  0.00  0.00    -0.270 OA
ATOM     18  N   UNL     1      -2.031  13.126  22.158  0.00  0.00    -0.308 N 
ATOM     19  H   UNL     1      -1.251  12.586  22.505  0.00  0.00    +0.149 HD
BRANCH  18  20
ATOM     20  C   UNL     1      -2.812  13.872  23.121  0.00  0.00    +0.023 C 
ATOM     21  C   UNL     1      -1.942  14.633  24.113  0.00  0.00    -0.034 C 
ATOM     22  C   UNL     1      -2.899  14.956  25.253  0.00  0.00    -0.051 C 
ATOM     23  C   UNL     1      -3.931  13.827  25.263  0.00  0.00    -0.051 C 
ATOM     24  C   UNL     1      -3.647  12.974  24.030  0.00  0.00    -0.034 C 
ATOM     25  H   UNL     1      -3.469  14.570  22.585  0.00  0.00    +0.050 HD
ATOM     26  H   UNL     1      -1.500  15.533  23.675  0.00  0.00    +0.028 HD
ATOM     27  H   UNL     1      -1.122  14.005  24.480  0.00  0.00    +0.028 HD
ATOM     28  H   UNL     1      -3.402  15.912  25.063  0.00  0.00    +0.027 HD
ATOM     29  H   UNL     1      -2.376  15.044  26.210  0.00  0.00    +0.027 HD
ATOM     30  H   UNL     1      -3.858  13.226  26.175  0.00  0.00    +0.027 HD
ATOM     31  H   UNL     1      -4.943  14.243  25.225  0.00  0.00    +0.027 HD
ATOM     32  H   UNL     1      -3.081  12.080  24.321  0.00  0.00    +0.028 HD
ATOM     33  H   UNL     1      -4.568  12.632  23.546  0.00  0.00    +0.028 HD
ENDBRANCH  18  20
ENDBRANCH   5  16
ENDBRANCH   1   8
BRANCH   1  34
ATOM     34  C   UNL     1       2.167   9.275  17.912  0.00  0.00    +0.012 C 
ATOM     35  H   UNL     1       2.663  10.033  17.294  0.00  0.00    +0.046 HD
ATOM     36  H   UNL     1       2.412   9.469  18.962  0.00  0.00    +0.046 HD
BRANCH  34  37
ATOM     37  C   UNL     1       2.684   7.870  17.552  0.00  0.00    -0.023 C 
ATOM     38  C   UNL     1       4.074   7.913  16.886  0.00  0.00    -0.033 C 
ATOM     39  C   UNL     1       4.618   6.504  16.650  0.00  0.00    +0.015 C 
ATOM     40  N   UNL     1       4.646   5.759  17.903  0.00  0.00    -0.301 N 
ATOM     41  C   UNL     1       5.750   5.434  18.683  0.00  0.00    +0.221 C 
ATOM     42  O   UNL     1       5.578   5.021  19.837  0.00  0.00    -0.275 OA
ATOM     43  C   UNL     1       3.318   5.610  18.501  0.00  0.00    +0.015 C 
ATOM     44  C   UNL     1       2.728   6.985  18.813  0.00  0.00    -0.033 C 
ATOM     45  H   UNL     1       1.982   7.410  16.842  0.00  0.00    +0.032 HD
ATOM     46  H   UNL     1       4.027   8.438  15.926  0.00  0.00    +0.028 HD
ATOM     47  H   UNL     1       4.770   8.470  17.526  0.00  0.00    +0.028 HD
ATOM     48  H   UNL     1       5.589   6.564  16.173  0.00  0.00    +0.046 HD
ATOM     49  H   UNL     1       3.965   5.959  15.956  0.00  0.00    +0.046 HD
ATOM     50  H   UNL     1       2.684   5.078  17.780  0.00  0.00    +0.046 HD
ATOM     51  H   UNL     1       3.341   5.001  19.410  0.00  0.00    +0.046 HD
ATOM     52  H   UNL     1       1.719   6.863  19.223  0.00  0.00    +0.028 HD
ATOM     53  H   UNL     1       3.336   7.474  19.587  0.00  0.00    +0.028 HD
BRANCH  41  54
ATOM     54  C   UNL     1       7.203   5.561  18.144  0.00  0.00    +0.039 C 
BRANCH  54  55
ATOM     55  C   UNL     1       7.511   4.489  17.090  0.00  0.00    -0.052 C 
ATOM     56  H   UNL     1       7.177   4.754  16.086  0.00  0.00    +0.024 HD
ATOM     57  H   UNL     1       8.590   4.302  17.023  0.00  0.00    +0.024 HD
ATOM     58  H   UNL     1       7.023   3.542  17.345  0.00  0.00    +0.024 HD
ENDBRANCH  54  55
BRANCH  54  59
ATOM     59  C   UNL     1       7.511   6.981  17.645  0.00  0.00    -0.052 C 
ATOM     60  H   UNL     1       7.115   7.766  18.290  0.00  0.00    +0.024 HD
ATOM     61  H   UNL     1       7.072   7.155  16.655  0.00  0.00    +0.024 HD
ATOM     62  H   UNL     1       8.591   7.140  17.562  0.00  0.00    +0.024 HD
ENDBRANCH  54  59
BRANCH  54  63
ATOM     63  C   UNL     1       8.171   5.298  19.329  0.00  0.00    -0.052 C 
ATOM     64  H   UNL     1       7.728   5.606  20.283  0.00  0.00    +0.024 HD
ATOM     65  H   UNL     1       8.422   4.234  19.413  0.00  0.00    +0.024 HD
ATOM     66  H   UNL     1       9.110   5.850  19.208  0.00  0.00    +0.024 HD
ENDBRANCH  54  63
ENDBRANCH  41  54
ENDBRANCH  34  37
ENDBRANCH   1  34
TORSDOF 10
ENDMDL
MODEL 13
REMARK VINA RESULT:    -6.265      1.743     10.881
REMARK INTER + INTRA:          -9.698
REMARK INTER:                  -9.534
REMARK INTRA:                  -0.164
REMARK UNBOUND:                -0.503
REMARK  Name = 
REMARK  10 active torsions:
REMARK  status: ('A' for Active; 'I' for Inactive)
REMARK    1  A    between atoms: C_1  and  C_2
REMARK    2  A    between atoms: C_4  and  C_5
REMARK    3  A    between atoms: N_7  and  C_8
REMARK    4  A    between atoms: C_15  and  N_16
REMARK    5  A    between atoms: N_16  and  C_17
REMARK    6  A    between atoms: C_17  and  C_18
REMARK    7  A    between atoms: C_22  and  C_24
REMARK    8  A    between atoms: C_24  and  C_25
REMARK    9  A    between atoms: C_24  and  C_26
REMARK   10  A    between atoms: C_24  and  C_27
REMARK                            x       y       z     vdW  Elec       q    Type
REMARK                         _______ _______ _______ _____ _____    ______ ____
ROOT
ATOM      1  N   UNL     1       1.750   7.793  20.838  0.00  0.00    -0.343 N 
ATOM      2  H   UNL     1       2.401   8.522  21.113  0.00  0.00    +0.146 HD
ENDROOT
BRANCH   1   8
ATOM      3  C   UNL     1       2.668   7.402  18.620  0.00  0.00    -0.029 A 
ATOM      4  C   UNL     1       3.305   6.557  17.690  0.00  0.00    -0.045 A 
ATOM      5  C   UNL     1       3.648   5.246  18.032  0.00  0.00    +0.037 A 
ATOM      6  C   UNL     1       3.381   4.789  19.321  0.00  0.00    -0.048 A 
ATOM      7  C   UNL     1       2.742   5.621  20.246  0.00  0.00    -0.040 A 
ATOM      8  C   UNL     1       2.337   6.922  19.910  0.00  0.00    +0.030 A 
ATOM      9  H   UNL     1       3.567   6.949  16.710  0.00  0.00    +0.063 HD
ATOM     10  H   UNL     1       3.673   3.782  19.615  0.00  0.00    +0.063 HD
ATOM     11  H   UNL     1       2.569   5.217  21.239  0.00  0.00    +0.064 HD
BRANCH   3  12
ATOM     12  C   UNL     1       2.348   8.813  18.199  0.00  0.00    -0.038 C 
ATOM     13  H   UNL     1       2.359   8.902  17.108  0.00  0.00    +0.028 HD
ATOM     14  H   UNL     1       3.076   9.507  18.632  0.00  0.00    +0.028 HD
ATOM     15  H   UNL     1       1.353   9.119  18.536  0.00  0.00    +0.028 HD
ENDBRANCH   3  12
BRANCH   5  16
ATOM     16  C   UNL     1       4.328   4.329  17.075  0.00  0.00    +0.244 C 
ATOM     17  O   UNL     1       4.091   3.126  17.097  0.00  0.00    -0.270 OA
ATOM     18  N   UNL     1       5.187   4.921  16.168  0.00  0.00    -0.308 N 
ATOM     19  H   UNL     1       5.118   5.920  16.035  0.00  0.00    +0.149 HD
BRANCH  18  20
ATOM     20  C   UNL     1       5.797   4.144  15.110  0.00  0.00    +0.023 C 
ATOM     21  C   UNL     1       7.045   4.808  14.544  0.00  0.00    -0.034 C 
ATOM     22  C   UNL     1       7.254   4.100  13.212  0.00  0.00    -0.051 C 
ATOM     23  C   UNL     1       5.860   3.687  12.738  0.00  0.00    -0.051 C 
ATOM     24  C   UNL     1       4.902   4.012  13.881  0.00  0.00    -0.034 C 
ATOM     25  H   UNL     1       6.045   3.147  15.497  0.00  0.00    +0.050 HD
ATOM     26  H   UNL     1       7.909   4.707  15.208  0.00  0.00    +0.028 HD
ATOM     27  H   UNL     1       6.880   5.880  14.377  0.00  0.00    +0.028 HD
ATOM     28  H   UNL     1       7.875   3.208  13.353  0.00  0.00    +0.027 HD
ATOM     29  H   UNL     1       7.761   4.743  12.486  0.00  0.00    +0.027 HD
ATOM     30  H   UNL     1       5.572   4.220  11.827  0.00  0.00    +0.027 HD
ATOM     31  H   UNL     1       5.844   2.616  12.509  0.00  0.00    +0.027 HD
ATOM     32  H   UNL     1       4.385   4.957  13.672  0.00  0.00    +0.028 HD
ATOM     33  H   UNL     1       4.133   3.242  14.005  0.00  0.00    +0.028 HD
ENDBRANCH  18  20
ENDBRANCH   5  16
ENDBRANCH   1   8
BRANCH   1  34
ATOM     34  C   UNL     1       0.384   8.275  20.651  0.00  0.00    +0.012 C 
ATOM     35  H   UNL     1       0.096   8.211  19.595  0.00  0.00    +0.046 HD
ATOM     36  H   UNL     1      -0.303   7.652  21.236  0.00  0.00    +0.046 HD
BRANCH  34  37
ATOM     37  C   UNL     1       0.257   9.726  21.152  0.00  0.00    -0.023 C 
ATOM     38  C   UNL     1      -0.501  10.623  20.152  0.00  0.00    -0.033 C 
ATOM     39  C   UNL     1      -0.719  12.025  20.723  0.00  0.00    +0.015 C 
ATOM     40  N   UNL     1      -1.412  11.943  22.005  0.00  0.00    -0.301 N 
ATOM     41  C   UNL     1      -2.740  12.247  22.281  0.00  0.00    +0.221 C 
ATOM     42  O   UNL     1      -3.234  11.885  23.357  0.00  0.00    -0.275 OA
ATOM     43  C   UNL     1      -0.660  11.186  23.006  0.00  0.00    +0.015 C 
ATOM     44  C   UNL     1      -0.445   9.752  22.524  0.00  0.00    -0.033 C 
ATOM     45  H   UNL     1       1.266  10.141  21.282  0.00  0.00    +0.032 HD
ATOM     46  H   UNL     1       0.054  10.709  19.212  0.00  0.00    +0.028 HD
ATOM     47  H   UNL     1      -1.472  10.170  19.916  0.00  0.00    +0.028 HD
ATOM     48  H   UNL     1      -1.244  12.635  19.998  0.00  0.00    +0.046 HD
ATOM     49  H   UNL     1       0.246  12.515  20.900  0.00  0.00    +0.046 HD
ATOM     50  H   UNL     1       0.305  11.689  23.149  0.00  0.00    +0.046 HD
ATOM     51  H   UNL     1      -1.160  11.180  23.979  0.00  0.00    +0.046 HD
ATOM     52  H   UNL     1       0.153   9.206  23.263  0.00  0.00    +0.028 HD
ATOM     53  H   UNL     1      -1.416   9.243  22.452  0.00  0.00    +0.028 HD
BRANCH  41  54
ATOM     54  C   UNL     1      -3.627  13.042  21.282  0.00  0.00    +0.039 C 
BRANCH  54  55
ATOM     55  C   UNL     1      -3.143  14.491  21.125  0.00  0.00    -0.052 C 
ATOM     56  H   UNL     1      -3.189  14.858  20.098  0.00  0.00    +0.024 HD
ATOM     57  H   UNL     1      -3.747  15.175  21.731  0.00  0.00    +0.024 HD
ATOM     58  H   UNL     1      -2.101  14.588  21.448  0.00  0.00    +0.024 HD
ENDBRANCH  54  55
BRANCH  54  59
ATOM     59  C   UNL     1      -3.768  12.320  19.934  0.00  0.00    -0.052 C 
ATOM     60  H   UNL     1      -4.752  11.879  19.775  0.00  0.00    +0.024 HD
ATOM     61  H   UNL     1      -3.051  11.494  19.852  0.00  0.00    +0.024 HD
ATOM     62  H   UNL     1      -3.579  13.007  19.102  0.00  0.00    +0.024 HD
ENDBRANCH  54  59
BRANCH  54  63
ATOM     63  C   UNL     1      -5.057  13.125  21.882  0.00  0.00    -0.052 C 
ATOM     64  H   UNL     1      -5.781  12.577  21.267  0.00  0.00    +0.024 HD
ATOM     65  H   UNL     1      -5.095  12.696  22.890  0.00  0.00    +0.024 HD
ATOM     66  H   UNL     1      -5.402  14.163  21.952  0.00  0.00    +0.024 HD
ENDBRANCH  54  63
ENDBRANCH  41  54
ENDBRANCH  34  37
ENDBRANCH   1  34
TORSDOF 10
ENDMDL
MODEL 14
REMARK VINA RESULT:    -5.827      1.954     11.114
REMARK INTER + INTRA:          -9.055
REMARK INTER:                  -8.835
REMARK INTRA:                  -0.220
REMARK UNBOUND:                -0.503
REMARK  Name = 
REMARK  10 active torsions:
REMARK  status: ('A' for Active; 'I' for Inactive)
REMARK    1  A    between atoms: C_1  and  C_2
REMARK    2  A    between atoms: C_4  and  C_5
REMARK    3  A    between atoms: N_7  and  C_8
REMARK    4  A    between atoms: C_15  and  N_16
REMARK    5  A    between atoms: N_16  and  C_17
REMARK    6  A    between atoms: C_17  and  C_18
REMARK    7  A    between atoms: C_22  and  C_24
REMARK    8  A    between atoms: C_24  and  C_25
REMARK    9  A    between atoms: C_24  and  C_26
REMARK   10  A    between atoms: C_24  and  C_27
REMARK                            x       y       z     vdW  Elec       q    Type
REMARK                         _______ _______ _______ _____ _____    ______ ____
ROOT
ATOM      1  N   UNL     1       0.234  10.418  20.248  0.00  0.00    -0.343 N 
ATOM      2  H   UNL     1       0.813  11.238  20.395  0.00  0.00    +0.146 HD
ENDROOT
BRANCH   1   8
ATOM      3  C   UNL     1       1.751   9.486  18.591  0.00  0.00    -0.029 A 
ATOM      4  C   UNL     1       2.568   8.433  18.133  0.00  0.00    -0.045 A 
ATOM      5  C   UNL     1       2.676   7.244  18.859  0.00  0.00    +0.037 A 
ATOM      6  C   UNL     1       1.989   7.120  20.065  0.00  0.00    -0.048 A 
ATOM      7  C   UNL     1       1.170   8.159  20.520  0.00  0.00    -0.040 A 
ATOM      8  C   UNL     1       1.001   9.340  19.782  0.00  0.00    +0.030 A 
ATOM      9  H   UNL     1       3.151   8.571  17.226  0.00  0.00    +0.063 HD
ATOM     10  H   UNL     1       2.088   6.214  20.660  0.00  0.00    +0.063 HD
ATOM     11  H   UNL     1       0.667   8.012  21.471  0.00  0.00    +0.064 HD
BRANCH   3  12
ATOM     12  C   UNL     1       1.699  10.753  17.777  0.00  0.00    -0.038 C 
ATOM     13  H   UNL     1       1.926  10.546  16.726  0.00  0.00    +0.028 HD
ATOM     14  H   UNL     1       2.414  11.482  18.171  0.00  0.00    +0.028 HD
ATOM     15  H   UNL     1       0.704  11.210  17.806  0.00  0.00    +0.028 HD
ENDBRANCH   3  12
BRANCH   5  16
ATOM     16  C   UNL     1       3.536   6.115  18.407  0.00  0.00    +0.244 C 
ATOM     17  O   UNL     1       3.468   5.025  18.965  0.00  0.00    -0.270 OA
ATOM     18  N   UNL     1       4.358   6.368  17.326  0.00  0.00    -0.308 N 
ATOM     19  H   UNL     1       4.159   7.182  16.762  0.00  0.00    +0.149 HD
BRANCH  18  20
ATOM     20  C   UNL     1       5.135   5.307  16.722  0.00  0.00    +0.023 C 
ATOM     21  C   UNL     1       6.542   5.214  17.297  0.00  0.00    -0.034 C 
ATOM     22  C   UNL     1       7.297   4.389  16.263  0.00  0.00    -0.051 C 
ATOM     23  C   UNL     1       6.624   4.685  14.922  0.00  0.00    -0.051 C 
ATOM     24  C   UNL     1       5.396   5.536  15.236  0.00  0.00    -0.034 C 
ATOM     25  H   UNL     1       4.608   4.354  16.863  0.00  0.00    +0.050 HD
ATOM     26  H   UNL     1       6.559   4.752  18.289  0.00  0.00    +0.028 HD
ATOM     27  H   UNL     1       6.998   6.208  17.387  0.00  0.00    +0.028 HD
ATOM     28  H   UNL     1       7.205   3.321  16.493  0.00  0.00    +0.027 HD
ATOM     29  H   UNL     1       8.364   4.633  16.250  0.00  0.00    +0.027 HD
ATOM     30  H   UNL     1       7.299   5.214  14.243  0.00  0.00    +0.027 HD
ATOM     31  H   UNL     1       6.335   3.749  14.432  0.00  0.00    +0.027 HD
ATOM     32  H   UNL     1       5.619   6.592  15.038  0.00  0.00    +0.028 HD
ATOM     33  H   UNL     1       4.537   5.263  14.614  0.00  0.00    +0.028 HD
ENDBRANCH  18  20
ENDBRANCH   5  16
ENDBRANCH   1   8
BRANCH   1  34
ATOM     34  C   UNL     1      -1.065  10.724  19.654  0.00  0.00    +0.012 C 
ATOM     35  H   UNL     1      -1.038  10.560  18.570  0.00  0.00    +0.046 HD
ATOM     36  H   UNL     1      -1.825  10.062  20.085  0.00  0.00    +0.046 HD
BRANCH  34  37
ATOM     37  C   UNL     1      -1.464  12.178  19.965  0.00  0.00    -0.023 C 
ATOM     38  C   UNL     1      -2.799  12.264  20.734  0.00  0.00    -0.033 C 
ATOM     39  C   UNL     1      -3.113  13.706  21.136  0.00  0.00    +0.015 C 
ATOM     40  N   UNL     1      -2.009  14.263  21.911  0.00  0.00    -0.301 N 
ATOM     41  C   UNL     1      -1.957  14.499  23.280  0.00  0.00    +0.221 C 
ATOM     42  O   UNL     1      -0.865  14.737  23.813  0.00  0.00    -0.275 OA
ATOM     43  C   UNL     1      -0.752  14.292  21.162  0.00  0.00    +0.015 C 
ATOM     44  C   UNL     1      -0.346  12.873  20.766  0.00  0.00    -0.033 C 
ATOM     45  H   UNL     1      -1.584  12.719  19.016  0.00  0.00    +0.032 HD
ATOM     46  H   UNL     1      -3.623  11.882  20.122  0.00  0.00    +0.028 HD
ATOM     47  H   UNL     1      -2.745  11.638  21.633  0.00  0.00    +0.028 HD
ATOM     48  H   UNL     1      -4.058  13.738  21.665  0.00  0.00    +0.046 HD
ATOM     49  H   UNL     1      -3.236  14.329  20.242  0.00  0.00    +0.046 HD
ATOM     50  H   UNL     1      -0.911  14.907  20.267  0.00  0.00    +0.046 HD
ATOM     51  H   UNL     1       0.055  14.765  21.731  0.00  0.00    +0.046 HD
ATOM     52  H   UNL     1       0.574  12.911  20.172  0.00  0.00    +0.028 HD
ATOM     53  H   UNL     1      -0.125  12.292  21.672  0.00  0.00    +0.028 HD
BRANCH  41  54
ATOM     54  C   UNL     1      -3.234  14.485  24.166  0.00  0.00    +0.039 C 
BRANCH  54  55
ATOM     55  C   UNL     1      -2.933  14.949  25.599  0.00  0.00    -0.052 C 
ATOM     56  H   UNL     1      -3.648  15.681  25.979  0.00  0.00    +0.024 HD
ATOM     57  H   UNL     1      -2.947  14.104  26.297  0.00  0.00    +0.024 HD
ATOM     58  H   UNL     1      -1.944  15.415  25.656  0.00  0.00    +0.024 HD
ENDBRANCH  54  55
BRANCH  54  59
ATOM     59  C   UNL     1      -4.390  15.267  23.525  0.00  0.00    -0.052 C 
ATOM     60  H   UNL     1      -4.089  15.864  22.664  0.00  0.00    +0.024 HD
ATOM     61  H   UNL     1      -4.833  15.971  24.240  0.00  0.00    +0.024 HD
ATOM     62  H   UNL     1      -5.182  14.589  23.191  0.00  0.00    +0.024 HD
ENDBRANCH  54  59
BRANCH  54  63
ATOM     63  C   UNL     1      -3.715  13.012  24.278  0.00  0.00    -0.052 C 
ATOM     64  H   UNL     1      -4.809  12.950  24.306  0.00  0.00    +0.024 HD
ATOM     65  H   UNL     1      -3.375  12.413  23.426  0.00  0.00    +0.024 HD
ATOM     66  H   UNL     1      -3.334  12.536  25.189  0.00  0.00    +0.024 HD
ENDBRANCH  54  63
ENDBRANCH  41  54
ENDBRANCH  34  37
ENDBRANCH   1  34
TORSDOF 10
ENDMDL
MODEL 15
REMARK VINA RESULT:    -5.760      2.235      3.250
REMARK INTER + INTRA:          -8.956
REMARK INTER:                  -8.287
REMARK INTRA:                  -0.669
REMARK UNBOUND:                -0.503
REMARK  Name = 
REMARK  10 active torsions:
REMARK  status: ('A' for Active; 'I' for Inactive)
REMARK    1  A    between atoms: C_1  and  C_2
REMARK    2  A    between atoms: C_4  and  C_5
REMARK    3  A    between atoms: N_7  and  C_8
REMARK    4  A    between atoms: C_15  and  N_16
REMARK    5  A    between atoms: N_16  and  C_17
REMARK    6  A    between atoms: C_17  and  C_18
REMARK    7  A    between atoms: C_22  and  C_24
REMARK    8  A    between atoms: C_24  and  C_25
REMARK    9  A    between atoms: C_24  and  C_26
REMARK   10  A    between atoms: C_24  and  C_27
REMARK                            x       y       z     vdW  Elec       q    Type
REMARK                         _______ _______ _______ _____ _____    ______ ____
ROOT
ATOM      1  N   UNL     1       1.396   9.605  17.763  0.00  0.00    -0.343 N 
ATOM      2  H   UNL     1       1.795  10.132  16.993  0.00  0.00    +0.146 HD
ENDROOT
BRANCH   1   8
ATOM      3  C   UNL     1      -0.866  10.409  18.153  0.00  0.00    -0.029 A 
ATOM      4  C   UNL     1      -1.786  11.157  18.915  0.00  0.00    -0.045 A 
ATOM      5  C   UNL     1      -1.368  11.871  20.041  0.00  0.00    +0.037 A 
ATOM      6  C   UNL     1      -0.030  11.811  20.426  0.00  0.00    -0.048 A 
ATOM      7  C   UNL     1       0.889  11.076  19.668  0.00  0.00    -0.040 A 
ATOM      8  C   UNL     1       0.506  10.396  18.503  0.00  0.00    +0.030 A 
ATOM      9  H   UNL     1      -2.838  11.140  18.641  0.00  0.00    +0.063 HD
ATOM     10  H   UNL     1       0.305  12.333  21.320  0.00  0.00    +0.063 HD
ATOM     11  H   UNL     1       1.916  11.054  20.021  0.00  0.00    +0.064 HD
BRANCH   3  12
ATOM     12  C   UNL     1      -1.383   9.639  16.966  0.00  0.00    -0.038 C 
ATOM     13  H   UNL     1      -2.476   9.574  16.994  0.00  0.00    +0.028 HD
ATOM     14  H   UNL     1      -0.956   8.631  16.957  0.00  0.00    +0.028 HD
ATOM     15  H   UNL     1      -1.116  10.124  16.022  0.00  0.00    +0.028 HD
ENDBRANCH   3  12
BRANCH   5  16
ATOM     16  C   UNL     1      -2.315  12.666  20.872  0.00  0.00    +0.244 C 
ATOM     17  O   UNL     1      -3.429  12.945  20.442  0.00  0.00    -0.270 OA
ATOM     18  N   UNL     1      -1.874  13.018  22.133  0.00  0.00    -0.308 N 
ATOM     19  H   UNL     1      -1.076  12.526  22.508  0.00  0.00    +0.149 HD
BRANCH  18  20
ATOM     20  C   UNL     1      -2.760  13.673  23.071  0.00  0.00    +0.023 C 
ATOM     21  C   UNL     1      -2.005  14.476  24.122  0.00  0.00    -0.034 C 
ATOM     22  C   UNL     1      -3.040  14.692  25.218  0.00  0.00    -0.051 C 
ATOM     23  C   UNL     1      -3.974  13.483  25.152  0.00  0.00    -0.051 C 
ATOM     24  C   UNL     1      -3.562  12.688  23.916  0.00  0.00    -0.034 C 
ATOM     25  H   UNL     1      -3.445  14.329  22.517  0.00  0.00    +0.050 HD
ATOM     26  H   UNL     1      -1.616  15.420  23.727  0.00  0.00    +0.028 HD
ATOM     27  H   UNL     1      -1.154  13.908  24.517  0.00  0.00    +0.028 HD
ATOM     28  H   UNL     1      -3.609  15.609  25.025  0.00  0.00    +0.027 HD
ATOM     29  H   UNL     1      -2.572  14.796  26.203  0.00  0.00    +0.027 HD
ATOM     30  H   UNL     1      -3.897  12.867  26.053  0.00  0.00    +0.027 HD
ATOM     31  H   UNL     1      -5.014  13.816  25.072  0.00  0.00    +0.027 HD
ATOM     32  H   UNL     1      -2.939  11.835  24.216  0.00  0.00    +0.028 HD
ATOM     33  H   UNL     1      -4.427  12.285  23.379  0.00  0.00    +0.028 HD
ENDBRANCH  18  20
ENDBRANCH   5  16
ENDBRANCH   1   8
BRANCH   1  34
ATOM     34  C   UNL     1       2.360   8.736  18.433  0.00  0.00    +0.012 C 
ATOM     35  H   UNL     1       3.299   8.699  17.869  0.00  0.00    +0.046 HD
ATOM     36  H   UNL     1       2.571   9.133  19.433  0.00  0.00    +0.046 HD
BRANCH  34  37
ATOM     37  C   UNL     1       1.778   7.320  18.595  0.00  0.00    -0.023 C 
ATOM     38  C   UNL     1       2.548   6.274  17.763  0.00  0.00    -0.033 C 
ATOM     39  C   UNL     1       2.030   4.861  18.033  0.00  0.00    +0.015 C 
ATOM     40  N   UNL     1       2.095   4.566  19.460  0.00  0.00    -0.301 N 
ATOM     41  C   UNL     1       2.998   3.743  20.124  0.00  0.00    +0.221 C 
ATOM     42  O   UNL     1       3.075   3.799  21.358  0.00  0.00    -0.275 OA
ATOM     43  C   UNL     1       1.283   5.481  20.264  0.00  0.00    +0.015 C 
ATOM     44  C   UNL     1       1.777   6.915  20.082  0.00  0.00    -0.033 C 
ATOM     45  H   UNL     1       0.735   7.328  18.248  0.00  0.00    +0.032 HD
ATOM     46  H   UNL     1       2.452   6.486  16.692  0.00  0.00    +0.028 HD
ATOM     47  H   UNL     1       3.616   6.324  18.009  0.00  0.00    +0.028 HD
ATOM     48  H   UNL     1       2.581   4.150  17.429  0.00  0.00    +0.046 HD
ATOM     49  H   UNL     1       0.979   4.780  17.727  0.00  0.00    +0.046 HD
ATOM     50  H   UNL     1       0.243   5.390  19.924  0.00  0.00    +0.046 HD
ATOM     51  H   UNL     1       1.293   5.216  21.325  0.00  0.00    +0.046 HD
ATOM     52  H   UNL     1       1.137   7.595  20.656  0.00  0.00    +0.028 HD
ATOM     53  H   UNL     1       2.793   7.004  20.490  0.00  0.00    +0.028 HD
BRANCH  41  54
ATOM     54  C   UNL     1       3.910   2.741  19.363  0.00  0.00    +0.039 C 
BRANCH  54  55
ATOM     55  C   UNL     1       3.089   1.759  18.516  0.00  0.00    -0.052 C 
ATOM     56  H   UNL     1       3.537   1.538  17.545  0.00  0.00    +0.024 HD
ATOM     57  H   UNL     1       2.969   0.799  19.032  0.00  0.00    +0.024 HD
ATOM     58  H   UNL     1       2.089   2.159  18.318  0.00  0.00    +0.024 HD
ENDBRANCH  54  55
BRANCH  54  59
ATOM     59  C   UNL     1       4.997   3.455  18.545  0.00  0.00    -0.052 C 
ATOM     60  H   UNL     1       5.981   3.436  19.015  0.00  0.00    +0.024 HD
ATOM     61  H   UNL     1       4.752   4.515  18.404  0.00  0.00    +0.024 HD
ATOM     62  H   UNL     1       5.100   3.003  17.553  0.00  0.00    +0.024 HD
ENDBRANCH  54  59
BRANCH  54  63
ATOM     63  C   UNL     1       4.657   1.884  20.421  0.00  0.00    -0.052 C 
ATOM     64  H   UNL     1       4.817   2.445  21.349  0.00  0.00    +0.024 HD
ATOM     65  H   UNL     1       4.091   0.981  20.678  0.00  0.00    +0.024 HD
ATOM     66  H   UNL     1       5.639   1.564  20.055  0.00  0.00    +0.024 HD
ENDBRANCH  54  63
ENDBRANCH  41  54
ENDBRANCH  34  37
ENDBRANCH   1  34
TORSDOF 10
ENDMDL
MODEL 16
REMARK VINA RESULT:    -5.754      4.089     10.015
REMARK INTER + INTRA:          -8.948
REMARK INTER:                  -8.502
REMARK INTRA:                  -0.446
REMARK UNBOUND:                -0.503
REMARK  Name = 
REMARK  10 active torsions:
REMARK  status: ('A' for Active; 'I' for Inactive)
REMARK    1  A    between atoms: C_1  and  C_2
REMARK    2  A    between atoms: C_4  and  C_5
REMARK    3  A    between atoms: N_7  and  C_8
REMARK    4  A    between atoms: C_15  and  N_16
REMARK    5  A    between atoms: N_16  and  C_17
REMARK    6  A    between atoms: C_17  and  C_18
REMARK    7  A    between atoms: C_22  and  C_24
REMARK    8  A    between atoms: C_24  and  C_25
REMARK    9  A    between atoms: C_24  and  C_26
REMARK   10  A    between atoms: C_24  and  C_27
REMARK                            x       y       z     vdW  Elec       q    Type
REMARK                         _______ _______ _______ _____ _____    ______ ____
ROOT
ATOM      1  N   UNL     1       0.710  11.277  20.011  0.00  0.00    -0.343 N 
ATOM      2  H   UNL     1       1.127  11.569  20.889  0.00  0.00    +0.146 HD
ENDROOT
BRANCH   1   8
ATOM      3  C   UNL     1       1.397   8.969  20.354  0.00  0.00    -0.029 A 
ATOM      4  C   UNL     1       1.966   7.776  19.868  0.00  0.00    -0.045 A 
ATOM      5  C   UNL     1       2.441   7.691  18.557  0.00  0.00    +0.037 A 
ATOM      6  C   UNL     1       2.317   8.797  17.717  0.00  0.00    -0.048 A 
ATOM      7  C   UNL     1       1.759   9.987  18.197  0.00  0.00    -0.040 A 
ATOM      8  C   UNL     1       1.326  10.115  19.526  0.00  0.00    +0.030 A 
ATOM      9  H   UNL     1       1.995   6.901  20.514  0.00  0.00    +0.063 HD
ATOM     10  H   UNL     1       2.649   8.738  16.683  0.00  0.00    +0.063 HD
ATOM     11  H   UNL     1       1.676  10.813  17.496  0.00  0.00    +0.064 HD
BRANCH   3  12
ATOM     12  C   UNL     1       0.878   8.988  21.769  0.00  0.00    -0.038 C 
ATOM     13  H   UNL     1       1.613   9.441  22.443  0.00  0.00    +0.028 HD
ATOM     14  H   UNL     1       0.655   7.969  22.100  0.00  0.00    +0.028 HD
ATOM     15  H   UNL     1      -0.040   9.577  21.855  0.00  0.00    +0.028 HD
ENDBRANCH   3  12
BRANCH   5  16
ATOM     16  C   UNL     1       3.042   6.443  18.010  0.00  0.00    +0.244 C 
ATOM     17  O   UNL     1       2.436   5.380  18.089  0.00  0.00    -0.270 OA
ATOM     18  N   UNL     1       4.272   6.576  17.394  0.00  0.00    -0.308 N 
ATOM     19  H   UNL     1       4.569   7.505  17.129  0.00  0.00    +0.149 HD
BRANCH  18  20
ATOM     20  C   UNL     1       4.883   5.456  16.712  0.00  0.00    +0.023 C 
ATOM     21  C   UNL     1       6.194   5.026  17.357  0.00  0.00    -0.034 C 
ATOM     22  C   UNL     1       6.865   4.187  16.277  0.00  0.00    -0.051 C 
ATOM     23  C   UNL     1       6.375   4.755  14.944  0.00  0.00    -0.051 C 
ATOM     24  C   UNL     1       5.307   5.791  15.285  0.00  0.00    -0.034 C 
ATOM     25  H   UNL     1       4.176   4.616  16.701  0.00  0.00    +0.050 HD
ATOM     26  H   UNL     1       6.040   4.464  18.282  0.00  0.00    +0.028 HD
ATOM     27  H   UNL     1       6.819   5.895  17.597  0.00  0.00    +0.028 HD
ATOM     28  H   UNL     1       6.555   3.139  16.367  0.00  0.00    +0.027 HD
ATOM     29  H   UNL     1       7.956   4.216  16.360  0.00  0.00    +0.027 HD
ATOM     30  H   UNL     1       7.193   5.212  14.378  0.00  0.00    +0.027 HD
ATOM     31  H   UNL     1       5.958   3.954  14.325  0.00  0.00    +0.027 HD
ATOM     32  H   UNL     1       5.740   6.798  15.233  0.00  0.00    +0.028 HD
ATOM     33  H   UNL     1       4.468   5.762  14.582  0.00  0.00    +0.028 HD
ENDBRANCH  18  20
ENDBRANCH   5  16
ENDBRANCH   1   8
BRANCH   1  34
ATOM     34  C   UNL     1       0.402  12.390  19.116  0.00  0.00    +0.012 C 
ATOM     35  H   UNL     1       0.729  12.162  18.095  0.00  0.00    +0.046 HD
ATOM     36  H   UNL     1      -0.682  12.555  19.104  0.00  0.00    +0.046 HD
BRANCH  34  37
ATOM     37  C   UNL     1       1.076  13.680  19.618  0.00  0.00    -0.023 C 
ATOM     38  C   UNL     1       1.537  13.564  21.086  0.00  0.00    -0.033 C 
ATOM     39  C   UNL     1       2.309  14.810  21.523  0.00  0.00    +0.015 C 
ATOM     40  N   UNL     1       3.433  15.045  20.623  0.00  0.00    -0.301 N 
ATOM     41  C   UNL     1       4.784  14.825  20.865  0.00  0.00    +0.221 C 
ATOM     42  O   UNL     1       5.580  14.836  19.917  0.00  0.00    -0.275 OA
ATOM     43  C   UNL     1       3.012  15.267  19.239  0.00  0.00    +0.015 C 
ATOM     44  C   UNL     1       2.273  14.037  18.715  0.00  0.00    -0.033 C 
ATOM     45  H   UNL     1       0.349  14.502  19.555  0.00  0.00    +0.032 HD
ATOM     46  H   UNL     1       0.677  13.431  21.752  0.00  0.00    +0.028 HD
ATOM     47  H   UNL     1       2.176  12.680  21.201  0.00  0.00    +0.028 HD
ATOM     48  H   UNL     1       2.611  14.705  22.558  0.00  0.00    +0.046 HD
ATOM     49  H   UNL     1       1.659  15.692  21.477  0.00  0.00    +0.046 HD
ATOM     50  H   UNL     1       2.351  16.143  19.227  0.00  0.00    +0.046 HD
ATOM     51  H   UNL     1       3.857  15.500  18.584  0.00  0.00    +0.046 HD
ATOM     52  H   UNL     1       1.927  14.229  17.692  0.00  0.00    +0.028 HD
ATOM     53  H   UNL     1       2.967  13.187  18.669  0.00  0.00    +0.028 HD
BRANCH  41  54
ATOM     54  C   UNL     1       5.333  14.574  22.298  0.00  0.00    +0.039 C 
BRANCH  54  55
ATOM     55  C   UNL     1       4.461  15.252  23.364  0.00  0.00    -0.052 C 
ATOM     56  H   UNL     1       4.980  16.035  23.919  0.00  0.00    +0.024 HD
ATOM     57  H   UNL     1       3.579  15.719  22.912  0.00  0.00    +0.024 HD
ATOM     58  H   UNL     1       4.112  14.521  24.102  0.00  0.00    +0.024 HD
ENDBRANCH  54  55
BRANCH  54  59
ATOM     59  C   UNL     1       5.550  13.080  22.580  0.00  0.00    -0.052 C 
ATOM     60  H   UNL     1       5.309  12.789  23.603  0.00  0.00    +0.024 HD
ATOM     61  H   UNL     1       6.598  12.797  22.425  0.00  0.00    +0.024 HD
ATOM     62  H   UNL     1       4.937  12.463  21.912  0.00  0.00    +0.024 HD
ENDBRANCH  54  59
BRANCH  54  63
ATOM     63  C   UNL     1       6.733  15.241  22.391  0.00  0.00    -0.052 C 
ATOM     64  H   UNL     1       7.352  14.993  21.521  0.00  0.00    +0.024 HD
ATOM     65  H   UNL     1       6.654  16.333  22.437  0.00  0.00    +0.024 HD
ATOM     66  H   UNL     1       7.273  14.911  23.286  0.00  0.00    +0.024 HD
ENDBRANCH  54  63
ENDBRANCH  41  54
ENDBRANCH  34  37
ENDBRANCH   1  34
TORSDOF 10
ENDMDL
MODEL 17
REMARK VINA RESULT:    -5.593      1.261      1.746
REMARK INTER + INTRA:          -8.711
REMARK INTER:                  -8.358
REMARK INTRA:                  -0.353
REMARK UNBOUND:                -0.503
REMARK  Name = 
REMARK  10 active torsions:
REMARK  status: ('A' for Active; 'I' for Inactive)
REMARK    1  A    between atoms: C_1  and  C_2
REMARK    2  A    between atoms: C_4  and  C_5
REMARK    3  A    between atoms: N_7  and  C_8
REMARK    4  A    between atoms: C_15  and  N_16
REMARK    5  A    between atoms: N_16  and  C_17
REMARK    6  A    between atoms: C_17  and  C_18
REMARK    7  A    between atoms: C_22  and  C_24
REMARK    8  A    between atoms: C_24  and  C_25
REMARK    9  A    between atoms: C_24  and  C_26
REMARK   10  A    between atoms: C_24  and  C_27
REMARK                            x       y       z     vdW  Elec       q    Type
REMARK                         _______ _______ _______ _____ _____    ______ ____
ROOT
ATOM      1  N   UNL     1       1.997   7.579  20.077  0.00  0.00    -0.343 N 
ATOM      2  H   UNL     1       2.945   7.718  20.414  0.00  0.00    +0.146 HD
ENDROOT
BRANCH   1   8
ATOM      3  C   UNL     1       1.216   9.445  21.426  0.00  0.00    -0.029 A 
ATOM      4  C   UNL     1       0.511  10.660  21.546  0.00  0.00    -0.045 A 
ATOM      5  C   UNL     1      -0.140  11.221  20.445  0.00  0.00    +0.037 A 
ATOM      6  C   UNL     1      -0.058  10.581  19.210  0.00  0.00    -0.048 A 
ATOM      7  C   UNL     1       0.634   9.371  19.086  0.00  0.00    -0.040 A 
ATOM      8  C   UNL     1       1.248   8.759  20.189  0.00  0.00    +0.030 A 
ATOM      9  H   UNL     1       0.513  11.181  22.500  0.00  0.00    +0.063 HD
ATOM     10  H   UNL     1      -0.530  11.022  18.334  0.00  0.00    +0.063 HD
ATOM     11  H   UNL     1       0.675   8.923  18.098  0.00  0.00    +0.064 HD
BRANCH   3  12
ATOM     12  C   UNL     1       1.920   8.906  22.645  0.00  0.00    -0.038 C 
ATOM     13  H   UNL     1       1.903   7.811  22.646  0.00  0.00    +0.028 HD
ATOM     14  H   UNL     1       1.439   9.282  23.553  0.00  0.00    +0.028 HD
ATOM     15  H   UNL     1       2.971   9.210  22.671  0.00  0.00    +0.028 HD
ENDBRANCH   3  12
BRANCH   5  16
ATOM     16  C   UNL     1      -0.887  12.506  20.536  0.00  0.00    +0.244 C 
ATOM     17  O   UNL     1      -0.521  13.481  19.889  0.00  0.00    -0.270 OA
ATOM     18  N   UNL     1      -2.007  12.505  21.346  0.00  0.00    -0.308 N 
ATOM     19  H   UNL     1      -2.392  11.612  21.619  0.00  0.00    +0.149 HD
BRANCH  18  20
ATOM     20  C   UNL     1      -2.881  13.657  21.403  0.00  0.00    +0.023 C 
ATOM     21  C   UNL     1      -2.881  14.321  22.774  0.00  0.00    -0.034 C 
ATOM     22  C   UNL     1      -4.139  15.179  22.755  0.00  0.00    -0.051 C 
ATOM     23  C   UNL     1      -5.121  14.457  21.831  0.00  0.00    -0.051 C 
ATOM     24  C   UNL     1      -4.350  13.297  21.207  0.00  0.00    -0.034 C 
ATOM     25  H   UNL     1      -2.570  14.379  20.636  0.00  0.00    +0.050 HD
ATOM     26  H   UNL     1      -1.978  14.914  22.951  0.00  0.00    +0.028 HD
ATOM     27  H   UNL     1      -2.949  13.575  23.574  0.00  0.00    +0.028 HD
ATOM     28  H   UNL     1      -3.913  16.172  22.348  0.00  0.00    +0.027 HD
ATOM     29  H   UNL     1      -4.549  15.320  23.760  0.00  0.00    +0.027 HD
ATOM     30  H   UNL     1      -5.994  14.092  22.380  0.00  0.00    +0.027 HD
ATOM     31  H   UNL     1      -5.484  15.144  21.058  0.00  0.00    +0.027 HD
ATOM     32  H   UNL     1      -4.596  12.365  21.732  0.00  0.00    +0.028 HD
ATOM     33  H   UNL     1      -4.607  13.152  20.152  0.00  0.00    +0.028 HD
ENDBRANCH  18  20
ENDBRANCH   5  16
ENDBRANCH   1   8
BRANCH   1  34
ATOM     34  C   UNL     1       1.427   6.291  20.462  0.00  0.00    +0.012 C 
ATOM     35  H   UNL     1       1.586   6.107  21.531  0.00  0.00    +0.046 HD
ATOM     36  H   UNL     1       0.348   6.300  20.268  0.00  0.00    +0.046 HD
BRANCH  34  37
ATOM     37  C   UNL     1       2.053   5.159  19.627  0.00  0.00    -0.023 C 
ATOM     38  C   UNL     1       2.260   5.568  18.154  0.00  0.00    -0.033 C 
ATOM     39  C   UNL     1       2.992   4.474  17.374  0.00  0.00    +0.015 C 
ATOM     40  N   UNL     1       4.257   4.153  18.026  0.00  0.00    -0.301 N 
ATOM     41  C   UNL     1       5.541   4.500  17.623  0.00  0.00    +0.221 C 
ATOM     42  O   UNL     1       6.482   4.368  18.416  0.00  0.00    -0.275 OA
ATOM     43  C   UNL     1       4.078   3.658  19.393  0.00  0.00    +0.015 C 
ATOM     44  C   UNL     1       3.394   4.722  20.249  0.00  0.00    -0.033 C 
ATOM     45  H   UNL     1       1.375   4.294  19.646  0.00  0.00    +0.032 HD
ATOM     46  H   UNL     1       1.298   5.763  17.668  0.00  0.00    +0.028 HD
ATOM     47  H   UNL     1       2.841   6.498  18.110  0.00  0.00    +0.028 HD
ATOM     48  H   UNL     1       3.115   4.784  16.344  0.00  0.00    +0.046 HD
ATOM     49  H   UNL     1       2.388   3.558  17.354  0.00  0.00    +0.046 HD
ATOM     50  H   UNL     1       3.459   2.753  19.341  0.00  0.00    +0.046 HD
ATOM     51  H   UNL     1       5.027   3.365  19.852  0.00  0.00    +0.046 HD
ATOM     52  H   UNL     1       3.229   4.326  21.257  0.00  0.00    +0.028 HD
ATOM     53  H   UNL     1       4.057   5.593  20.346  0.00  0.00    +0.028 HD
BRANCH  41  54
ATOM     54  C   UNL     1       5.836   5.041  16.196  0.00  0.00    +0.039 C 
BRANCH  54  55
ATOM     55  C   UNL     1       5.695   3.941  15.134  0.00  0.00    -0.052 C 
ATOM     56  H   UNL     1       5.495   2.953  15.552  0.00  0.00    +0.024 HD
ATOM     57  H   UNL     1       4.871   4.164  14.445  0.00  0.00    +0.024 HD
ATOM     58  H   UNL     1       6.612   3.854  14.542  0.00  0.00    +0.024 HD
ENDBRANCH  54  55
BRANCH  54  59
ATOM     59  C   UNL     1       5.001   6.287  15.866  0.00  0.00    -0.052 C 
ATOM     60  H   UNL     1       4.279   6.129  15.064  0.00  0.00    +0.024 HD
ATOM     61  H   UNL     1       5.640   7.114  15.536  0.00  0.00    +0.024 HD
ATOM     62  H   UNL     1       4.443   6.627  16.745  0.00  0.00    +0.024 HD
ENDBRANCH  54  59
BRANCH  54  63
ATOM     63  C   UNL     1       7.322   5.492  16.159  0.00  0.00    -0.052 C 
ATOM     64  H   UNL     1       7.820   5.154  15.243  0.00  0.00    +0.024 HD
ATOM     65  H   UNL     1       7.411   6.584  16.196  0.00  0.00    +0.024 HD
ATOM     66  H   UNL     1       7.883   5.086  17.009  0.00  0.00    +0.024 HD
ENDBRANCH  54  63
ENDBRANCH  41  54
ENDBRANCH  34  37
ENDBRANCH   1  34
TORSDOF 10
ENDMDL
MODEL 18
REMARK VINA RESULT:    -5.403      6.912     11.557
REMARK INTER + INTRA:          -8.433
REMARK INTER:                  -8.685
REMARK INTRA:                   0.252
REMARK UNBOUND:                -0.503
REMARK  Name = 
REMARK  10 active torsions:
REMARK  status: ('A' for Active; 'I' for Inactive)
REMARK    1  A    between atoms: C_1  and  C_2
REMARK    2  A    between atoms: C_4  and  C_5
REMARK    3  A    between atoms: N_7  and  C_8
REMARK    4  A    between atoms: C_15  and  N_16
REMARK    5  A    between atoms: N_16  and  C_17
REMARK    6  A    between atoms: C_17  and  C_18
REMARK    7  A    between atoms: C_22  and  C_24
REMARK    8  A    between atoms: C_24  and  C_25
REMARK    9  A    between atoms: C_24  and  C_26
REMARK   10  A    between atoms: C_24  and  C_27
REMARK                            x       y       z     vdW  Elec       q    Type
REMARK                         _______ _______ _______ _____ _____    ______ ____
ROOT
ATOM      1  N   UNL     1       9.805  13.245  19.063  0.00  0.00    -0.343 N 
ATOM      2  H   UNL     1       9.579  13.846  18.276  0.00  0.00    +0.146 HD
ENDROOT
BRANCH   1   8
ATOM      3  C   UNL     1       8.355  11.718  17.847  0.00  0.00    -0.029 A 
ATOM      4  C   UNL     1       7.893  10.412  17.589  0.00  0.00    -0.045 A 
ATOM      5  C   UNL     1       8.399   9.320  18.299  0.00  0.00    +0.037 A 
ATOM      6  C   UNL     1       9.396   9.532  19.250  0.00  0.00    -0.048 A 
ATOM      7  C   UNL     1       9.853  10.828  19.515  0.00  0.00    -0.040 A 
ATOM      8  C   UNL     1       9.321  11.946  18.856  0.00  0.00    +0.030 A 
ATOM      9  H   UNL     1       7.164  10.254  16.798  0.00  0.00    +0.063 HD
ATOM     10  H   UNL     1       9.826   8.690  19.787  0.00  0.00    +0.063 HD
ATOM     11  H   UNL     1      10.639  10.933  20.258  0.00  0.00    +0.064 HD
BRANCH   3  12
ATOM     12  C   UNL     1       7.789  12.849  17.028  0.00  0.00    -0.038 C 
ATOM     13  H   UNL     1       6.705  12.738  16.913  0.00  0.00    +0.028 HD
ATOM     14  H   UNL     1       8.263  12.872  16.043  0.00  0.00    +0.028 HD
ATOM     15  H   UNL     1       7.961  13.819  17.506  0.00  0.00    +0.028 HD
ENDBRANCH   3  12
BRANCH   5  16
ATOM     16  C   UNL     1       7.938   7.927  18.046  0.00  0.00    +0.244 C 
ATOM     17  O   UNL     1       8.352   7.004  18.739  0.00  0.00    -0.270 OA
ATOM     18  N   UNL     1       7.013   7.764  17.033  0.00  0.00    -0.308 N 
ATOM     19  H   UNL     1       6.525   8.585  16.703  0.00  0.00    +0.149 HD
BRANCH  18  20
ATOM     20  C   UNL     1       6.398   6.477  16.790  0.00  0.00    +0.023 C 
ATOM     21  C   UNL     1       7.388   5.449  16.259  0.00  0.00    -0.034 C 
ATOM     22  C   UNL     1       6.496   4.365  15.668  0.00  0.00    -0.051 C 
ATOM     23  C   UNL     1       5.226   5.080  15.204  0.00  0.00    -0.051 C 
ATOM     24  C   UNL     1       5.341   6.522  15.691  0.00  0.00    -0.034 C 
ATOM     25  H   UNL     1       5.946   6.116  17.724  0.00  0.00    +0.050 HD
ATOM     26  H   UNL     1       8.048   5.061  17.041  0.00  0.00    +0.028 HD
ATOM     27  H   UNL     1       8.022   5.881  15.475  0.00  0.00    +0.028 HD
ATOM     28  H   UNL     1       6.243   3.625  16.436  0.00  0.00    +0.027 HD
ATOM     29  H   UNL     1       6.991   3.834  14.849  0.00  0.00    +0.027 HD
ATOM     30  H   UNL     1       5.120   5.045  14.116  0.00  0.00    +0.027 HD
ATOM     31  H   UNL     1       4.343   4.593  15.634  0.00  0.00    +0.027 HD
ATOM     32  H   UNL     1       5.667   7.165  14.863  0.00  0.00    +0.028 HD
ATOM     33  H   UNL     1       4.383   6.914  16.048  0.00  0.00    +0.028 HD
ENDBRANCH  18  20
ENDBRANCH   5  16
ENDBRANCH   1   8
BRANCH   1  34
ATOM     34  C   UNL     1       9.652  13.904  20.358  0.00  0.00    +0.012 C 
ATOM     35  H   UNL     1      10.467  13.614  21.032  0.00  0.00    +0.046 HD
ATOM     36  H   UNL     1       9.688  14.991  20.218  0.00  0.00    +0.046 HD
BRANCH  34  37
ATOM     37  C   UNL     1       8.290  13.547  20.981  0.00  0.00    -0.023 C 
ATOM     38  C   UNL     1       8.423  12.517  22.121  0.00  0.00    -0.033 C 
ATOM     39  C   UNL     1       7.076  12.270  22.802  0.00  0.00    +0.015 C 
ATOM     40  N   UNL     1       6.515  13.530  23.278  0.00  0.00    -0.301 N 
ATOM     41  C   UNL     1       6.442  13.995  24.586  0.00  0.00    +0.221 C 
ATOM     42  O   UNL     1       6.169  15.184  24.793  0.00  0.00    -0.275 OA
ATOM     43  C   UNL     1       6.278  14.487  22.196  0.00  0.00    +0.015 C 
ATOM     44  C   UNL     1       7.595  14.822  21.497  0.00  0.00    -0.033 C 
ATOM     45  H   UNL     1       7.652  13.108  20.200  0.00  0.00    +0.032 HD
ATOM     46  H   UNL     1       8.804  11.564  21.739  0.00  0.00    +0.028 HD
ATOM     47  H   UNL     1       9.145  12.881  22.862  0.00  0.00    +0.028 HD
ATOM     48  H   UNL     1       7.197  11.537  23.591  0.00  0.00    +0.046 HD
ATOM     49  H   UNL     1       6.364  11.841  22.086  0.00  0.00    +0.046 HD
ATOM     50  H   UNL     1       5.578  14.024  21.489  0.00  0.00    +0.046 HD
ATOM     51  H   UNL     1       5.804  15.405  22.556  0.00  0.00    +0.046 HD
ATOM     52  H   UNL     1       7.400  15.507  20.664  0.00  0.00    +0.028 HD
ATOM     53  H   UNL     1       8.257  15.345  22.200  0.00  0.00    +0.028 HD
BRANCH  41  54
ATOM     54  C   UNL     1       6.683  13.061  25.806  0.00  0.00    +0.039 C 
BRANCH  54  55
ATOM     55  C   UNL     1       6.707  11.583  25.390  0.00  0.00    -0.052 C 
ATOM     56  H   UNL     1       5.939  10.980  25.878  0.00  0.00    +0.024 HD
ATOM     57  H   UNL     1       6.553  11.476  24.310  0.00  0.00    +0.024 HD
ATOM     58  H   UNL     1       7.671  11.127  25.638  0.00  0.00    +0.024 HD
ENDBRANCH  54  55
BRANCH  54  59
ATOM     59  C   UNL     1       7.929  13.466  26.606  0.00  0.00    -0.052 C 
ATOM     60  H   UNL     1       7.783  13.438  27.687  0.00  0.00    +0.024 HD
ATOM     61  H   UNL     1       8.233  14.494  26.371  0.00  0.00    +0.024 HD
ATOM     62  H   UNL     1       8.774  12.809  26.373  0.00  0.00    +0.024 HD
ENDBRANCH  54  59
BRANCH  54  63
ATOM     63  C   UNL     1       5.476  13.222  26.770  0.00  0.00    -0.052 C 
ATOM     64  H   UNL     1       4.613  12.636  26.432  0.00  0.00    +0.024 HD
ATOM     65  H   UNL     1       5.724  12.885  27.783  0.00  0.00    +0.024 HD
ATOM     66  H   UNL     1       5.158  14.269  26.840  0.00  0.00    +0.024 HD
ENDBRANCH  54  63
ENDBRANCH  41  54
ENDBRANCH  34  37
ENDBRANCH   1  34
TORSDOF 10
ENDMDL
MODEL 19
REMARK VINA RESULT:    -5.310      2.470      3.935
REMARK INTER + INTRA:          -8.296
REMARK INTER:                  -7.880
REMARK INTRA:                  -0.417
REMARK UNBOUND:                -0.503
REMARK  Name = 
REMARK  10 active torsions:
REMARK  status: ('A' for Active; 'I' for Inactive)
REMARK    1  A    between atoms: C_1  and  C_2
REMARK    2  A    between atoms: C_4  and  C_5
REMARK    3  A    between atoms: N_7  and  C_8
REMARK    4  A    between atoms: C_15  and  N_16
REMARK    5  A    between atoms: N_16  and  C_17
REMARK    6  A    between atoms: C_17  and  C_18
REMARK    7  A    between atoms: C_22  and  C_24
REMARK    8  A    between atoms: C_24  and  C_25
REMARK    9  A    between atoms: C_24  and  C_26
REMARK   10  A    between atoms: C_24  and  C_27
REMARK                            x       y       z     vdW  Elec       q    Type
REMARK                         _______ _______ _______ _____ _____    ______ ____
ROOT
ATOM      1  N   UNL     1       2.034   8.625  19.188  0.00  0.00    -0.343 N 
ATOM      2  H   UNL     1       2.088   7.868  19.861  0.00  0.00    +0.146 HD
ENDROOT
BRANCH   1   8
ATOM      3  C   UNL     1       0.572   9.663  20.832  0.00  0.00    -0.029 A 
ATOM      4  C   UNL     1      -0.466  10.559  21.155  0.00  0.00    -0.045 A 
ATOM      5  C   UNL     1      -1.103  11.305  20.160  0.00  0.00    +0.037 A 
ATOM      6  C   UNL     1      -0.677  11.178  18.839  0.00  0.00    -0.048 A 
ATOM      7  C   UNL     1       0.348  10.284  18.512  0.00  0.00    -0.040 A 
ATOM      8  C   UNL     1       0.965   9.483  19.484  0.00  0.00    +0.030 A 
ATOM      9  H   UNL     1      -0.741  10.697  22.198  0.00  0.00    +0.063 HD
ATOM     10  H   UNL     1      -1.138  11.777  18.057  0.00  0.00    +0.063 HD
ATOM     11  H   UNL     1       0.647  10.235  17.468  0.00  0.00    +0.064 HD
BRANCH   3  12
ATOM     12  C   UNL     1       1.238   8.907  21.953  0.00  0.00    -0.038 C 
ATOM     13  H   UNL     1       0.526   8.231  22.438  0.00  0.00    +0.028 HD
ATOM     14  H   UNL     1       1.639   9.609  22.691  0.00  0.00    +0.028 HD
ATOM     15  H   UNL     1       2.067   8.292  21.589  0.00  0.00    +0.028 HD
ENDBRANCH   3  12
BRANCH   5  16
ATOM     16  C   UNL     1      -2.198  12.266  20.469  0.00  0.00    +0.244 C 
ATOM     17  O   UNL     1      -3.062  12.507  19.632  0.00  0.00    -0.270 OA
ATOM     18  N   UNL     1      -2.189  12.816  21.736  0.00  0.00    -0.308 N 
ATOM     19  H   UNL     1      -1.621  12.368  22.441  0.00  0.00    +0.149 HD
BRANCH  18  20
ATOM     20  C   UNL     1      -3.278  13.656  22.187  0.00  0.00    +0.023 C 
ATOM     21  C   UNL     1      -2.841  14.659  23.245  0.00  0.00    -0.034 C 
ATOM     22  C   UNL     1      -4.152  15.103  23.881  0.00  0.00    -0.051 C 
ATOM     23  C   UNL     1      -5.100  13.910  23.755  0.00  0.00    -0.051 C 
ATOM     24  C   UNL     1      -4.374  12.872  22.903  0.00  0.00    -0.034 C 
ATOM     25  H   UNL     1      -3.704  14.183  21.323  0.00  0.00    +0.050 HD
ATOM     26  H   UNL     1      -2.281  15.498  22.820  0.00  0.00    +0.028 HD
ATOM     27  H   UNL     1      -2.202  14.184  23.999  0.00  0.00    +0.028 HD
ATOM     28  H   UNL     1      -4.564  15.961  23.335  0.00  0.00    +0.027 HD
ATOM     29  H   UNL     1      -4.014  15.411  24.922  0.00  0.00    +0.027 HD
ATOM     30  H   UNL     1      -5.357  13.496  24.735  0.00  0.00    +0.027 HD
ATOM     31  H   UNL     1      -6.035  14.222  23.277  0.00  0.00    +0.027 HD
ATOM     32  H   UNL     1      -3.941  12.100  23.551  0.00  0.00    +0.028 HD
ATOM     33  H   UNL     1      -5.051  12.367  22.205  0.00  0.00    +0.028 HD
ENDBRANCH  18  20
ENDBRANCH   5  16
ENDBRANCH   1   8
BRANCH   1  34
ATOM     34  C   UNL     1       2.297   8.202  17.815  0.00  0.00    +0.012 C 
ATOM     35  H   UNL     1       1.411   8.364  17.189  0.00  0.00    +0.046 HD
ATOM     36  H   UNL     1       3.123   8.794  17.405  0.00  0.00    +0.046 HD
BRANCH  34  37
ATOM     37  C   UNL     1       2.709   6.719  17.784  0.00  0.00    -0.023 C 
ATOM     38  C   UNL     1       3.398   6.278  19.091  0.00  0.00    -0.033 C 
ATOM     39  C   UNL     1       3.688   4.776  19.084  0.00  0.00    +0.015 C 
ATOM     40  N   UNL     1       2.459   4.028  18.844  0.00  0.00    -0.301 N 
ATOM     41  C   UNL     1       1.710   3.296  19.759  0.00  0.00    +0.221 C 
ATOM     42  O   UNL     1       0.566   2.933  19.454  0.00  0.00    -0.275 OA
ATOM     43  C   UNL     1       1.843   4.351  17.556  0.00  0.00    +0.015 C 
ATOM     44  C   UNL     1       1.477   5.834  17.509  0.00  0.00    -0.033 C 
ATOM     45  H   UNL     1       3.420   6.571  16.959  0.00  0.00    +0.032 HD
ATOM     46  H   UNL     1       4.340   6.818  19.233  0.00  0.00    +0.028 HD
ATOM     47  H   UNL     1       2.753   6.520  19.945  0.00  0.00    +0.028 HD
ATOM     48  H   UNL     1       4.179   4.497  20.008  0.00  0.00    +0.046 HD
ATOM     49  H   UNL     1       4.387   4.531  18.274  0.00  0.00    +0.046 HD
ATOM     50  H   UNL     1       2.569   4.112  16.770  0.00  0.00    +0.046 HD
ATOM     51  H   UNL     1       0.954   3.743  17.361  0.00  0.00    +0.046 HD
ATOM     52  H   UNL     1       1.054   6.072  16.527  0.00  0.00    +0.028 HD
ATOM     53  H   UNL     1       0.700   6.041  18.257  0.00  0.00    +0.028 HD
BRANCH  41  54
ATOM     54  C   UNL     1       2.270   2.906  21.155  0.00  0.00    +0.039 C 
BRANCH  54  55
ATOM     55  C   UNL     1       1.227   2.150  21.992  0.00  0.00    -0.052 C 
ATOM     56  H   UNL     1       0.280   2.682  22.093  0.00  0.00    +0.024 HD
ATOM     57  H   UNL     1       0.996   1.176  21.545  0.00  0.00    +0.024 HD
ATOM     58  H   UNL     1       1.599   1.973  23.007  0.00  0.00    +0.024 HD
ENDBRANCH  54  55
BRANCH  54  59
ATOM     59  C   UNL     1       3.602   2.149  21.053  0.00  0.00    -0.052 C 
ATOM     60  H   UNL     1       3.807   1.507  21.911  0.00  0.00    +0.024 HD
ATOM     61  H   UNL     1       4.447   2.844  20.988  0.00  0.00    +0.024 HD
ATOM     62  H   UNL     1       3.623   1.515  20.159  0.00  0.00    +0.024 HD
ENDBRANCH  54  59
BRANCH  54  63
ATOM     63  C   UNL     1       2.576   4.220  21.926  0.00  0.00    -0.052 C 
ATOM     64  H   UNL     1       1.665   4.808  22.091  0.00  0.00    +0.024 HD
ATOM     65  H   UNL     1       3.016   4.015  22.908  0.00  0.00    +0.024 HD
ATOM     66  H   UNL     1       3.280   4.851  21.373  0.00  0.00    +0.024 HD
ENDBRANCH  54  63
ENDBRANCH  41  54
ENDBRANCH  34  37
ENDBRANCH   1  34
TORSDOF 10
ENDMDL
MODEL 20
REMARK VINA RESULT:    -5.296      1.878     10.468
REMARK INTER + INTRA:          -8.276
REMARK INTER:                  -8.654
REMARK INTRA:                   0.378
REMARK UNBOUND:                -0.503
REMARK  Name = 
REMARK  10 active torsions:
REMARK  status: ('A' for Active; 'I' for Inactive)
REMARK    1  A    between atoms: C_1  and  C_2
REMARK    2  A    between atoms: C_4  and  C_5
REMARK    3  A    between atoms: N_7  and  C_8
REMARK    4  A    between atoms: C_15  and  N_16
REMARK    5  A    between atoms: N_16  and  C_17
REMARK    6  A    between atoms: C_17  and  C_18
REMARK    7  A    between atoms: C_22  and  C_24
REMARK    8  A    between atoms: C_24  and  C_25
REMARK    9  A    between atoms: C_24  and  C_26
REMARK   10  A    between atoms: C_24  and  C_27
REMARK                            x       y       z     vdW  Elec       q    Type
REMARK                         _______ _______ _______ _____ _____    ______ ____
ROOT
ATOM      1  N   UNL     1       0.816   8.175  20.608  0.00  0.00    -0.343 N 
ATOM      2  H   UNL     1      -0.034   7.621  20.582  0.00  0.00    +0.146 HD
ENDROOT
BRANCH   1   8
ATOM      3  C   UNL     1       2.163   6.358  19.713  0.00  0.00    -0.029 A 
ATOM      4  C   UNL     1       3.057   5.857  18.746  0.00  0.00    -0.045 A 
ATOM      5  C   UNL     1       3.522   6.672  17.711  0.00  0.00    +0.037 A 
ATOM      6  C   UNL     1       3.065   7.986  17.625  0.00  0.00    -0.048 A 
ATOM      7  C   UNL     1       2.183   8.491  18.587  0.00  0.00    -0.040 A 
ATOM      8  C   UNL     1       1.746   7.710  19.667  0.00  0.00    +0.030 A 
ATOM      9  H   UNL     1       3.352   4.811  18.788  0.00  0.00    +0.063 HD
ATOM     10  H   UNL     1       3.389   8.625  16.805  0.00  0.00    +0.063 HD
ATOM     11  H   UNL     1       1.850   9.518  18.464  0.00  0.00    +0.064 HD
BRANCH   3  12
ATOM     12  C   UNL     1       1.677   5.420  20.789  0.00  0.00    -0.038 C 
ATOM     13  H   UNL     1       2.516   5.061  21.395  0.00  0.00    +0.028 HD
ATOM     14  H   UNL     1       1.159   4.569  20.338  0.00  0.00    +0.028 HD
ATOM     15  H   UNL     1       0.979   5.916  21.471  0.00  0.00    +0.028 HD
ENDBRANCH   3  12
BRANCH   5  16
ATOM     16  C   UNL     1       4.461   6.173  16.669  0.00  0.00    +0.244 C 
ATOM     17  O   UNL     1       4.975   6.954  15.875  0.00  0.00    -0.270 OA
ATOM     18  N   UNL     1       4.730   4.818  16.688  0.00  0.00    -0.308 N 
ATOM     19  H   UNL     1       4.492   4.301  17.523  0.00  0.00    +0.149 HD
BRANCH  18  20
ATOM     20  C   UNL     1       5.728   4.248  15.808  0.00  0.00    +0.023 C 
ATOM     21  C   UNL     1       6.895   5.194  15.561  0.00  0.00    -0.034 C 
ATOM     22  C   UNL     1       7.563   4.620  14.319  0.00  0.00    -0.051 C 
ATOM     23  C   UNL     1       6.448   3.942  13.521  0.00  0.00    -0.051 C 
ATOM     24  C   UNL     1       5.200   3.993  14.399  0.00  0.00    -0.034 C 
ATOM     25  H   UNL     1       6.092   3.308  16.244  0.00  0.00    +0.050 HD
ATOM     26  H   UNL     1       7.579   5.246  16.413  0.00  0.00    +0.028 HD
ATOM     27  H   UNL     1       6.541   6.212  15.358  0.00  0.00    +0.028 HD
ATOM     28  H   UNL     1       8.315   3.875  14.605  0.00  0.00    +0.027 HD
ATOM     29  H   UNL     1       8.072   5.394  13.736  0.00  0.00    +0.027 HD
ATOM     30  H   UNL     1       6.271   4.449  12.567  0.00  0.00    +0.027 HD
ATOM     31  H   UNL     1       6.723   2.907  13.295  0.00  0.00    +0.027 HD
ATOM     32  H   UNL     1       4.551   4.814  14.072  0.00  0.00    +0.028 HD
ATOM     33  H   UNL     1       4.614   3.070  14.334  0.00  0.00    +0.028 HD
ENDBRANCH  18  20
ENDBRANCH   5  16
ENDBRANCH   1   8
BRANCH   1  34
ATOM     34  C   UNL     1       1.236   8.531  21.961  0.00  0.00    +0.012 C 
ATOM     35  H   UNL     1       0.803   7.837  22.691  0.00  0.00    +0.046 HD
ATOM     36  H   UNL     1       2.328   8.470  22.030  0.00  0.00    +0.046 HD
BRANCH  34  37
ATOM     37  C   UNL     1       0.818   9.977  22.285  0.00  0.00    -0.023 C 
ATOM     38  C   UNL     1       0.660  10.837  21.015  0.00  0.00    -0.033 C 
ATOM     39  C   UNL     1       0.128  12.231  21.352  0.00  0.00    +0.015 C 
ATOM     40  N   UNL     1      -1.126  12.125  22.089  0.00  0.00    -0.301 N 
ATOM     41  C   UNL     1      -2.414  12.373  21.628  0.00  0.00    +0.221 C 
ATOM     42  O   UNL     1      -3.382  11.995  22.301  0.00  0.00    -0.275 OA
ATOM     43  C   UNL     1      -0.979  11.405  23.355  0.00  0.00    +0.015 C 
ATOM     44  C   UNL     1      -0.495   9.979  23.092  0.00  0.00    -0.033 C 
ATOM     45  H   UNL     1       1.598  10.436  22.910  0.00  0.00    +0.032 HD
ATOM     46  H   UNL     1       1.620  10.942  20.497  0.00  0.00    +0.028 HD
ATOM     47  H   UNL     1      -0.031  10.342  20.320  0.00  0.00    +0.028 HD
ATOM     48  H   UNL     1       0.037  12.815  20.445  0.00  0.00    +0.046 HD
ATOM     49  H   UNL     1       0.844  12.762  21.992  0.00  0.00    +0.046 HD
ATOM     50  H   UNL     1      -0.246  11.949  23.965  0.00  0.00    +0.046 HD
ATOM     51  H   UNL     1      -1.912  11.382  23.927  0.00  0.00    +0.046 HD
ATOM     52  H   UNL     1      -0.350   9.463  24.048  0.00  0.00    +0.028 HD
ATOM     53  H   UNL     1      -1.269   9.429  22.540  0.00  0.00    +0.028 HD
BRANCH  41  54
ATOM     54  C   UNL     1      -2.679  13.125  20.294  0.00  0.00    +0.039 C 
BRANCH  54  55
ATOM     55  C   UNL     1      -2.090  14.543  20.317  0.00  0.00    -0.052 C 
ATOM     56  H   UNL     1      -2.846  15.329  20.343  0.00  0.00    +0.024 HD
ATOM     57  H   UNL     1      -1.453  14.690  21.197  0.00  0.00    +0.024 HD
ATOM     58  H   UNL     1      -1.478  14.723  19.427  0.00  0.00    +0.024 HD
ENDBRANCH  54  55
BRANCH  54  59
ATOM     59  C   UNL     1      -2.215  12.316  19.073  0.00  0.00    -0.052 C 
ATOM     60  H   UNL     1      -1.600  11.452  19.330  0.00  0.00    +0.024 HD
ATOM     61  H   UNL     1      -1.603  12.931  18.402  0.00  0.00    +0.024 HD
ATOM     62  H   UNL     1      -3.072  11.949  18.499  0.00  0.00    +0.024 HD
ENDBRANCH  54  59
BRANCH  54  63
ATOM     63  C   UNL     1      -4.215  13.295  20.144  0.00  0.00    -0.052 C 
ATOM     64  H   UNL     1      -4.518  14.339  20.286  0.00  0.00    +0.024 HD
ATOM     65  H   UNL     1      -4.557  12.988  19.149  0.00  0.00    +0.024 HD
ATOM     66  H   UNL     1      -4.757  12.691  20.880  0.00  0.00    +0.024 HD
ENDBRANCH  54  63
ENDBRANCH  41  54
ENDBRANCH  34  37
ENDBRANCH   1  34
TORSDOF 10
ENDMDL
MODEL 21
REMARK VINA RESULT:    -5.225      3.984      9.613
REMARK INTER + INTRA:          -8.172
REMARK INTER:                  -7.731
REMARK INTRA:                  -0.441
REMARK UNBOUND:                -0.503
REMARK  Name = 
REMARK  10 active torsions:
REMARK  status: ('A' for Active; 'I' for Inactive)
REMARK    1  A    between atoms: C_1  and  C_2
REMARK    2  A    between atoms: C_4  and  C_5
REMARK    3  A    between atoms: N_7  and  C_8
REMARK    4  A    between atoms: C_15  and  N_16
REMARK    5  A    between atoms: N_16  and  C_17
REMARK    6  A    between atoms: C_17  and  C_18
REMARK    7  A    between atoms: C_22  and  C_24
REMARK    8  A    between atoms: C_24  and  C_25
REMARK    9  A    between atoms: C_24  and  C_26
REMARK   10  A    between atoms: C_24  and  C_27
REMARK                            x       y       z     vdW  Elec       q    Type
REMARK                         _______ _______ _______ _____ _____    ______ ____
ROOT
ATOM      1  N   UNL     1       0.185  11.599  20.393  0.00  0.00    -0.343 N 
ATOM      2  H   UNL     1       0.532  11.877  21.305  0.00  0.00    +0.146 HD
ENDROOT
BRANCH   1   8
ATOM      3  C   UNL     1       0.866   9.290  20.732  0.00  0.00    -0.029 A 
ATOM      4  C   UNL     1       1.486   8.114  20.264  0.00  0.00    -0.045 A 
ATOM      5  C   UNL     1       2.067   8.069  18.994  0.00  0.00    +0.037 A 
ATOM      6  C   UNL     1       2.000   9.195  18.176  0.00  0.00    -0.048 A 
ATOM      7  C   UNL     1       1.392  10.367  18.639  0.00  0.00    -0.040 A 
ATOM      8  C   UNL     1       0.851  10.456  19.930  0.00  0.00    +0.030 A 
ATOM      9  H   UNL     1       1.471   7.223  20.887  0.00  0.00    +0.063 HD
ATOM     10  H   UNL     1       2.417   9.166  17.171  0.00  0.00    +0.063 HD
ATOM     11  H   UNL     1       1.358  11.211  17.955  0.00  0.00    +0.064 HD
BRANCH   3  12
ATOM     12  C   UNL     1       0.233   9.266  22.100  0.00  0.00    -0.038 C 
ATOM     13  H   UNL     1      -0.834   9.505  22.035  0.00  0.00    +0.028 HD
ATOM     14  H   UNL     1       0.732   9.986  22.756  0.00  0.00    +0.028 HD
ATOM     15  H   UNL     1       0.312   8.278  22.564  0.00  0.00    +0.028 HD
ENDBRANCH   3  12
BRANCH   5  16
ATOM     16  C   UNL     1       2.724   6.841  18.466  0.00  0.00    +0.244 C 
ATOM     17  O   UNL     1       3.375   6.886  17.428  0.00  0.00    -0.270 OA
ATOM     18  N   UNL     1       2.581   5.696  19.227  0.00  0.00    -0.308 N 
ATOM     19  H   UNL     1       2.274   5.801  20.184  0.00  0.00    +0.149 HD
BRANCH  18  20
ATOM     20  C   UNL     1       3.287   4.482  18.879  0.00  0.00    +0.023 C 
ATOM     21  C   UNL     1       2.679   3.780  17.672  0.00  0.00    -0.034 C 
ATOM     22  C   UNL     1       3.251   2.371  17.753  0.00  0.00    -0.051 C 
ATOM     23  C   UNL     1       3.481   2.100  19.240  0.00  0.00    -0.051 C 
ATOM     24  C   UNL     1       3.200   3.413  19.965  0.00  0.00    -0.034 C 
ATOM     25  H   UNL     1       4.339   4.725  18.682  0.00  0.00    +0.050 HD
ATOM     26  H   UNL     1       2.932   4.276  16.730  0.00  0.00    +0.028 HD
ATOM     27  H   UNL     1       1.586   3.745  17.745  0.00  0.00    +0.028 HD
ATOM     28  H   UNL     1       4.206   2.320  17.217  0.00  0.00    +0.027 HD
ATOM     29  H   UNL     1       2.579   1.634  17.300  0.00  0.00    +0.027 HD
ATOM     30  H   UNL     1       2.825   1.305  19.609  0.00  0.00    +0.027 HD
ATOM     31  H   UNL     1       4.513   1.776  19.408  0.00  0.00    +0.027 HD
ATOM     32  H   UNL     1       2.194   3.385  20.404  0.00  0.00    +0.028 HD
ATOM     33  H   UNL     1       3.906   3.591  20.783  0.00  0.00    +0.028 HD
ENDBRANCH  18  20
ENDBRANCH   5  16
ENDBRANCH   1   8
BRANCH   1  34
ATOM     34  C   UNL     1      -0.073  12.728  19.501  0.00  0.00    +0.012 C 
ATOM     35  H   UNL     1       0.141  12.451  18.462  0.00  0.00    +0.046 HD
ATOM     36  H   UNL     1      -1.128  13.014  19.574  0.00  0.00    +0.046 HD
BRANCH  34  37
ATOM     37  C   UNL     1       0.780  13.940  19.917  0.00  0.00    -0.023 C 
ATOM     38  C   UNL     1       1.309  13.815  21.360  0.00  0.00    -0.033 C 
ATOM     39  C   UNL     1       2.250  14.969  21.707  0.00  0.00    +0.015 C 
ATOM     40  N   UNL     1       3.339  15.038  20.739  0.00  0.00    -0.301 N 
ATOM     41  C   UNL     1       4.666  14.662  20.915  0.00  0.00    +0.221 C 
ATOM     42  O   UNL     1       5.400  14.547  19.925  0.00  0.00    -0.275 OA
ATOM     43  C   UNL     1       2.867  15.267  19.373  0.00  0.00    +0.015 C 
ATOM     44  C   UNL     1       1.956  14.121  18.936  0.00  0.00    -0.033 C 
ATOM     45  H   UNL     1       0.155  14.843  19.863  0.00  0.00    +0.032 HD
ATOM     46  H   UNL     1       0.481  13.808  22.077  0.00  0.00    +0.028 HD
ATOM     47  H   UNL     1       1.843  12.862  21.473  0.00  0.00    +0.028 HD
ATOM     48  H   UNL     1       2.598  14.860  22.727  0.00  0.00    +0.046 HD
ATOM     49  H   UNL     1       1.709  15.922  21.664  0.00  0.00    +0.046 HD
ATOM     50  H   UNL     1       2.317  16.216  19.365  0.00  0.00    +0.046 HD
ATOM     51  H   UNL     1       3.694  15.375  18.664  0.00  0.00    +0.046 HD
ATOM     52  H   UNL     1       1.576  14.323  17.928  0.00  0.00    +0.028 HD
ATOM     53  H   UNL     1       2.539  13.192  18.884  0.00  0.00    +0.028 HD
BRANCH  41  54
ATOM     54  C   UNL     1       5.264  14.390  22.324  0.00  0.00    +0.039 C 
BRANCH  54  55
ATOM     55  C   UNL     1       4.604  15.267  23.398  0.00  0.00    -0.052 C 
ATOM     56  H   UNL     1       5.310  15.676  24.122  0.00  0.00    +0.024 HD
ATOM     57  H   UNL     1       4.088  16.121  22.944  0.00  0.00    +0.024 HD
ATOM     58  H   UNL     1       3.865  14.693  23.966  0.00  0.00    +0.024 HD
ENDBRANCH  54  55
BRANCH  54  59
ATOM     59  C   UNL     1       5.235  12.897  22.685  0.00  0.00    -0.052 C 
ATOM     60  H   UNL     1       6.172  12.380  22.479  0.00  0.00    +0.024 HD
ATOM     61  H   UNL     1       4.466  12.367  22.111  0.00  0.00    +0.024 HD
ATOM     62  H   UNL     1       5.011  12.757  23.749  0.00  0.00    +0.024 HD
ENDBRANCH  54  59
BRANCH  54  63
ATOM     63  C   UNL     1       6.762  14.799  22.289  0.00  0.00    -0.052 C 
ATOM     64  H   UNL     1       7.382  14.009  21.848  0.00  0.00    +0.024 HD
ATOM     65  H   UNL     1       6.916  15.706  21.693  0.00  0.00    +0.024 HD
ATOM     66  H   UNL     1       7.146  14.996  23.296  0.00  0.00    +0.024 HD
ENDBRANCH  54  63
ENDBRANCH  41  54
ENDBRANCH  34  37
ENDBRANCH   1  34
TORSDOF 10
ENDMDL
MODEL 22
REMARK VINA RESULT:    -5.063      2.466     10.754
REMARK INTER + INTRA:          -7.934
REMARK INTER:                  -7.380
REMARK INTRA:                  -0.554
REMARK UNBOUND:                -0.503
REMARK  Name = 
REMARK  10 active torsions:
REMARK  status: ('A' for Active; 'I' for Inactive)
REMARK    1  A    between atoms: C_1  and  C_2
REMARK    2  A    between atoms: C_4  and  C_5
REMARK    3  A    between atoms: N_7  and  C_8
REMARK    4  A    between atoms: C_15  and  N_16
REMARK    5  A    between atoms: N_16  and  C_17
REMARK    6  A    between atoms: C_17  and  C_18
REMARK    7  A    between atoms: C_22  and  C_24
REMARK    8  A    between atoms: C_24  and  C_25
REMARK    9  A    between atoms: C_24  and  C_26
REMARK   10  A    between atoms: C_24  and  C_27
REMARK                            x       y       z     vdW  Elec       q    Type
REMARK                         _______ _______ _______ _____ _____    ______ ____
ROOT
ATOM      1  N   UNL     1       0.051  12.488  18.287  0.00  0.00    -0.343 N 
ATOM      2  H   UNL     1      -0.819  12.447  18.808  0.00  0.00    +0.146 HD
ENDROOT
BRANCH   1   8
ATOM      3  C   UNL     1      -0.094  10.061  18.222  0.00  0.00    -0.029 A 
ATOM      4  C   UNL     1       0.528   8.798  18.161  0.00  0.00    -0.045 A 
ATOM      5  C   UNL     1       1.920   8.687  18.125  0.00  0.00    +0.037 A 
ATOM      6  C   UNL     1       2.693   9.846  18.117  0.00  0.00    -0.048 A 
ATOM      7  C   UNL     1       2.081  11.103  18.185  0.00  0.00    -0.040 A 
ATOM      8  C   UNL     1       0.688  11.239  18.278  0.00  0.00    +0.030 A 
ATOM      9  H   UNL     1      -0.090   7.905  18.099  0.00  0.00    +0.063 HD
ATOM     10  H   UNL     1       3.778   9.779  18.055  0.00  0.00    +0.063 HD
ATOM     11  H   UNL     1       2.732  11.972  18.164  0.00  0.00    +0.064 HD
BRANCH   3  12
ATOM     12  C   UNL     1      -1.600  10.115  18.230  0.00  0.00    -0.038 C 
ATOM     13  H   UNL     1      -2.016   9.396  17.515  0.00  0.00    +0.028 HD
ATOM     14  H   UNL     1      -1.941  11.123  17.978  0.00  0.00    +0.028 HD
ATOM     15  H   UNL     1      -2.008   9.859  19.214  0.00  0.00    +0.028 HD
ENDBRANCH   3  12
BRANCH   5  16
ATOM     16  C   UNL     1       2.609   7.368  18.054  0.00  0.00    +0.244 C 
ATOM     17  O   UNL     1       2.090   6.373  18.548  0.00  0.00    -0.270 OA
ATOM     18  N   UNL     1       3.815   7.344  17.380  0.00  0.00    -0.308 N 
ATOM     19  H   UNL     1       4.034   8.126  16.777  0.00  0.00    +0.149 HD
BRANCH  18  20
ATOM     20  C   UNL     1       4.502   6.095  17.135  0.00  0.00    +0.023 C 
ATOM     21  C   UNL     1       5.648   5.859  18.111  0.00  0.00    -0.034 C 
ATOM     22  C   UNL     1       6.480   4.780  17.431  0.00  0.00    -0.051 C 
ATOM     23  C   UNL     1       6.278   4.984  15.928  0.00  0.00    -0.051 C 
ATOM     24  C   UNL     1       5.205   6.060  15.781  0.00  0.00    -0.034 C 
ATOM     25  H   UNL     1       3.779   5.271  17.199  0.00  0.00    +0.050 HD
ATOM     26  H   UNL     1       5.296   5.549  19.100  0.00  0.00    +0.028 HD
ATOM     27  H   UNL     1       6.247   6.767  18.242  0.00  0.00    +0.028 HD
ATOM     28  H   UNL     1       6.118   3.786  17.719  0.00  0.00    +0.027 HD
ATOM     29  H   UNL     1       7.535   4.842  17.715  0.00  0.00    +0.027 HD
ATOM     30  H   UNL     1       7.206   5.292  15.436  0.00  0.00    +0.027 HD
ATOM     31  H   UNL     1       5.956   4.047  15.462  0.00  0.00    +0.027 HD
ATOM     32  H   UNL     1       5.678   7.026  15.563  0.00  0.00    +0.028 HD
ATOM     33  H   UNL     1       4.515   5.843  14.958  0.00  0.00    +0.028 HD
ENDBRANCH  18  20
ENDBRANCH   5  16
ENDBRANCH   1   8
BRANCH   1  34
ATOM     34  C   UNL     1       0.809  13.714  18.519  0.00  0.00    +0.012 C 
ATOM     35  H   UNL     1       1.874  13.486  18.649  0.00  0.00    +0.046 HD
ATOM     36  H   UNL     1       0.700  14.377  17.652  0.00  0.00    +0.046 HD
BRANCH  34  37
ATOM     37  C   UNL     1       0.266  14.451  19.756  0.00  0.00    -0.023 C 
ATOM     38  C   UNL     1      -1.270  14.583  19.729  0.00  0.00    -0.033 C 
ATOM     39  C   UNL     1      -1.795  15.209  21.022  0.00  0.00    +0.015 C 
ATOM     40  N   UNL     1      -1.343  14.437  22.173  0.00  0.00    -0.301 N 
ATOM     41  C   UNL     1      -2.084  13.570  22.968  0.00  0.00    +0.221 C 
ATOM     42  O   UNL     1      -1.495  12.805  23.744  0.00  0.00    -0.275 OA
ATOM     43  C   UNL     1       0.116  14.388  22.283  0.00  0.00    +0.015 C 
ATOM     44  C   UNL     1       0.712  13.726  21.041  0.00  0.00    -0.033 C 
ATOM     45  H   UNL     1       0.693  15.464  19.776  0.00  0.00    +0.032 HD
ATOM     46  H   UNL     1      -1.591  15.201  18.883  0.00  0.00    +0.028 HD
ATOM     47  H   UNL     1      -1.721  13.591  19.594  0.00  0.00    +0.028 HD
ATOM     48  H   UNL     1      -2.874  15.298  20.970  0.00  0.00    +0.046 HD
ATOM     49  H   UNL     1      -1.405  16.228  21.132  0.00  0.00    +0.046 HD
ATOM     50  H   UNL     1       0.478  15.420  22.376  0.00  0.00    +0.046 HD
ATOM     51  H   UNL     1       0.444  13.856  23.181  0.00  0.00    +0.046 HD
ATOM     52  H   UNL     1       1.805  13.732  21.116  0.00  0.00    +0.028 HD
ATOM     53  H   UNL     1       0.394  12.675  21.002  0.00  0.00    +0.028 HD
BRANCH  41  54
ATOM     54  C   UNL     1      -3.637  13.538  22.923  0.00  0.00    +0.039 C 
BRANCH  54  55
ATOM     55  C   UNL     1      -4.220  12.701  24.071  0.00  0.00    -0.052 C 
ATOM     56  H   UNL     1      -5.303  12.584  24.020  0.00  0.00    +0.024 HD
ATOM     57  H   UNL     1      -3.794  11.690  24.075  0.00  0.00    +0.024 HD
ATOM     58  H   UNL     1      -3.997  13.162  25.039  0.00  0.00    +0.024 HD
ENDBRANCH  54  55
BRANCH  54  59
ATOM     59  C   UNL     1      -4.242  14.949  22.861  0.00  0.00    -0.052 C 
ATOM     60  H   UNL     1      -3.748  15.666  23.518  0.00  0.00    +0.024 HD
ATOM     61  H   UNL     1      -5.296  14.940  23.162  0.00  0.00    +0.024 HD
ATOM     62  H   UNL     1      -4.191  15.351  21.843  0.00  0.00    +0.024 HD
ENDBRANCH  54  59
BRANCH  54  63
ATOM     63  C   UNL     1      -4.058  12.827  21.609  0.00  0.00    -0.052 C 
ATOM     64  H   UNL     1      -4.824  12.064  21.794  0.00  0.00    +0.024 HD
ATOM     65  H   UNL     1      -4.472  13.536  20.883  0.00  0.00    +0.024 HD
ATOM     66  H   UNL     1      -3.205  12.329  21.134  0.00  0.00    +0.024 HD
ENDBRANCH  54  63
ENDBRANCH  41  54
ENDBRANCH  34  37
ENDBRANCH   1  34
TORSDOF 10
ENDMDL
MODEL 23
REMARK VINA RESULT:    -5.054      6.518      8.808
REMARK INTER + INTRA:          -7.920
REMARK INTER:                  -7.123
REMARK INTRA:                  -0.797
REMARK UNBOUND:                -0.503
REMARK  Name = 
REMARK  10 active torsions:
REMARK  status: ('A' for Active; 'I' for Inactive)
REMARK    1  A    between atoms: C_1  and  C_2
REMARK    2  A    between atoms: C_4  and  C_5
REMARK    3  A    between atoms: N_7  and  C_8
REMARK    4  A    between atoms: C_15  and  N_16
REMARK    5  A    between atoms: N_16  and  C_17
REMARK    6  A    between atoms: C_17  and  C_18
REMARK    7  A    between atoms: C_22  and  C_24
REMARK    8  A    between atoms: C_24  and  C_25
REMARK    9  A    between atoms: C_24  and  C_26
REMARK   10  A    between atoms: C_24  and  C_27
REMARK                            x       y       z     vdW  Elec       q    Type
REMARK                         _______ _______ _______ _____ _____    ______ ____
ROOT
ATOM      1  N   UNL     1       4.568  15.263  19.299  0.00  0.00    -0.343 N 
ATOM      2  H   UNL     1       4.727  15.653  20.222  0.00  0.00    +0.146 HD
ENDROOT
BRANCH   1   8
ATOM      3  C   UNL     1       2.750  14.175  20.493  0.00  0.00    -0.029 A 
ATOM      4  C   UNL     1       1.684  13.255  20.525  0.00  0.00    -0.045 A 
ATOM      5  C   UNL     1       1.372  12.481  19.404  0.00  0.00    +0.037 A 
ATOM      6  C   UNL     1       2.110  12.652  18.235  0.00  0.00    -0.048 A 
ATOM      7  C   UNL     1       3.175  13.559  18.200  0.00  0.00    -0.040 A 
ATOM      8  C   UNL     1       3.544  14.306  19.328  0.00  0.00    +0.030 A 
ATOM      9  H   UNL     1       1.074  13.181  21.423  0.00  0.00    +0.063 HD
ATOM     10  H   UNL     1       1.859  12.083  17.342  0.00  0.00    +0.063 HD
ATOM     11  H   UNL     1       3.709  13.660  17.259  0.00  0.00    +0.064 HD
BRANCH   3  12
ATOM     12  C   UNL     1       3.019  14.999  21.726  0.00  0.00    -0.038 C 
ATOM     13  H   UNL     1       2.327  15.846  21.782  0.00  0.00    +0.028 HD
ATOM     14  H   UNL     1       4.049  15.366  21.714  0.00  0.00    +0.028 HD
ATOM     15  H   UNL     1       2.882  14.413  22.641  0.00  0.00    +0.028 HD
ENDBRANCH   3  12
BRANCH   5  16
ATOM     16  C   UNL     1       0.247  11.505  19.403  0.00  0.00    +0.244 C 
ATOM     17  O   UNL     1       0.002  10.843  20.405  0.00  0.00    -0.270 OA
ATOM     18  N   UNL     1      -0.497  11.432  18.240  0.00  0.00    -0.308 N 
ATOM     19  H   UNL     1      -0.408  12.187  17.575  0.00  0.00    +0.149 HD
BRANCH  18  20
ATOM     20  C   UNL     1      -1.691  10.616  18.175  0.00  0.00    +0.023 C 
ATOM     21  C   UNL     1      -1.890   9.985  16.804  0.00  0.00    -0.034 C 
ATOM     22  C   UNL     1      -3.356   9.571  16.811  0.00  0.00    -0.051 C 
ATOM     23  C   UNL     1      -4.065  10.569  17.728  0.00  0.00    -0.051 C 
ATOM     24  C   UNL     1      -2.971  11.425  18.360  0.00  0.00    -0.034 C 
ATOM     25  H   UNL     1      -1.632   9.835  18.944  0.00  0.00    +0.050 HD
ATOM     26  H   UNL     1      -1.221   9.136  16.633  0.00  0.00    +0.028 HD
ATOM     27  H   UNL     1      -1.711  10.713  16.004  0.00  0.00    +0.028 HD
ATOM     28  H   UNL     1      -3.460   8.558  17.218  0.00  0.00    +0.027 HD
ATOM     29  H   UNL     1      -3.782   9.566  15.803  0.00  0.00    +0.027 HD
ATOM     30  H   UNL     1      -4.773  11.191  17.172  0.00  0.00    +0.027 HD
ATOM     31  H   UNL     1      -4.634  10.034  18.496  0.00  0.00    +0.027 HD
ATOM     32  H   UNL     1      -2.904  12.386  17.833  0.00  0.00    +0.028 HD
ATOM     33  H   UNL     1      -3.178  11.646  19.412  0.00  0.00    +0.028 HD
ENDBRANCH  18  20
ENDBRANCH   5  16
ENDBRANCH   1   8
BRANCH   1  34
ATOM     34  C   UNL     1       5.799  15.019  18.552  0.00  0.00    +0.012 C 
ATOM     35  H   UNL     1       5.745  14.057  18.029  0.00  0.00    +0.046 HD
ATOM     36  H   UNL     1       5.934  15.812  17.807  0.00  0.00    +0.046 HD
BRANCH  34  37
ATOM     37  C   UNL     1       7.012  15.044  19.500  0.00  0.00    -0.023 C 
ATOM     38  C   UNL     1       6.598  15.263  20.970  0.00  0.00    -0.033 C 
ATOM     39  C   UNL     1       7.804  15.163  21.905  0.00  0.00    +0.015 C 
ATOM     40  N   UNL     1       8.478  13.882  21.721  0.00  0.00    -0.301 N 
ATOM     41  C   UNL     1       8.459  12.776  22.562  0.00  0.00    +0.221 C 
ATOM     42  O   UNL     1       8.873  11.687  22.143  0.00  0.00    -0.275 OA
ATOM     43  C   UNL     1       8.977  13.697  20.357  0.00  0.00    +0.015 C 
ATOM     44  C   UNL     1       7.815  13.735  19.366  0.00  0.00    -0.033 C 
ATOM     45  H   UNL     1       7.670  15.874  19.206  0.00  0.00    +0.032 HD
ATOM     46  H   UNL     1       6.133  16.246  21.099  0.00  0.00    +0.028 HD
ATOM     47  H   UNL     1       5.852  14.511  21.257  0.00  0.00    +0.028 HD
ATOM     48  H   UNL     1       7.487  15.330  22.927  0.00  0.00    +0.046 HD
ATOM     49  H   UNL     1       8.528  15.954  21.672  0.00  0.00    +0.046 HD
ATOM     50  H   UNL     1       9.684  14.510  20.148  0.00  0.00    +0.046 HD
ATOM     51  H   UNL     1       9.531  12.760  20.245  0.00  0.00    +0.046 HD
ATOM     52  H   UNL     1       8.204  13.636  18.346  0.00  0.00    +0.028 HD
ATOM     53  H   UNL     1       7.154  12.877  19.546  0.00  0.00    +0.028 HD
BRANCH  41  54
ATOM     54  C   UNL     1       7.944  12.865  24.026  0.00  0.00    +0.039 C 
BRANCH  54  55
ATOM     55  C   UNL     1       8.822  13.791  24.880  0.00  0.00    -0.052 C 
ATOM     56  H   UNL     1       8.570  13.775  25.942  0.00  0.00    +0.024 HD
ATOM     57  H   UNL     1       9.879  13.511  24.803  0.00  0.00    +0.024 HD
ATOM     58  H   UNL     1       8.725  14.830  24.548  0.00  0.00    +0.024 HD
ENDBRANCH  54  55
BRANCH  54  59
ATOM     59  C   UNL     1       6.456  13.241  24.093  0.00  0.00    -0.052 C 
ATOM     60  H   UNL     1       6.013  13.443  23.117  0.00  0.00    +0.024 HD
ATOM     61  H   UNL     1       6.305  14.150  24.686  0.00  0.00    +0.024 HD
ATOM     62  H   UNL     1       5.871  12.439  24.557  0.00  0.00    +0.024 HD
ENDBRANCH  54  59
BRANCH  54  63
ATOM     63  C   UNL     1       8.063  11.450  24.657  0.00  0.00    -0.052 C 
ATOM     64  H   UNL     1       7.561  11.403  25.630  0.00  0.00    +0.024 HD
ATOM     65  H   UNL     1       7.607  10.686  24.016  0.00  0.00    +0.024 HD
ATOM     66  H   UNL     1       9.111  11.169  24.811  0.00  0.00    +0.024 HD
ENDBRANCH  54  63
ENDBRANCH  41  54
ENDBRANCH  34  37
ENDBRANCH   1  34
TORSDOF 10
ENDMDL
MODEL 24
REMARK VINA RESULT:    -4.987      1.955      3.503
REMARK INTER + INTRA:          -7.821
REMARK INTER:                  -7.820
REMARK INTRA:                  -0.001
REMARK UNBOUND:                -0.503
REMARK  Name = 
REMARK  10 active torsions:
REMARK  status: ('A' for Active; 'I' for Inactive)
REMARK    1  A    between atoms: C_1  and  C_2
REMARK    2  A    between atoms: C_4  and  C_5
REMARK    3  A    between atoms: N_7  and  C_8
REMARK    4  A    between atoms: C_15  and  N_16
REMARK    5  A    between atoms: N_16  and  C_17
REMARK    6  A    between atoms: C_17  and  C_18
REMARK    7  A    between atoms: C_22  and  C_24
REMARK    8  A    between atoms: C_24  and  C_25
REMARK    9  A    between atoms: C_24  and  C_26
REMARK   10  A    between atoms: C_24  and  C_27
REMARK                            x       y       z     vdW  Elec       q    Type
REMARK                         _______ _______ _______ _____ _____    ______ ____
ROOT
ATOM      1  N   UNL     1       2.213   8.546  17.820  0.00  0.00    -0.343 N 
ATOM      2  H   UNL     1       1.766   8.901  16.981  0.00  0.00    +0.146 HD
ENDROOT
BRANCH   1   8
ATOM      3  C   UNL     1       1.268  10.428  19.037  0.00  0.00    -0.029 A 
ATOM      4  C   UNL     1       0.598  10.946  20.162  0.00  0.00    -0.045 A 
ATOM      5  C   UNL     1       0.215  10.111  21.215  0.00  0.00    +0.037 A 
ATOM      6  C   UNL     1       0.476   8.745  21.126  0.00  0.00    -0.048 A 
ATOM      7  C   UNL     1       1.148   8.226  20.014  0.00  0.00    -0.040 A 
ATOM      8  C   UNL     1       1.592   9.051  18.970  0.00  0.00    +0.030 A 
ATOM      9  H   UNL     1       0.342  12.003  20.187  0.00  0.00    +0.063 HD
ATOM     10  H   UNL     1       0.154   8.074  21.921  0.00  0.00    +0.063 HD
ATOM     11  H   UNL     1       1.314   7.152  19.992  0.00  0.00    +0.064 HD
BRANCH   3  12
ATOM     12  C   UNL     1       1.630  11.376  17.923  0.00  0.00    -0.038 C 
ATOM     13  H   UNL     1       1.580  12.414  18.268  0.00  0.00    +0.028 HD
ATOM     14  H   UNL     1       0.951  11.237  17.076  0.00  0.00    +0.028 HD
ATOM     15  H   UNL     1       2.651  11.208  17.565  0.00  0.00    +0.028 HD
ENDBRANCH   3  12
BRANCH   5  16
ATOM     16  C   UNL     1      -0.500  10.625  22.415  0.00  0.00    +0.244 C 
ATOM     17  O   UNL     1      -0.518   9.970  23.452  0.00  0.00    -0.270 OA
ATOM     18  N   UNL     1      -1.089  11.869  22.290  0.00  0.00    -0.308 N 
ATOM     19  H   UNL     1      -0.801  12.451  21.516  0.00  0.00    +0.149 HD
BRANCH  18  20
ATOM     20  C   UNL     1      -1.694  12.521  23.431  0.00  0.00    +0.023 C 
ATOM     21  C   UNL     1      -3.203  12.320  23.485  0.00  0.00    -0.034 C 
ATOM     22  C   UNL     1      -3.674  13.407  24.443  0.00  0.00    -0.051 C 
ATOM     23  C   UNL     1      -2.675  14.555  24.293  0.00  0.00    -0.051 C 
ATOM     24  C   UNL     1      -1.561  14.040  23.385  0.00  0.00    -0.034 C 
ATOM     25  H   UNL     1      -1.231  12.136  24.349  0.00  0.00    +0.050 HD
ATOM     26  H   UNL     1      -3.479  11.318  23.827  0.00  0.00    +0.028 HD
ATOM     27  H   UNL     1      -3.656  12.470  22.498  0.00  0.00    +0.028 HD
ATOM     28  H   UNL     1      -3.655  13.035  25.474  0.00  0.00    +0.027 HD
ATOM     29  H   UNL     1      -4.699  13.724  24.225  0.00  0.00    +0.027 HD
ATOM     30  H   UNL     1      -3.146  15.444  23.862  0.00  0.00    +0.027 HD
ATOM     31  H   UNL     1      -2.278  14.838  25.273  0.00  0.00    +0.027 HD
ATOM     32  H   UNL     1      -1.714  14.414  22.364  0.00  0.00    +0.028 HD
ATOM     33  H   UNL     1      -0.573  14.383  23.710  0.00  0.00    +0.028 HD
ENDBRANCH  18  20
ENDBRANCH   5  16
ENDBRANCH   1   8
BRANCH   1  34
ATOM     34  C   UNL     1       3.669   8.486  17.720  0.00  0.00    +0.012 C 
ATOM     35  H   UNL     1       3.996   8.779  16.716  0.00  0.00    +0.046 HD
ATOM     36  H   UNL     1       4.111   9.180  18.445  0.00  0.00    +0.046 HD
BRANCH  34  37
ATOM     37  C   UNL     1       4.168   7.068  18.051  0.00  0.00    -0.023 C 
ATOM     38  C   UNL     1       3.537   6.515  19.345  0.00  0.00    -0.033 C 
ATOM     39  C   UNL     1       3.953   5.063  19.588  0.00  0.00    +0.015 C 
ATOM     40  N   UNL     1       3.613   4.243  18.430  0.00  0.00    -0.301 N 
ATOM     41  C   UNL     1       2.578   3.323  18.307  0.00  0.00    +0.221 C 
ATOM     42  O   UNL     1       2.273   2.900  17.185  0.00  0.00    -0.275 OA
ATOM     43  C   UNL     1       4.287   4.683  17.208  0.00  0.00    +0.015 C 
ATOM     44  C   UNL     1       3.878   6.117  16.873  0.00  0.00    -0.033 C 
ATOM     45  H   UNL     1       5.257   7.104  18.194  0.00  0.00    +0.032 HD
ATOM     46  H   UNL     1       3.838   7.116  20.210  0.00  0.00    +0.028 HD
ATOM     47  H   UNL     1       2.443   6.573  19.274  0.00  0.00    +0.028 HD
ATOM     48  H   UNL     1       3.504   4.705  20.506  0.00  0.00    +0.046 HD
ATOM     49  H   UNL     1       5.040   5.001  19.728  0.00  0.00    +0.046 HD
ATOM     50  H   UNL     1       5.369   4.626  17.385  0.00  0.00    +0.046 HD
ATOM     51  H   UNL     1       4.071   4.027  16.359  0.00  0.00    +0.046 HD
ATOM     52  H   UNL     1       4.419   6.450  15.980  0.00  0.00    +0.028 HD
ATOM     53  H   UNL     1       2.807   6.143  16.632  0.00  0.00    +0.028 HD
BRANCH  41  54
ATOM     54  C   UNL     1       1.795   2.796  19.542  0.00  0.00    +0.039 C 
BRANCH  54  55
ATOM     55  C   UNL     1       2.724   2.094  20.544  0.00  0.00    -0.052 C 
ATOM     56  H   UNL     1       3.627   2.660  20.773  0.00  0.00    +0.024 HD
ATOM     57  H   UNL     1       2.212   1.917  21.497  0.00  0.00    +0.024 HD
ATOM     58  H   UNL     1       3.050   1.123  20.154  0.00  0.00    +0.024 HD
ENDBRANCH  54  55
BRANCH  54  59
ATOM     59  C   UNL     1       0.947   3.895  20.200  0.00  0.00    -0.052 C 
ATOM     60  H   UNL     1       0.840   4.790  19.586  0.00  0.00    +0.024 HD
ATOM     61  H   UNL     1       1.395   4.229  21.143  0.00  0.00    +0.024 HD
ATOM     62  H   UNL     1      -0.062   3.529  20.422  0.00  0.00    +0.024 HD
ENDBRANCH  54  59
BRANCH  54  63
ATOM     63  C   UNL     1       0.796   1.716  19.044  0.00  0.00    -0.052 C 
ATOM     64  H   UNL     1       0.697   1.737  17.952  0.00  0.00    +0.024 HD
ATOM     65  H   UNL     1       1.124   0.708  19.323  0.00  0.00    +0.024 HD
ATOM     66  H   UNL     1      -0.202   1.868  19.469  0.00  0.00    +0.024 HD
ENDBRANCH  54  63
ENDBRANCH  41  54
ENDBRANCH  34  37
ENDBRANCH   1  34
TORSDOF 10
ENDMDL
MODEL 25
REMARK VINA RESULT:    -4.983      2.717      4.014
REMARK INTER + INTRA:          -7.815
REMARK INTER:                  -7.889
REMARK INTRA:                   0.074
REMARK UNBOUND:                -0.503
REMARK  Name = 
REMARK  10 active torsions:
REMARK  status: ('A' for Active; 'I' for Inactive)
REMARK    1  A    between atoms: C_1  and  C_2
REMARK    2  A    between atoms: C_4  and  C_5
REMARK    3  A    between atoms: N_7  and  C_8
REMARK    4  A    between atoms: C_15  and  N_16
REMARK    5  A    between atoms: N_16  and  C_17
REMARK    6  A    between atoms: C_17  and  C_18
REMARK    7  A    between atoms: C_22  and  C_24
REMARK    8  A    between atoms: C_24  and  C_25
REMARK    9  A    between atoms: C_24  and  C_26
REMARK   10  A    between atoms: C_24  and  C_27
REMARK                            x       y       z     vdW  Elec       q    Type
REMARK                         _______ _______ _______ _____ _____    ______ ____
ROOT
ATOM      1  N   UNL     1       1.601   2.990  19.153  0.00  0.00    -0.343 N 
ATOM      2  H   UNL     1       0.710   2.670  19.518  0.00  0.00    +0.146 HD
ENDROOT
BRANCH   1   8
ATOM      3  C   UNL     1       1.920   5.165  20.192  0.00  0.00    -0.029 A 
ATOM      4  C   UNL     1       2.001   6.569  20.096  0.00  0.00    -0.045 A 
ATOM      5  C   UNL     1       1.825   7.213  18.869  0.00  0.00    +0.037 A 
ATOM      6  C   UNL     1       1.598   6.447  17.727  0.00  0.00    -0.048 A 
ATOM      7  C   UNL     1       1.509   5.054  17.818  0.00  0.00    -0.040 A 
ATOM      8  C   UNL     1       1.627   4.388  19.047  0.00  0.00    +0.030 A 
ATOM      9  H   UNL     1       2.245   7.148  20.983  0.00  0.00    +0.063 HD
ATOM     10  H   UNL     1       1.492   6.930  16.757  0.00  0.00    +0.063 HD
ATOM     11  H   UNL     1       1.342   4.507  16.895  0.00  0.00    +0.064 HD
BRANCH   3  12
ATOM     12  C   UNL     1       2.147   4.529  21.540  0.00  0.00    -0.038 C 
ATOM     13  H   UNL     1       1.350   3.814  21.768  0.00  0.00    +0.028 HD
ATOM     14  H   UNL     1       2.184   5.299  22.316  0.00  0.00    +0.028 HD
ATOM     15  H   UNL     1       3.091   3.976  21.571  0.00  0.00    +0.028 HD
ENDBRANCH   3  12
BRANCH   5  16
ATOM     16  C   UNL     1       1.911   8.694  18.731  0.00  0.00    +0.244 C 
ATOM     17  O   UNL     1       2.603   9.193  17.850  0.00  0.00    -0.270 OA
ATOM     18  N   UNL     1       1.149   9.435  19.614  0.00  0.00    -0.308 N 
ATOM     19  H   UNL     1       0.411   8.960  20.114  0.00  0.00    +0.149 HD
BRANCH  18  20
ATOM     20  C   UNL     1       1.054  10.873  19.484  0.00  0.00    +0.023 C 
ATOM     21  C   UNL     1       0.829  11.565  20.822  0.00  0.00    -0.034 C 
ATOM     22  C   UNL     1       0.324  12.947  20.429  0.00  0.00    -0.051 C 
ATOM     23  C   UNL     1      -0.406  12.760  19.098  0.00  0.00    -0.051 C 
ATOM     24  C   UNL     1      -0.160  11.315  18.672  0.00  0.00    -0.034 C 
ATOM     25  H   UNL     1       1.972  11.250  19.015  0.00  0.00    +0.050 HD
ATOM     26  H   UNL     1       1.741  11.613  21.426  0.00  0.00    +0.028 HD
ATOM     27  H   UNL     1       0.068  11.043  21.414  0.00  0.00    +0.028 HD
ATOM     28  H   UNL     1       1.169  13.633  20.292  0.00  0.00    +0.027 HD
ATOM     29  H   UNL     1      -0.327  13.375  21.197  0.00  0.00    +0.027 HD
ATOM     30  H   UNL     1      -1.478  12.958  19.197  0.00  0.00    +0.027 HD
ATOM     31  H   UNL     1      -0.012  13.459  18.352  0.00  0.00    +0.027 HD
ATOM     32  H   UNL     1      -1.037  10.703  18.917  0.00  0.00    +0.028 HD
ATOM     33  H   UNL     1       0.006  11.227  17.593  0.00  0.00    +0.028 HD
ENDBRANCH  18  20
ENDBRANCH   5  16
ENDBRANCH   1   8
BRANCH   1  34
ATOM     34  C   UNL     1       2.126   2.148  18.081  0.00  0.00    +0.012 C 
ATOM     35  H   UNL     1       1.913   1.092  18.286  0.00  0.00    +0.046 HD
ATOM     36  H   UNL     1       1.642   2.422  17.136  0.00  0.00    +0.046 HD
BRANCH  34  37
ATOM     37  C   UNL     1       3.641   2.367  17.924  0.00  0.00    -0.023 C 
ATOM     38  C   UNL     1       3.976   3.306  16.747  0.00  0.00    -0.033 C 
ATOM     39  C   UNL     1       5.474   3.604  16.685  0.00  0.00    +0.015 C 
ATOM     40  N   UNL     1       5.930   4.154  17.958  0.00  0.00    -0.301 N 
ATOM     41  C   UNL     1       6.263   5.471  18.252  0.00  0.00    +0.221 C 
ATOM     42  O   UNL     1       6.386   5.817  19.434  0.00  0.00    -0.275 OA
ATOM     43  C   UNL     1       5.722   3.234  19.077  0.00  0.00    +0.015 C 
ATOM     44  C   UNL     1       4.233   2.927  19.232  0.00  0.00    -0.033 C 
ATOM     45  H   UNL     1       4.117   1.396  17.728  0.00  0.00    +0.032 HD
ATOM     46  H   UNL     1       3.666   2.859  15.795  0.00  0.00    +0.028 HD
ATOM     47  H   UNL     1       3.421   4.246  16.859  0.00  0.00    +0.028 HD
ATOM     48  H   UNL     1       5.681   4.257  15.846  0.00  0.00    +0.046 HD
ATOM     49  H   UNL     1       6.036   2.679  16.505  0.00  0.00    +0.046 HD
ATOM     50  H   UNL     1       6.281   2.314  18.861  0.00  0.00    +0.046 HD
ATOM     51  H   UNL     1       6.119   3.632  20.016  0.00  0.00    +0.046 HD
ATOM     52  H   UNL     1       4.094   2.207  20.047  0.00  0.00    +0.028 HD
ATOM     53  H   UNL     1       3.700   3.845  19.515  0.00  0.00    +0.028 HD
BRANCH  41  54
ATOM     54  C   UNL     1       6.499   6.528  17.136  0.00  0.00    +0.039 C 
BRANCH  54  55
ATOM     55  C   UNL     1       5.174   7.060  16.571  0.00  0.00    -0.052 C 
ATOM     56  H   UNL     1       4.293   6.653  17.069  0.00  0.00    +0.024 HD
ATOM     57  H   UNL     1       5.115   8.150  16.666  0.00  0.00    +0.024 HD
ATOM     58  H   UNL     1       5.079   6.811  15.508  0.00  0.00    +0.024 HD
ENDBRANCH  54  55
BRANCH  54  59
ATOM     59  C   UNL     1       7.435   7.655  17.597  0.00  0.00    -0.052 C 
ATOM     60  H   UNL     1       7.540   7.720  18.681  0.00  0.00    +0.024 HD
ATOM     61  H   UNL     1       7.064   8.634  17.272  0.00  0.00    +0.024 HD
ATOM     62  H   UNL     1       8.439   7.525  17.179  0.00  0.00    +0.024 HD
ENDBRANCH  54  59
BRANCH  54  63
ATOM     63  C   UNL     1       7.221   5.819  15.958  0.00  0.00    -0.052 C 
ATOM     64  H   UNL     1       8.305   5.978  16.000  0.00  0.00    +0.024 HD
ATOM     65  H   UNL     1       7.049   4.736  15.976  0.00  0.00    +0.024 HD
ATOM     66  H   UNL     1       6.869   6.193  14.990  0.00  0.00    +0.024 HD
ENDBRANCH  54  63
ENDBRANCH  41  54
ENDBRANCH  34  37
ENDBRANCH   1  34
TORSDOF 10
ENDMDL
MODEL 26
REMARK VINA RESULT:    -4.917      3.543      9.122
REMARK INTER + INTRA:          -7.719
REMARK INTER:                  -8.101
REMARK INTRA:                   0.382
REMARK UNBOUND:                -0.503
REMARK  Name = 
REMARK  10 active torsions:
REMARK  status: ('A' for Active; 'I' for Inactive)
REMARK    1  A    between atoms: C_1  and  C_2
REMARK    2  A    between atoms: C_4  and  C_5
REMARK    3  A    between atoms: N_7  and  C_8
REMARK    4  A    between atoms: C_15  and  N_16
REMARK    5  A    between atoms: N_16  and  C_17
REMARK    6  A    between atoms: C_17  and  C_18
REMARK    7  A    between atoms: C_22  and  C_24
REMARK    8  A    between atoms: C_24  and  C_25
REMARK    9  A    between atoms: C_24  and  C_26
REMARK   10  A    between atoms: C_24  and  C_27
REMARK                            x       y       z     vdW  Elec       q    Type
REMARK                         _______ _______ _______ _____ _____    ______ ____
ROOT
ATOM      1  N   UNL     1      -0.659  11.995  22.759  0.00  0.00    -0.343 N 
ATOM      2  H   UNL     1      -0.130  12.819  22.493  0.00  0.00    +0.146 HD
ENDROOT
BRANCH   1   8
ATOM      3  C   UNL     1       0.907  10.978  21.201  0.00  0.00    -0.029 A 
ATOM      4  C   UNL     1       1.481   9.834  20.612  0.00  0.00    -0.045 A 
ATOM      5  C   UNL     1       1.051   8.553  20.971  0.00  0.00    +0.037 A 
ATOM      6  C   UNL     1       0.066   8.416  21.947  0.00  0.00    -0.048 A 
ATOM      7  C   UNL     1      -0.511   9.550  22.530  0.00  0.00    -0.040 A 
ATOM      8  C   UNL     1      -0.138  10.847  22.147  0.00  0.00    +0.030 A 
ATOM      9  H   UNL     1       2.294   9.955  19.902  0.00  0.00    +0.063 HD
ATOM     10  H   UNL     1      -0.256   7.426  22.264  0.00  0.00    +0.063 HD
ATOM     11  H   UNL     1      -1.266   9.384  23.294  0.00  0.00    +0.064 HD
BRANCH   3  12
ATOM     12  C   UNL     1       1.433  12.330  20.792  0.00  0.00    -0.038 C 
ATOM     13  H   UNL     1       1.815  12.301  19.766  0.00  0.00    +0.028 HD
ATOM     14  H   UNL     1       2.231  12.644  21.472  0.00  0.00    +0.028 HD
ATOM     15  H   UNL     1       0.649  13.094  20.820  0.00  0.00    +0.028 HD
ENDBRANCH   3  12
BRANCH   5  16
ATOM     16  C   UNL     1       1.640   7.323  20.373  0.00  0.00    +0.244 C 
ATOM     17  O   UNL     1       2.341   7.399  19.369  0.00  0.00    -0.270 OA
ATOM     18  N   UNL     1       1.378   6.138  21.032  0.00  0.00    -0.308 N 
ATOM     19  H   UNL     1       1.035   6.191  21.981  0.00  0.00    +0.149 HD
BRANCH  18  20
ATOM     20  C   UNL     1       2.009   4.903  20.616  0.00  0.00    +0.023 C 
ATOM     21  C   UNL     1       1.067   4.006  19.824  0.00  0.00    -0.034 C 
ATOM     22  C   UNL     1       1.744   2.642  19.878  0.00  0.00    -0.051 C 
ATOM     23  C   UNL     1       2.515   2.613  21.198  0.00  0.00    -0.051 C 
ATOM     24  C   UNL     1       2.407   4.015  21.791  0.00  0.00    -0.034 C 
ATOM     25  H   UNL     1       2.896   5.141  20.015  0.00  0.00    +0.050 HD
ATOM     26  H   UNL     1       0.922   4.356  18.797  0.00  0.00    +0.028 HD
ATOM     27  H   UNL     1       0.080   3.953  20.299  0.00  0.00    +0.028 HD
ATOM     28  H   UNL     1       2.443   2.534  19.041  0.00  0.00    +0.027 HD
ATOM     29  H   UNL     1       1.017   1.826  19.809  0.00  0.00    +0.027 HD
ATOM     30  H   UNL     1       2.104   1.868  21.887  0.00  0.00    +0.027 HD
ATOM     31  H   UNL     1       3.562   2.347  21.016  0.00  0.00    +0.027 HD
ATOM     32  H   UNL     1       1.632   4.028  22.569  0.00  0.00    +0.028 HD
ATOM     33  H   UNL     1       3.343   4.337  22.260  0.00  0.00    +0.028 HD
ENDBRANCH  18  20
ENDBRANCH   5  16
ENDBRANCH   1   8
BRANCH   1  34
ATOM     34  C   UNL     1      -2.101  12.223  22.817  0.00  0.00    +0.012 C 
ATOM     35  H   UNL     1      -2.621  11.306  23.116  0.00  0.00    +0.046 HD
ATOM     36  H   UNL     1      -2.315  13.000  23.560  0.00  0.00    +0.046 HD
BRANCH  34  37
ATOM     37  C   UNL     1      -2.619  12.711  21.452  0.00  0.00    -0.023 C 
ATOM     38  C   UNL     1      -1.689  12.298  20.294  0.00  0.00    -0.033 C 
ATOM     39  C   UNL     1      -2.284  12.687  18.940  0.00  0.00    +0.015 C 
ATOM     40  N   UNL     1      -3.616  12.111  18.792  0.00  0.00    -0.301 N 
ATOM     41  C   UNL     1      -3.999  11.032  18.004  0.00  0.00    +0.221 C 
ATOM     42  O   UNL     1      -5.109  10.513  18.184  0.00  0.00    -0.275 OA
ATOM     43  C   UNL     1      -4.549  12.575  19.820  0.00  0.00    +0.015 C 
ATOM     44  C   UNL     1      -4.043  12.175  21.205  0.00  0.00    -0.033 C 
ATOM     45  H   UNL     1      -2.671  13.809  21.470  0.00  0.00    +0.032 HD
ATOM     46  H   UNL     1      -0.707  12.774  20.397  0.00  0.00    +0.028 HD
ATOM     47  H   UNL     1      -1.527  11.212  20.322  0.00  0.00    +0.028 HD
ATOM     48  H   UNL     1      -1.607  12.394  18.147  0.00  0.00    +0.046 HD
ATOM     49  H   UNL     1      -2.387  13.778  18.874  0.00  0.00    +0.046 HD
ATOM     50  H   UNL     1      -4.618  13.667  19.739  0.00  0.00    +0.046 HD
ATOM     51  H   UNL     1      -5.559  12.182  19.666  0.00  0.00    +0.046 HD
ATOM     52  H   UNL     1      -4.728  12.562  21.968  0.00  0.00    +0.028 HD
ATOM     53  H   UNL     1      -4.045  11.080  21.291  0.00  0.00    +0.028 HD
BRANCH  41  54
ATOM     54  C   UNL     1      -3.079  10.459  16.890  0.00  0.00    +0.039 C 
BRANCH  54  55
ATOM     55  C   UNL     1      -2.916  11.449  15.727  0.00  0.00    -0.052 C 
ATOM     56  H   UNL     1      -2.868  12.492  16.044  0.00  0.00    +0.024 HD
ATOM     57  H   UNL     1      -1.996  11.248  15.166  0.00  0.00    +0.024 HD
ATOM     58  H   UNL     1      -3.757  11.370  15.030  0.00  0.00    +0.024 HD
ENDBRANCH  54  55
BRANCH  54  59
ATOM     59  C   UNL     1      -1.730   9.979  17.445  0.00  0.00    -0.052 C 
ATOM     60  H   UNL     1      -1.823   9.235  18.237  0.00  0.00    +0.024 HD
ATOM     61  H   UNL     1      -1.163  10.811  17.880  0.00  0.00    +0.024 HD
ATOM     62  H   UNL     1      -1.116   9.537  16.652  0.00  0.00    +0.024 HD
ENDBRANCH  54  59
BRANCH  54  63
ATOM     63  C   UNL     1      -3.777   9.204  16.298  0.00  0.00    -0.052 C 
ATOM     64  H   UNL     1      -4.144   8.540  17.090  0.00  0.00    +0.024 HD
ATOM     65  H   UNL     1      -4.638   9.479  15.678  0.00  0.00    +0.024 HD
ATOM     66  H   UNL     1      -3.090   8.624  15.672  0.00  0.00    +0.024 HD
ENDBRANCH  54  63
ENDBRANCH  41  54
ENDBRANCH  34  37
ENDBRANCH   1  34
TORSDOF 10
ENDMDL
MODEL 27
REMARK VINA RESULT:    -4.672      5.864      7.917
REMARK INTER + INTRA:          -7.360
REMARK INTER:                  -8.166
REMARK INTRA:                   0.806
REMARK UNBOUND:                -0.503
REMARK  Name = 
REMARK  10 active torsions:
REMARK  status: ('A' for Active; 'I' for Inactive)
REMARK    1  A    between atoms: C_1  and  C_2
REMARK    2  A    between atoms: C_4  and  C_5
REMARK    3  A    between atoms: N_7  and  C_8
REMARK    4  A    between atoms: C_15  and  N_16
REMARK    5  A    between atoms: N_16  and  C_17
REMARK    6  A    between atoms: C_17  and  C_18
REMARK    7  A    between atoms: C_22  and  C_24
REMARK    8  A    between atoms: C_24  and  C_25
REMARK    9  A    between atoms: C_24  and  C_26
REMARK   10  A    between atoms: C_24  and  C_27
REMARK                            x       y       z     vdW  Elec       q    Type
REMARK                         _______ _______ _______ _____ _____    ______ ____
ROOT
ATOM      1  N   UNL     1       7.421   6.530  16.584  0.00  0.00    -0.343 N 
ATOM      2  H   UNL     1       8.108   6.373  15.854  0.00  0.00    +0.146 HD
ENDROOT
BRANCH   1   8
ATOM      3  C   UNL     1       8.289   7.320  18.714  0.00  0.00    -0.029 A 
ATOM      4  C   UNL     1       8.727   8.371  19.544  0.00  0.00    -0.045 A 
ATOM      5  C   UNL     1       8.721   9.692  19.089  0.00  0.00    +0.037 A 
ATOM      6  C   UNL     1       8.305   9.959  17.786  0.00  0.00    -0.048 A 
ATOM      7  C   UNL     1       7.861   8.920  16.960  0.00  0.00    -0.040 A 
ATOM      8  C   UNL     1       7.805   7.594  17.412  0.00  0.00    +0.030 A 
ATOM      9  H   UNL     1       9.113   8.139  20.533  0.00  0.00    +0.063 HD
ATOM     10  H   UNL     1       8.326  10.978  17.403  0.00  0.00    +0.063 HD
ATOM     11  H   UNL     1       7.559   9.185  15.951  0.00  0.00    +0.064 HD
BRANCH   3  12
ATOM     12  C   UNL     1       8.346   5.914  19.253  0.00  0.00    -0.038 C 
ATOM     13  H   UNL     1       7.551   5.301  18.816  0.00  0.00    +0.028 HD
ATOM     14  H   UNL     1       8.243   5.926  20.343  0.00  0.00    +0.028 HD
ATOM     15  H   UNL     1       9.296   5.427  19.011  0.00  0.00    +0.028 HD
ENDBRANCH   3  12
BRANCH   5  16
ATOM     16  C   UNL     1       9.185  10.825  19.937  0.00  0.00    +0.244 C 
ATOM     17  O   UNL     1       9.853  11.730  19.449  0.00  0.00    -0.270 OA
ATOM     18  N   UNL     1       8.787  10.800  21.260  0.00  0.00    -0.308 N 
ATOM     19  H   UNL     1       8.027  10.183  21.513  0.00  0.00    +0.149 HD
BRANCH  18  20
ATOM     20  C   UNL     1       9.067  11.914  22.140  0.00  0.00    +0.023 C 
ATOM     21  C   UNL     1       8.397  11.767  23.499  0.00  0.00    -0.034 C 
ATOM     22  C   UNL     1       8.436  13.178  24.071  0.00  0.00    -0.051 C 
ATOM     23  C   UNL     1       8.388  14.117  22.866  0.00  0.00    -0.051 C 
ATOM     24  C   UNL     1       8.495  13.233  21.626  0.00  0.00    -0.034 C 
ATOM     25  H   UNL     1      10.154  12.006  22.264  0.00  0.00    +0.050 HD
ATOM     26  H   UNL     1       8.910  11.045  24.142  0.00  0.00    +0.028 HD
ATOM     27  H   UNL     1       7.357  11.435  23.392  0.00  0.00    +0.028 HD
ATOM     28  H   UNL     1       9.370  13.335  24.624  0.00  0.00    +0.027 HD
ATOM     29  H   UNL     1       7.608  13.357  24.765  0.00  0.00    +0.027 HD
ATOM     30  H   UNL     1       7.461  14.700  22.847  0.00  0.00    +0.027 HD
ATOM     31  H   UNL     1       9.220  14.828  22.910  0.00  0.00    +0.027 HD
ATOM     32  H   UNL     1       7.498  13.082  21.193  0.00  0.00    +0.028 HD
ATOM     33  H   UNL     1       9.121  13.686  20.850  0.00  0.00    +0.028 HD
ENDBRANCH  18  20
ENDBRANCH   5  16
ENDBRANCH   1   8
BRANCH   1  34
ATOM     34  C   UNL     1       6.885   5.295  17.151  0.00  0.00    +0.012 C 
ATOM     35  H   UNL     1       7.310   4.423  16.640  0.00  0.00    +0.046 HD
ATOM     36  H   UNL     1       7.151   5.239  18.213  0.00  0.00    +0.046 HD
BRANCH  34  37
ATOM     37  C   UNL     1       5.349   5.282  17.043  0.00  0.00    -0.023 C 
ATOM     38  C   UNL     1       4.767   3.860  17.179  0.00  0.00    -0.033 C 
ATOM     39  C   UNL     1       3.238   3.886  17.189  0.00  0.00    +0.015 C 
ATOM     40  N   UNL     1       2.758   4.767  18.249  0.00  0.00    -0.301 N 
ATOM     41  C   UNL     1       2.189   4.411  19.466  0.00  0.00    +0.221 C 
ATOM     42  O   UNL     1       2.069   5.266  20.353  0.00  0.00    -0.275 OA
ATOM     43  C   UNL     1       3.209   6.150  18.082  0.00  0.00    +0.015 C 
ATOM     44  C   UNL     1       4.736   6.208  18.111  0.00  0.00    -0.033 C 
ATOM     45  H   UNL     1       5.064   5.672  16.055  0.00  0.00    +0.032 HD
ATOM     46  H   UNL     1       5.102   3.224  16.352  0.00  0.00    +0.028 HD
ATOM     47  H   UNL     1       5.130   3.402  18.108  0.00  0.00    +0.028 HD
ATOM     48  H   UNL     1       2.858   2.876  17.276  0.00  0.00    +0.046 HD
ATOM     49  H   UNL     1       2.861   4.280  16.237  0.00  0.00    +0.046 HD
ATOM     50  H   UNL     1       2.832   6.509  17.116  0.00  0.00    +0.046 HD
ATOM     51  H   UNL     1       2.797   6.813  18.849  0.00  0.00    +0.046 HD
ATOM     52  H   UNL     1       5.063   7.242  17.945  0.00  0.00    +0.028 HD
ATOM     53  H   UNL     1       5.092   5.911  19.107  0.00  0.00    +0.028 HD
BRANCH  41  54
ATOM     54  C   UNL     1       1.683   2.968  19.746  0.00  0.00    +0.039 C 
BRANCH  54  55
ATOM     55  C   UNL     1       0.462   2.618  18.883  0.00  0.00    -0.052 C 
ATOM     56  H   UNL     1       0.694   2.510  17.823  0.00  0.00    +0.024 HD
ATOM     57  H   UNL     1       0.011   1.673  19.206  0.00  0.00    +0.024 HD
ATOM     58  H   UNL     1      -0.303   3.398  18.961  0.00  0.00    +0.024 HD
ENDBRANCH  54  55
BRANCH  54  59
ATOM     59  C   UNL     1       2.807   1.928  19.623  0.00  0.00    -0.052 C 
ATOM     60  H   UNL     1       2.648   1.206  18.820  0.00  0.00    +0.024 HD
ATOM     61  H   UNL     1       2.902   1.339  20.543  0.00  0.00    +0.024 HD
ATOM     62  H   UNL     1       3.771   2.415  19.438  0.00  0.00    +0.024 HD
ENDBRANCH  54  59
BRANCH  54  63
ATOM     63  C   UNL     1       1.202   2.914  21.222  0.00  0.00    -0.052 C 
ATOM     64  H   UNL     1       2.045   2.980  21.920  0.00  0.00    +0.024 HD
ATOM     65  H   UNL     1       0.521   3.742  21.452  0.00  0.00    +0.024 HD
ATOM     66  H   UNL     1       0.670   1.980  21.435  0.00  0.00    +0.024 HD
ENDBRANCH  54  63
ENDBRANCH  41  54
ENDBRANCH  34  37
ENDBRANCH   1  34
TORSDOF 10
ENDMDL
