MODEL 1
REMARK VINA RESULT:    -8.172      0.000      0.000
REMARK INTER + INTRA:         -12.850
REMARK INTER:                 -12.157
REMARK INTRA:                  -0.693
REMARK UNBOUND:                -0.856
REMARK  Name = 
REMARK  9 active torsions:
REMARK  status: ('A' for Active; 'I' for Inactive)
REMARK    1  A    between atoms: C_1  and  C_2
REMARK    2  A    between atoms: C_5  and  C_6
REMARK    3  A    between atoms: C_6  and  N_7
REMARK    4  A    between atoms: N_7  and  C_8
REMARK    5  A    between atoms: N_7  and  C_9
REMARK    6  A    between atoms: C_12  and  C_13
REMARK    7  A    between atoms: C_13  and  N_14
REMARK    8  A    between atoms: N_17  and  C_18
REMARK    9  A    between atoms: C_27  and  C_28
REMARK                            x       y       z     vdW  Elec       q    Type
REMARK                         _______ _______ _______ _____ _____    ______ ____
ROOT
ATOM      1  C   UNL     1       1.923   4.352  18.828  0.00  0.00    +0.030 A 
ATOM      2  C   UNL     1       1.594   4.532  20.178  0.00  0.00    -0.040 A 
ATOM      3  C   UNL     1       1.602   5.796  20.781  0.00  0.00    -0.055 A 
ATOM      4  C   UNL     1       1.948   6.941  20.052  0.00  0.00    -0.018 A 
ATOM      5  C   UNL     1       2.313   6.781  18.704  0.00  0.00    +0.043 A 
ATOM      6  C   UNL     1       2.288   5.502  18.111  0.00  0.00    -0.028 A 
ATOM      7  H   UNL     1       1.358   3.673  20.804  0.00  0.00    +0.064 HD
ATOM      8  H   UNL     1       1.361   5.872  21.840  0.00  0.00    +0.062 HD
ATOM      9  H   UNL     1       2.517   5.421  17.053  0.00  0.00    +0.064 HD
ENDROOT
BRANCH   5  10
ATOM     10  C   UNL     1       2.734   7.945  17.872  0.00  0.00    +0.242 C 
ATOM     11  N   UNL     1       1.736   8.763  17.418  0.00  0.00    -0.325 N 
ATOM     12  O   UNL     1       3.899   8.165  17.573  0.00  0.00    -0.270 OA
ATOM     13  H   UNL     1       0.760   8.505  17.465  0.00  0.00    +0.145 HD
ATOM     14  H   UNL     1       2.008   9.512  16.796  0.00  0.00    +0.145 HD
ENDBRANCH   5  10
BRANCH   4  15
ATOM     15  C   UNL     1       1.970   8.272  20.759  0.00  0.00    +0.039 C 
ATOM     16  H   UNL     1       2.384   8.172  21.767  0.00  0.00    +0.051 HD
ATOM     17  H   UNL     1       2.623   8.984  20.237  0.00  0.00    +0.051 HD
BRANCH  15  18
ATOM     18  N   UNL     1       0.642   8.834  20.856  0.00  0.00    -0.295 N 
ATOM     19  C   UNL     1       0.308   9.987  20.206  0.00  0.00    +0.300 C 
ATOM     20  O   UNL     1       1.073  10.634  19.506  0.00  0.00    -0.253 OA
ATOM     21  N   UNL     1      -1.009  10.307  20.419  0.00  0.00    -0.293 N 
ATOM     22  H   UNL     1       0.121   8.609  21.694  0.00  0.00    +0.151 HD
ATOM     23  H   UNL     1      -1.593   9.499  20.557  0.00  0.00    +0.151 HD
BRANCH  21  24
ATOM     24  C   UNL     1      -1.591  11.402  19.675  0.00  0.00    +0.050 C 
ATOM     25  C   UNL     1      -2.775  12.055  20.418  0.00  0.00    -0.026 C 
ATOM     26  C   UNL     1      -3.694  12.635  19.337  0.00  0.00    -0.025 C 
ATOM     27  C   UNL     1      -3.456  11.683  18.207  0.00  0.00    -0.042 A 
ATOM     28  C   UNL     1      -4.219  11.517  17.065  0.00  0.00    -0.058 A 
ATOM     29  C   UNL     1      -3.780  10.611  16.098  0.00  0.00    -0.061 A 
ATOM     30  C   UNL     1      -2.583   9.901  16.277  0.00  0.00    -0.061 A 
ATOM     31  C   UNL     1      -1.810  10.085  17.426  0.00  0.00    -0.057 A 
ATOM     32  C   UNL     1      -2.260  10.973  18.394  0.00  0.00    -0.024 A 
ATOM     33  H   UNL     1      -0.816  12.145  19.445  0.00  0.00    +0.055 HD
ATOM     34  H   UNL     1      -2.450  12.818  21.135  0.00  0.00    +0.029 HD
ATOM     35  H   UNL     1      -3.328  11.297  20.990  0.00  0.00    +0.029 HD
ATOM     36  H   UNL     1      -3.377  13.644  19.052  0.00  0.00    +0.031 HD
ATOM     37  H   UNL     1      -4.737  12.649  19.659  0.00  0.00    +0.031 HD
ATOM     38  H   UNL     1      -5.137  12.080  16.917  0.00  0.00    +0.062 HD
ATOM     39  H   UNL     1      -4.364  10.465  15.192  0.00  0.00    +0.062 HD
ATOM     40  H   UNL     1      -2.250   9.210  15.507  0.00  0.00    +0.062 HD
ATOM     41  H   UNL     1      -0.872   9.551  17.541  0.00  0.00    +0.062 HD
ENDBRANCH  21  24
ENDBRANCH  15  18
ENDBRANCH   4  15
BRANCH   1  42
ATOM     42  N   UNL     1       1.909   3.075  18.259  0.00  0.00    -0.329 N 
BRANCH  42  43
ATOM     43  C   UNL     1       0.841   2.148  18.625  0.00  0.00    +0.001 C 
ATOM     44  H   UNL     1       0.118   2.629  19.292  0.00  0.00    +0.043 HD
ATOM     45  H   UNL     1       1.234   1.245  19.109  0.00  0.00    +0.043 HD
ATOM     46  H   UNL     1       0.286   1.835  17.731  0.00  0.00    +0.043 HD
ENDBRANCH  42  43
BRANCH  42  47
ATOM     47  C   UNL     1       3.212   2.460  17.943  0.00  0.00    +0.037 C 
ATOM     48  H   UNL     1       3.464   1.739  18.731  0.00  0.00    +0.051 HD
ATOM     49  H   UNL     1       3.181   1.859  17.028  0.00  0.00    +0.051 HD
BRANCH  47  53
ATOM     50  C   UNL     1       6.361   5.427  17.654  0.00  0.00    -0.050 A 
ATOM     51  C   UNL     1       5.688   4.992  16.507  0.00  0.00    -0.059 A 
ATOM     52  C   UNL     1       4.675   4.034  16.600  0.00  0.00    -0.057 A 
ATOM     53  C   UNL     1       4.326   3.481  17.840  0.00  0.00    -0.030 A 
ATOM     54  C   UNL     1       5.016   3.907  18.984  0.00  0.00    -0.057 A 
ATOM     55  C   UNL     1       6.026   4.867  18.891  0.00  0.00    -0.059 A 
ATOM     56  H   UNL     1       5.940   5.402  15.532  0.00  0.00    +0.062 HD
ATOM     57  H   UNL     1       4.154   3.723  15.697  0.00  0.00    +0.062 HD
ATOM     58  H   UNL     1       4.768   3.493  19.961  0.00  0.00    +0.062 HD
ATOM     59  H   UNL     1       6.544   5.181  19.792  0.00  0.00    +0.062 HD
BRANCH  50  60
ATOM     60  C   UNL     1       7.461   6.439  17.547  0.00  0.00    -0.040 C 
ATOM     61  H   UNL     1       7.043   7.450  17.582  0.00  0.00    +0.028 HD
ATOM     62  H   UNL     1       8.016   6.319  16.611  0.00  0.00    +0.028 HD
ATOM     63  H   UNL     1       8.177   6.322  18.368  0.00  0.00    +0.028 HD
ENDBRANCH  50  60
ENDBRANCH  47  53
ENDBRANCH  42  47
ENDBRANCH   1  42
TORSDOF 9
ENDMDL
MODEL 2
REMARK VINA RESULT:    -7.819      2.967      4.239
REMARK INTER + INTRA:         -12.333
REMARK INTER:                 -11.326
REMARK INTRA:                  -1.006
REMARK UNBOUND:                -0.856
REMARK  Name = 
REMARK  9 active torsions:
REMARK  status: ('A' for Active; 'I' for Inactive)
REMARK    1  A    between atoms: C_1  and  C_2
REMARK    2  A    between atoms: C_5  and  C_6
REMARK    3  A    between atoms: C_6  and  N_7
REMARK    4  A    between atoms: N_7  and  C_8
REMARK    5  A    between atoms: N_7  and  C_9
REMARK    6  A    between atoms: C_12  and  C_13
REMARK    7  A    between atoms: C_13  and  N_14
REMARK    8  A    between atoms: N_17  and  C_18
REMARK    9  A    between atoms: C_27  and  C_28
REMARK                            x       y       z     vdW  Elec       q    Type
REMARK                         _______ _______ _______ _____ _____    ______ ____
ROOT
ATOM      1  C   UNL     1       4.022   5.298  17.955  0.00  0.00    +0.030 A 
ATOM      2  C   UNL     1       3.658   6.651  17.990  0.00  0.00    -0.040 A 
ATOM      3  C   UNL     1       2.755   7.151  18.936  0.00  0.00    -0.055 A 
ATOM      4  C   UNL     1       2.168   6.309  19.889  0.00  0.00    -0.018 A 
ATOM      5  C   UNL     1       2.492   4.942  19.852  0.00  0.00    +0.043 A 
ATOM      6  C   UNL     1       3.413   4.459  18.901  0.00  0.00    -0.028 A 
ATOM      7  H   UNL     1       4.050   7.343  17.248  0.00  0.00    +0.064 HD
ATOM      8  H   UNL     1       2.491   8.206  18.900  0.00  0.00    +0.062 HD
ATOM      9  H   UNL     1       3.688   3.408  18.938  0.00  0.00    +0.064 HD
ENDROOT
BRANCH   5  10
ATOM     10  C   UNL     1       1.879   3.974  20.807  0.00  0.00    +0.242 C 
ATOM     11  N   UNL     1       0.716   3.376  20.408  0.00  0.00    -0.325 N 
ATOM     12  O   UNL     1       2.354   3.731  21.907  0.00  0.00    -0.270 OA
ATOM     13  H   UNL     1       0.186   3.699  19.610  0.00  0.00    +0.145 HD
ATOM     14  H   UNL     1       0.259   2.774  21.078  0.00  0.00    +0.145 HD
ENDBRANCH   5  10
BRANCH   4  15
ATOM     15  C   UNL     1       1.178   6.895  20.864  0.00  0.00    +0.039 C 
ATOM     16  H   UNL     1       0.166   6.883  20.447  0.00  0.00    +0.051 HD
ATOM     17  H   UNL     1       1.131   6.297  21.783  0.00  0.00    +0.051 HD
BRANCH  15  18
ATOM     18  N   UNL     1       1.524   8.256  21.204  0.00  0.00    -0.295 N 
ATOM     19  C   UNL     1       0.868   9.317  20.652  0.00  0.00    +0.300 C 
ATOM     20  O   UNL     1      -0.043   9.222  19.841  0.00  0.00    -0.253 OA
ATOM     21  N   UNL     1       1.345  10.503  21.147  0.00  0.00    -0.293 N 
ATOM     22  H   UNL     1       2.475   8.412  21.513  0.00  0.00    +0.151 HD
ATOM     23  H   UNL     1       1.684  10.427  22.092  0.00  0.00    +0.151 HD
BRANCH  21  24
ATOM     24  C   UNL     1       0.659  11.730  20.808  0.00  0.00    +0.050 C 
ATOM     25  C   UNL     1       1.604  12.951  20.800  0.00  0.00    -0.026 C 
ATOM     26  C   UNL     1       0.736  14.167  21.138  0.00  0.00    -0.025 C 
ATOM     27  C   UNL     1      -0.307  13.551  22.017  0.00  0.00    -0.042 A 
ATOM     28  C   UNL     1      -1.191  14.198  22.862  0.00  0.00    -0.058 A 
ATOM     29  C   UNL     1      -2.133  13.430  23.550  0.00  0.00    -0.061 A 
ATOM     30  C   UNL     1      -2.188  12.040  23.372  0.00  0.00    -0.061 A 
ATOM     31  C   UNL     1      -1.302  11.396  22.506  0.00  0.00    -0.057 A 
ATOM     32  C   UNL     1      -0.354  12.160  21.838  0.00  0.00    -0.024 A 
ATOM     33  H   UNL     1       0.160  11.616  19.836  0.00  0.00    +0.055 HD
ATOM     34  H   UNL     1       2.126  13.070  19.844  0.00  0.00    +0.029 HD
ATOM     35  H   UNL     1       2.377  12.836  21.572  0.00  0.00    +0.029 HD
ATOM     36  H   UNL     1       0.271  14.581  20.236  0.00  0.00    +0.031 HD
ATOM     37  H   UNL     1       1.310  14.943  21.650  0.00  0.00    +0.031 HD
ATOM     38  H   UNL     1      -1.161  15.276  22.986  0.00  0.00    +0.062 HD
ATOM     39  H   UNL     1      -2.839  13.918  24.220  0.00  0.00    +0.062 HD
ATOM     40  H   UNL     1      -2.938  11.461  23.906  0.00  0.00    +0.062 HD
ATOM     41  H   UNL     1      -1.372  10.324  22.354  0.00  0.00    +0.062 HD
ENDBRANCH  21  24
ENDBRANCH  15  18
ENDBRANCH   4  15
BRANCH   1  42
ATOM     42  N   UNL     1       4.923   4.831  16.994  0.00  0.00    -0.329 N 
BRANCH  42  43
ATOM     43  C   UNL     1       4.438   3.948  15.936  0.00  0.00    +0.001 C 
ATOM     44  H   UNL     1       3.650   4.436  15.352  0.00  0.00    +0.043 HD
ATOM     45  H   UNL     1       4.056   3.002  16.339  0.00  0.00    +0.043 HD
ATOM     46  H   UNL     1       5.250   3.712  15.235  0.00  0.00    +0.043 HD
ENDBRANCH  42  43
BRANCH  42  47
ATOM     47  C   UNL     1       6.317   4.611  17.423  0.00  0.00    +0.037 C 
ATOM     48  H   UNL     1       6.318   3.964  18.310  0.00  0.00    +0.051 HD
ATOM     49  H   UNL     1       6.902   4.054  16.684  0.00  0.00    +0.051 HD
BRANCH  47  53
ATOM     50  C   UNL     1       8.312   8.330  18.420  0.00  0.00    -0.050 A 
ATOM     51  C   UNL     1       7.546   8.226  17.254  0.00  0.00    -0.059 A 
ATOM     52  C   UNL     1       6.906   7.026  16.931  0.00  0.00    -0.057 A 
ATOM     53  C   UNL     1       7.032   5.904  17.761  0.00  0.00    -0.030 A 
ATOM     54  C   UNL     1       7.814   6.008  18.919  0.00  0.00    -0.057 A 
ATOM     55  C   UNL     1       8.451   7.208  19.243  0.00  0.00    -0.059 A 
ATOM     56  H   UNL     1       7.435   9.080  16.590  0.00  0.00    +0.062 HD
ATOM     57  H   UNL     1       6.303   6.974  16.027  0.00  0.00    +0.062 HD
ATOM     58  H   UNL     1       7.932   5.152  19.582  0.00  0.00    +0.062 HD
ATOM     59  H   UNL     1       9.052   7.264  20.147  0.00  0.00    +0.062 HD
BRANCH  50  60
ATOM     60  C   UNL     1       9.015   9.612  18.751  0.00  0.00    -0.040 C 
ATOM     61  H   UNL     1       9.246  10.160  17.832  0.00  0.00    +0.028 HD
ATOM     62  H   UNL     1       9.947   9.421  19.292  0.00  0.00    +0.028 HD
ATOM     63  H   UNL     1       8.390  10.243  19.393  0.00  0.00    +0.028 HD
ENDBRANCH  50  60
ENDBRANCH  47  53
ENDBRANCH  42  47
ENDBRANCH   1  42
TORSDOF 9
ENDMDL
MODEL 3
REMARK VINA RESULT:    -7.729      4.437      8.822
REMARK INTER + INTRA:         -12.200
REMARK INTER:                 -10.730
REMARK INTRA:                  -1.469
REMARK UNBOUND:                -0.856
REMARK  Name = 
REMARK  9 active torsions:
REMARK  status: ('A' for Active; 'I' for Inactive)
REMARK    1  A    between atoms: C_1  and  C_2
REMARK    2  A    between atoms: C_5  and  C_6
REMARK    3  A    between atoms: C_6  and  N_7
REMARK    4  A    between atoms: N_7  and  C_8
REMARK    5  A    between atoms: N_7  and  C_9
REMARK    6  A    between atoms: C_12  and  C_13
REMARK    7  A    between atoms: C_13  and  N_14
REMARK    8  A    between atoms: N_17  and  C_18
REMARK    9  A    between atoms: C_27  and  C_28
REMARK                            x       y       z     vdW  Elec       q    Type
REMARK                         _______ _______ _______ _____ _____    ______ ____
ROOT
ATOM      1  C   UNL     1       2.514  13.302  19.576  0.00  0.00    +0.030 A 
ATOM      2  C   UNL     1       2.744  12.786  18.294  0.00  0.00    -0.040 A 
ATOM      3  C   UNL     1       2.147  11.599  17.855  0.00  0.00    -0.055 A 
ATOM      4  C   UNL     1       1.292  10.868  18.691  0.00  0.00    -0.018 A 
ATOM      5  C   UNL     1       1.073  11.349  19.993  0.00  0.00    +0.043 A 
ATOM      6  C   UNL     1       1.673  12.553  20.414  0.00  0.00    -0.028 A 
ATOM      7  H   UNL     1       3.432  13.289  17.616  0.00  0.00    +0.064 HD
ATOM      8  H   UNL     1       2.381  11.232  16.857  0.00  0.00    +0.062 HD
ATOM      9  H   UNL     1       1.435  12.928  21.405  0.00  0.00    +0.064 HD
ENDROOT
BRANCH   5  10
ATOM     10  C   UNL     1       0.209  10.608  20.957  0.00  0.00    +0.242 C 
ATOM     11  N   UNL     1       0.839   9.718  21.783  0.00  0.00    -0.325 N 
ATOM     12  O   UNL     1      -1.005  10.748  21.009  0.00  0.00    -0.270 OA
ATOM     13  H   UNL     1       1.794   9.423  21.634  0.00  0.00    +0.145 HD
ATOM     14  H   UNL     1       0.251   9.163  22.389  0.00  0.00    +0.145 HD
ENDBRANCH   5  10
BRANCH   4  15
ATOM     15  C   UNL     1       0.701   9.580  18.178  0.00  0.00    +0.039 C 
ATOM     16  H   UNL     1       0.084   9.101  18.944  0.00  0.00    +0.051 HD
ATOM     17  H   UNL     1       0.033   9.766  17.327  0.00  0.00    +0.051 HD
BRANCH  15  18
ATOM     18  N   UNL     1       1.736   8.656  17.772  0.00  0.00    -0.295 N 
ATOM     19  C   UNL     1       2.306   7.790  18.659  0.00  0.00    +0.300 C 
ATOM     20  O   UNL     1       2.008   7.716  19.843  0.00  0.00    -0.253 OA
ATOM     21  N   UNL     1       3.236   6.994  18.041  0.00  0.00    -0.293 N 
ATOM     22  H   UNL     1       2.294   8.933  16.973  0.00  0.00    +0.151 HD
ATOM     23  H   UNL     1       3.020   6.815  17.074  0.00  0.00    +0.151 HD
BRANCH  21  24
ATOM     24  C   UNL     1       3.823   5.900  18.782  0.00  0.00    +0.050 C 
ATOM     25  C   UNL     1       5.229   5.525  18.266  0.00  0.00    -0.026 C 
ATOM     26  C   UNL     1       5.420   4.038  18.582  0.00  0.00    -0.025 C 
ATOM     27  C   UNL     1       4.013   3.535  18.494  0.00  0.00    -0.042 A 
ATOM     28  C   UNL     1       3.588   2.222  18.394  0.00  0.00    -0.058 A 
ATOM     29  C   UNL     1       2.216   1.966  18.390  0.00  0.00    -0.061 A 
ATOM     30  C   UNL     1       1.294   3.017  18.503  0.00  0.00    -0.061 A 
ATOM     31  C   UNL     1       1.731   4.340  18.620  0.00  0.00    -0.057 A 
ATOM     32  C   UNL     1       3.096   4.591  18.604  0.00  0.00    -0.024 A 
ATOM     33  H   UNL     1       3.854   6.153  19.850  0.00  0.00    +0.055 HD
ATOM     34  H   UNL     1       6.016   6.145  18.709  0.00  0.00    +0.029 HD
ATOM     35  H   UNL     1       5.283   5.672  17.178  0.00  0.00    +0.029 HD
ATOM     36  H   UNL     1       5.807   3.899  19.596  0.00  0.00    +0.031 HD
ATOM     37  H   UNL     1       6.082   3.554  17.860  0.00  0.00    +0.031 HD
ATOM     38  H   UNL     1       4.302   1.406  18.324  0.00  0.00    +0.062 HD
ATOM     39  H   UNL     1       1.860   0.941  18.312  0.00  0.00    +0.062 HD
ATOM     40  H   UNL     1       0.229   2.797  18.513  0.00  0.00    +0.062 HD
ATOM     41  H   UNL     1       1.009   5.142  18.735  0.00  0.00    +0.062 HD
ENDBRANCH  21  24
ENDBRANCH  15  18
ENDBRANCH   4  15
BRANCH   1  42
ATOM     42  N   UNL     1       3.131  14.489  19.984  0.00  0.00    -0.329 N 
BRANCH  42  43
ATOM     43  C   UNL     1       2.527  15.267  21.063  0.00  0.00    +0.001 C 
ATOM     44  H   UNL     1       3.214  15.355  21.912  0.00  0.00    +0.043 HD
ATOM     45  H   UNL     1       1.584  14.823  21.406  0.00  0.00    +0.043 HD
ATOM     46  H   UNL     1       2.313  16.289  20.722  0.00  0.00    +0.043 HD
ENDBRANCH  42  43
BRANCH  42  47
ATOM     47  C   UNL     1       3.848  15.267  18.957  0.00  0.00    +0.037 C 
ATOM     48  H   UNL     1       3.441  15.014  17.969  0.00  0.00    +0.051 HD
ATOM     49  H   UNL     1       3.676  16.345  19.049  0.00  0.00    +0.051 HD
BRANCH  47  53
ATOM     50  C   UNL     1       8.122  14.536  18.933  0.00  0.00    -0.050 A 
ATOM     51  C   UNL     1       7.360  14.326  17.779  0.00  0.00    -0.059 A 
ATOM     52  C   UNL     1       5.982  14.558  17.788  0.00  0.00    -0.057 A 
ATOM     53  C   UNL     1       5.338  14.992  18.955  0.00  0.00    -0.030 A 
ATOM     54  C   UNL     1       6.104  15.184  20.114  0.00  0.00    -0.057 A 
ATOM     55  C   UNL     1       7.481  14.955  20.103  0.00  0.00    -0.059 A 
ATOM     56  H   UNL     1       7.833  13.987  16.861  0.00  0.00    +0.062 HD
ATOM     57  H   UNL     1       5.412  14.403  16.874  0.00  0.00    +0.062 HD
ATOM     58  H   UNL     1       5.630  15.518  21.036  0.00  0.00    +0.062 HD
ATOM     59  H   UNL     1       8.053  15.112  21.014  0.00  0.00    +0.062 HD
BRANCH  50  60
ATOM     60  C   UNL     1       9.597  14.265  18.925  0.00  0.00    -0.040 C 
ATOM     61  H   UNL     1      10.145  15.184  18.694  0.00  0.00    +0.028 HD
ATOM     62  H   UNL     1       9.853  13.505  18.180  0.00  0.00    +0.028 HD
ATOM     63  H   UNL     1       9.928  13.890  19.900  0.00  0.00    +0.028 HD
ENDBRANCH  50  60
ENDBRANCH  47  53
ENDBRANCH  42  47
ENDBRANCH   1  42
TORSDOF 9
ENDMDL
MODEL 4
REMARK VINA RESULT:    -7.593      3.095      4.070
REMARK INTER + INTRA:         -12.001
REMARK INTER:                 -10.883
REMARK INTRA:                  -1.118
REMARK UNBOUND:                -0.856
REMARK  Name = 
REMARK  9 active torsions:
REMARK  status: ('A' for Active; 'I' for Inactive)
REMARK    1  A    between atoms: C_1  and  C_2
REMARK    2  A    between atoms: C_5  and  C_6
REMARK    3  A    between atoms: C_6  and  N_7
REMARK    4  A    between atoms: N_7  and  C_8
REMARK    5  A    between atoms: N_7  and  C_9
REMARK    6  A    between atoms: C_12  and  C_13
REMARK    7  A    between atoms: C_13  and  N_14
REMARK    8  A    between atoms: N_17  and  C_18
REMARK    9  A    between atoms: C_27  and  C_28
REMARK                            x       y       z     vdW  Elec       q    Type
REMARK                         _______ _______ _______ _____ _____    ______ ____
ROOT
ATOM      1  C   UNL     1       4.070   5.093  17.934  0.00  0.00    +0.030 A 
ATOM      2  C   UNL     1       3.745   6.456  17.929  0.00  0.00    -0.040 A 
ATOM      3  C   UNL     1       2.867   7.011  18.868  0.00  0.00    -0.055 A 
ATOM      4  C   UNL     1       2.268   6.217  19.855  0.00  0.00    -0.018 A 
ATOM      5  C   UNL     1       2.553   4.841  19.858  0.00  0.00    +0.043 A 
ATOM      6  C   UNL     1       3.449   4.302  18.913  0.00  0.00    -0.028 A 
ATOM      7  H   UNL     1       4.147   7.112  17.161  0.00  0.00    +0.064 HD
ATOM      8  H   UNL     1       2.632   8.072  18.801  0.00  0.00    +0.062 HD
ATOM      9  H   UNL     1       3.695   3.246  18.981  0.00  0.00    +0.064 HD
ENDROOT
BRANCH   5  10
ATOM     10  C   UNL     1       1.924   3.922  20.851  0.00  0.00    +0.242 C 
ATOM     11  N   UNL     1       0.749   3.331  20.476  0.00  0.00    -0.325 N 
ATOM     12  O   UNL     1       2.397   3.713  21.959  0.00  0.00    -0.270 OA
ATOM     13  H   UNL     1       0.224   3.633  19.668  0.00  0.00    +0.145 HD
ATOM     14  H   UNL     1       0.283   2.763  21.170  0.00  0.00    +0.145 HD
ENDBRANCH   5  10
BRANCH   4  15
ATOM     15  C   UNL     1       1.306   6.862  20.820  0.00  0.00    +0.039 C 
ATOM     16  H   UNL     1       0.402   6.255  20.934  0.00  0.00    +0.051 HD
ATOM     17  H   UNL     1       1.746   6.935  21.823  0.00  0.00    +0.051 HD
BRANCH  15  18
ATOM     18  N   UNL     1       0.926   8.183  20.375  0.00  0.00    -0.295 N 
ATOM     19  C   UNL     1       1.051   9.272  21.188  0.00  0.00    +0.300 C 
ATOM     20  O   UNL     1       1.479   9.236  22.333  0.00  0.00    -0.253 OA
ATOM     21  N   UNL     1       0.661  10.416  20.541  0.00  0.00    -0.293 N 
ATOM     22  H   UNL     1       0.218   8.225  19.653  0.00  0.00    +0.151 HD
ATOM     23  H   UNL     1       0.821  10.381  19.548  0.00  0.00    +0.151 HD
BRANCH  21  24
ATOM     24  C   UNL     1       0.882  11.692  21.184  0.00  0.00    +0.050 C 
ATOM     25  C   UNL     1      -0.392  12.239  21.864  0.00  0.00    -0.026 C 
ATOM     26  C   UNL     1      -0.261  13.765  21.858  0.00  0.00    -0.025 C 
ATOM     27  C   UNL     1       0.538  13.988  20.612  0.00  0.00    -0.042 A 
ATOM     28  C   UNL     1       0.721  15.174  19.924  0.00  0.00    -0.058 A 
ATOM     29  C   UNL     1       1.565  15.174  18.812  0.00  0.00    -0.061 A 
ATOM     30  C   UNL     1       2.223  14.000  18.416  0.00  0.00    -0.061 A 
ATOM     31  C   UNL     1       2.045  12.809  19.125  0.00  0.00    -0.057 A 
ATOM     32  C   UNL     1       1.190  12.809  20.219  0.00  0.00    -0.024 A 
ATOM     33  H   UNL     1       1.703  11.604  21.907  0.00  0.00    +0.055 HD
ATOM     34  H   UNL     1      -0.529  11.841  22.876  0.00  0.00    +0.029 HD
ATOM     35  H   UNL     1      -1.281  11.952  21.287  0.00  0.00    +0.029 HD
ATOM     36  H   UNL     1       0.299  14.115  22.732  0.00  0.00    +0.031 HD
ATOM     37  H   UNL     1      -1.237  14.254  21.821  0.00  0.00    +0.031 HD
ATOM     38  H   UNL     1       0.226  16.088  20.242  0.00  0.00    +0.062 HD
ATOM     39  H   UNL     1       1.723  16.096  18.257  0.00  0.00    +0.062 HD
ATOM     40  H   UNL     1       2.887  14.022  17.556  0.00  0.00    +0.062 HD
ATOM     41  H   UNL     1       2.581  11.914  18.826  0.00  0.00    +0.062 HD
ENDBRANCH  21  24
ENDBRANCH  15  18
ENDBRANCH   4  15
BRANCH   1  42
ATOM     42  N   UNL     1       4.947   4.570  16.979  0.00  0.00    -0.329 N 
BRANCH  42  43
ATOM     43  C   UNL     1       4.435   3.627  15.987  0.00  0.00    +0.001 C 
ATOM     44  H   UNL     1       3.890   4.151  15.195  0.00  0.00    +0.043 HD
ATOM     45  H   UNL     1       3.778   2.875  16.442  0.00  0.00    +0.043 HD
ATOM     46  H   UNL     1       5.266   3.097  15.502  0.00  0.00    +0.043 HD
ENDBRANCH  42  43
BRANCH  42  47
ATOM     47  C   UNL     1       6.351   4.375  17.384  0.00  0.00    +0.037 C 
ATOM     48  H   UNL     1       6.380   3.714  18.260  0.00  0.00    +0.051 HD
ATOM     49  H   UNL     1       6.937   3.843  16.627  0.00  0.00    +0.051 HD
BRANCH  47  53
ATOM     50  C   UNL     1       8.275   8.124  18.408  0.00  0.00    -0.050 A 
ATOM     51  C   UNL     1       7.576   7.991  17.203  0.00  0.00    -0.059 A 
ATOM     52  C   UNL     1       6.959   6.782  16.872  0.00  0.00    -0.057 A 
ATOM     53  C   UNL     1       7.042   5.678  17.732  0.00  0.00    -0.030 A 
ATOM     54  C   UNL     1       7.758   5.811  18.930  0.00  0.00    -0.057 A 
ATOM     55  C   UNL     1       8.372   7.021  19.262  0.00  0.00    -0.059 A 
ATOM     56  H   UNL     1       7.498   8.830  16.516  0.00  0.00    +0.062 HD
ATOM     57  H   UNL     1       6.407   6.706  15.938  0.00  0.00    +0.062 HD
ATOM     58  H   UNL     1       7.842   4.970  19.617  0.00  0.00    +0.062 HD
ATOM     59  H   UNL     1       8.921   7.100  20.196  0.00  0.00    +0.062 HD
BRANCH  50  60
ATOM     60  C   UNL     1       8.954   9.416  18.750  0.00  0.00    -0.040 C 
ATOM     61  H   UNL     1       8.866   9.612  19.823  0.00  0.00    +0.028 HD
ATOM     62  H   UNL     1       8.506  10.252  18.202  0.00  0.00    +0.028 HD
ATOM     63  H   UNL     1      10.015   9.381  18.480  0.00  0.00    +0.028 HD
ENDBRANCH  50  60
ENDBRANCH  47  53
ENDBRANCH  42  47
ENDBRANCH   1  42
TORSDOF 9
ENDMDL
MODEL 5
REMARK VINA RESULT:    -7.470      3.015      4.595
REMARK INTER + INTRA:         -11.819
REMARK INTER:                 -10.438
REMARK INTRA:                  -1.381
REMARK UNBOUND:                -0.856
REMARK  Name = 
REMARK  9 active torsions:
REMARK  status: ('A' for Active; 'I' for Inactive)
REMARK    1  A    between atoms: C_1  and  C_2
REMARK    2  A    between atoms: C_5  and  C_6
REMARK    3  A    between atoms: C_6  and  N_7
REMARK    4  A    between atoms: N_7  and  C_8
REMARK    5  A    between atoms: N_7  and  C_9
REMARK    6  A    between atoms: C_12  and  C_13
REMARK    7  A    between atoms: C_13  and  N_14
REMARK    8  A    between atoms: N_17  and  C_18
REMARK    9  A    between atoms: C_27  and  C_28
REMARK                            x       y       z     vdW  Elec       q    Type
REMARK                         _______ _______ _______ _____ _____    ______ ____
ROOT
ATOM      1  C   UNL     1       5.716   6.186  18.234  0.00  0.00    +0.030 A 
ATOM      2  C   UNL     1       5.163   7.152  17.383  0.00  0.00    -0.040 A 
ATOM      3  C   UNL     1       3.785   7.396  17.335  0.00  0.00    -0.055 A 
ATOM      4  C   UNL     1       2.895   6.674  18.140  0.00  0.00    -0.018 A 
ATOM      5  C   UNL     1       3.424   5.677  18.978  0.00  0.00    +0.043 A 
ATOM      6  C   UNL     1       4.815   5.453  19.022  0.00  0.00    -0.028 A 
ATOM      7  H   UNL     1       5.801   7.715  16.705  0.00  0.00    +0.064 HD
ATOM      8  H   UNL     1       3.409   8.142  16.636  0.00  0.00    +0.062 HD
ATOM      9  H   UNL     1       5.196   4.717  19.724  0.00  0.00    +0.064 HD
ENDROOT
BRANCH   5  10
ATOM     10  C   UNL     1       2.538   4.836  19.836  0.00  0.00    +0.242 C 
ATOM     11  N   UNL     1       2.312   5.287  21.107  0.00  0.00    -0.325 N 
ATOM     12  O   UNL     1       2.051   3.781  19.457  0.00  0.00    -0.270 OA
ATOM     13  H   UNL     1       2.855   6.031  21.522  0.00  0.00    +0.145 HD
ATOM     14  H   UNL     1       1.771   4.687  21.714  0.00  0.00    +0.145 HD
ENDBRANCH   5  10
BRANCH   4  15
ATOM     15  C   UNL     1       1.419   6.956  18.026  0.00  0.00    +0.039 C 
ATOM     16  H   UNL     1       0.964   6.342  17.242  0.00  0.00    +0.051 HD
ATOM     17  H   UNL     1       0.895   6.694  18.954  0.00  0.00    +0.051 HD
BRANCH  15  18
ATOM     18  N   UNL     1       1.175   8.348  17.724  0.00  0.00    -0.295 N 
ATOM     19  C   UNL     1       0.912   9.255  18.710  0.00  0.00    +0.300 C 
ATOM     20  O   UNL     1       0.856   8.985  19.902  0.00  0.00    -0.253 OA
ATOM     21  N   UNL     1       0.748  10.513  18.191  0.00  0.00    -0.293 N 
ATOM     22  H   UNL     1       0.808   8.549  16.803  0.00  0.00    +0.151 HD
ATOM     23  H   UNL     1       1.288  10.667  17.356  0.00  0.00    +0.151 HD
BRANCH  21  24
ATOM     24  C   UNL     1       0.630  11.633  19.097  0.00  0.00    +0.050 C 
ATOM     25  C   UNL     1      -0.776  12.270  19.067  0.00  0.00    -0.026 C 
ATOM     26  C   UNL     1      -0.589  13.743  19.448  0.00  0.00    -0.025 C 
ATOM     27  C   UNL     1       0.785  14.012  18.918  0.00  0.00    -0.042 A 
ATOM     28  C   UNL     1       1.384  15.241  18.704  0.00  0.00    -0.058 A 
ATOM     29  C   UNL     1       2.708  15.266  18.261  0.00  0.00    -0.061 A 
ATOM     30  C   UNL     1       3.414  14.072  18.057  0.00  0.00    -0.061 A 
ATOM     31  C   UNL     1       2.808  12.835  18.290  0.00  0.00    -0.057 A 
ATOM     32  C   UNL     1       1.485  12.814  18.711  0.00  0.00    -0.024 A 
ATOM     33  H   UNL     1       0.892  11.314  20.114  0.00  0.00    +0.055 HD
ATOM     34  H   UNL     1      -1.482  11.759  19.732  0.00  0.00    +0.029 HD
ATOM     35  H   UNL     1      -1.196  12.212  18.053  0.00  0.00    +0.029 HD
ATOM     36  H   UNL     1      -0.605  13.872  20.535  0.00  0.00    +0.031 HD
ATOM     37  H   UNL     1      -1.347  14.379  18.985  0.00  0.00    +0.031 HD
ATOM     38  H   UNL     1       0.842  16.166  18.880  0.00  0.00    +0.062 HD
ATOM     39  H   UNL     1       3.198  16.221  18.087  0.00  0.00    +0.062 HD
ATOM     40  H   UNL     1       4.449  14.112  17.725  0.00  0.00    +0.062 HD
ATOM     41  H   UNL     1       3.373  11.919  18.155  0.00  0.00    +0.062 HD
ENDBRANCH  21  24
ENDBRANCH  15  18
ENDBRANCH   4  15
BRANCH   1  42
ATOM     42  N   UNL     1       7.096   5.965  18.253  0.00  0.00    -0.329 N 
BRANCH  42  43
ATOM     43  C   UNL     1       7.998   7.110  18.155  0.00  0.00    +0.001 C 
ATOM     44  H   UNL     1       8.989   6.861  18.552  0.00  0.00    +0.043 HD
ATOM     45  H   UNL     1       7.605   7.985  18.688  0.00  0.00    +0.043 HD
ATOM     46  H   UNL     1       8.141   7.393  17.104  0.00  0.00    +0.043 HD
ENDBRANCH  42  43
BRANCH  42  47
ATOM     47  C   UNL     1       7.589   4.708  17.661  0.00  0.00    +0.037 C 
ATOM     48  H   UNL     1       8.683   4.755  17.587  0.00  0.00    +0.051 HD
ATOM     49  H   UNL     1       7.401   3.840  18.302  0.00  0.00    +0.051 HD
BRANCH  47  53
ATOM     50  C   UNL     1       5.989   3.927  13.708  0.00  0.00    -0.050 A 
ATOM     51  C   UNL     1       7.102   4.759  13.872  0.00  0.00    -0.059 A 
ATOM     52  C   UNL     1       7.615   5.013  15.146  0.00  0.00    -0.057 A 
ATOM     53  C   UNL     1       7.016   4.451  16.282  0.00  0.00    -0.030 A 
ATOM     54  C   UNL     1       5.891   3.632  16.115  0.00  0.00    -0.057 A 
ATOM     55  C   UNL     1       5.381   3.376  14.840  0.00  0.00    -0.059 A 
ATOM     56  H   UNL     1       7.584   5.210  13.007  0.00  0.00    +0.062 HD
ATOM     57  H   UNL     1       8.491   5.650  15.248  0.00  0.00    +0.062 HD
ATOM     58  H   UNL     1       5.403   3.185  16.979  0.00  0.00    +0.062 HD
ATOM     59  H   UNL     1       4.508   2.737  14.736  0.00  0.00    +0.062 HD
BRANCH  50  60
ATOM     60  C   UNL     1       5.428   3.673  12.340  0.00  0.00    -0.040 C 
ATOM     61  H   UNL     1       4.985   4.591  11.942  0.00  0.00    +0.028 HD
ATOM     62  H   UNL     1       4.660   2.894  12.369  0.00  0.00    +0.028 HD
ATOM     63  H   UNL     1       6.213   3.332  11.656  0.00  0.00    +0.028 HD
ENDBRANCH  50  60
ENDBRANCH  47  53
ENDBRANCH  42  47
ENDBRANCH   1  42
TORSDOF 9
ENDMDL
MODEL 6
REMARK VINA RESULT:    -7.430      2.081      3.492
REMARK INTER + INTRA:         -11.761
REMARK INTER:                 -11.509
REMARK INTRA:                  -0.253
REMARK UNBOUND:                -0.856
REMARK  Name = 
REMARK  9 active torsions:
REMARK  status: ('A' for Active; 'I' for Inactive)
REMARK    1  A    between atoms: C_1  and  C_2
REMARK    2  A    between atoms: C_5  and  C_6
REMARK    3  A    between atoms: C_6  and  N_7
REMARK    4  A    between atoms: N_7  and  C_8
REMARK    5  A    between atoms: N_7  and  C_9
REMARK    6  A    between atoms: C_12  and  C_13
REMARK    7  A    between atoms: C_13  and  N_14
REMARK    8  A    between atoms: N_17  and  C_18
REMARK    9  A    between atoms: C_27  and  C_28
REMARK                            x       y       z     vdW  Elec       q    Type
REMARK                         _______ _______ _______ _____ _____    ______ ____
ROOT
ATOM      1  C   UNL     1       4.013   5.116  17.997  0.00  0.00    +0.030 A 
ATOM      2  C   UNL     1       3.701   6.480  18.065  0.00  0.00    -0.040 A 
ATOM      3  C   UNL     1       2.826   6.993  19.030  0.00  0.00    -0.055 A 
ATOM      4  C   UNL     1       2.218   6.153  19.973  0.00  0.00    -0.018 A 
ATOM      5  C   UNL     1       2.491   4.776  19.903  0.00  0.00    +0.043 A 
ATOM      6  C   UNL     1       3.383   4.280  18.932  0.00  0.00    -0.028 A 
ATOM      7  H   UNL     1       4.111   7.173  17.333  0.00  0.00    +0.064 HD
ATOM      8  H   UNL     1       2.601   8.058  19.020  0.00  0.00    +0.062 HD
ATOM      9  H   UNL     1       3.619   3.219  18.944  0.00  0.00    +0.064 HD
ENDROOT
BRANCH   5  10
ATOM     10  C   UNL     1       1.851   3.811  20.844  0.00  0.00    +0.242 C 
ATOM     11  N   UNL     1       0.672   3.251  20.436  0.00  0.00    -0.325 N 
ATOM     12  O   UNL     1       2.319   3.540  21.941  0.00  0.00    -0.270 OA
ATOM     13  H   UNL     1       0.152   3.600  19.644  0.00  0.00    +0.145 HD
ATOM     14  H   UNL     1       0.199   2.651  21.099  0.00  0.00    +0.145 HD
ENDBRANCH   5  10
BRANCH   4  15
ATOM     15  C   UNL     1       1.260   6.754  20.970  0.00  0.00    +0.039 C 
ATOM     16  H   UNL     1       0.227   6.672  20.617  0.00  0.00    +0.051 HD
ATOM     17  H   UNL     1       1.296   6.213  21.924  0.00  0.00    +0.051 HD
BRANCH  15  18
ATOM     18  N   UNL     1       1.560   8.148  21.207  0.00  0.00    -0.295 N 
ATOM     19  C   UNL     1       0.584   9.101  21.179  0.00  0.00    +0.300 C 
ATOM     20  O   UNL     1      -0.597   8.877  20.955  0.00  0.00    -0.253 OA
ATOM     21  N   UNL     1       1.099  10.340  21.463  0.00  0.00    -0.293 N 
ATOM     22  H   UNL     1       2.503   8.446  20.989  0.00  0.00    +0.151 HD
ATOM     23  H   UNL     1       1.892  10.304  22.082  0.00  0.00    +0.151 HD
BRANCH  21  24
ATOM     24  C   UNL     1       0.190  11.449  21.646  0.00  0.00    +0.050 C 
ATOM     25  C   UNL     1      -0.844  11.185  22.762  0.00  0.00    -0.026 C 
ATOM     26  C   UNL     1      -2.086  12.006  22.400  0.00  0.00    -0.025 C 
ATOM     27  C   UNL     1      -2.013  12.008  20.905  0.00  0.00    -0.042 A 
ATOM     28  C   UNL     1      -3.014  12.339  20.008  0.00  0.00    -0.058 A 
ATOM     29  C   UNL     1      -2.712  12.335  18.645  0.00  0.00    -0.061 A 
ATOM     30  C   UNL     1      -1.420  12.020  18.202  0.00  0.00    -0.061 A 
ATOM     31  C   UNL     1      -0.410  11.701  19.114  0.00  0.00    -0.057 A 
ATOM     32  C   UNL     1      -0.719  11.687  20.467  0.00  0.00    -0.024 A 
ATOM     33  H   UNL     1       0.761  12.364  21.852  0.00  0.00    +0.055 HD
ATOM     34  H   UNL     1      -0.460  11.438  23.757  0.00  0.00    +0.029 HD
ATOM     35  H   UNL     1      -1.112  10.120  22.785  0.00  0.00    +0.029 HD
ATOM     36  H   UNL     1      -2.006  13.030  22.781  0.00  0.00    +0.031 HD
ATOM     37  H   UNL     1      -3.001  11.540  22.773  0.00  0.00    +0.031 HD
ATOM     38  H   UNL     1      -4.010  12.601  20.353  0.00  0.00    +0.062 HD
ATOM     39  H   UNL     1      -3.484  12.593  17.923  0.00  0.00    +0.062 HD
ATOM     40  H   UNL     1      -1.200  12.036  17.137  0.00  0.00    +0.062 HD
ATOM     41  H   UNL     1       0.593  11.486  18.760  0.00  0.00    +0.062 HD
ENDBRANCH  21  24
ENDBRANCH  15  18
ENDBRANCH   4  15
BRANCH   1  42
ATOM     42  N   UNL     1       4.887   4.637  17.017  0.00  0.00    -0.329 N 
BRANCH  42  43
ATOM     43  C   UNL     1       4.375   3.728  15.994  0.00  0.00    +0.001 C 
ATOM     44  H   UNL     1       5.116   3.576  15.201  0.00  0.00    +0.043 HD
ATOM     45  H   UNL     1       3.443   4.098  15.551  0.00  0.00    +0.043 HD
ATOM     46  H   UNL     1       4.172   2.740  16.430  0.00  0.00    +0.043 HD
ENDBRANCH  42  43
BRANCH  42  47
ATOM     47  C   UNL     1       6.296   4.438  17.405  0.00  0.00    +0.037 C 
ATOM     48  H   UNL     1       6.335   3.762  18.269  0.00  0.00    +0.051 HD
ATOM     49  H   UNL     1       6.875   3.919  16.633  0.00  0.00    +0.051 HD
BRANCH  47  53
ATOM     50  C   UNL     1       8.327   8.132  18.417  0.00  0.00    -0.050 A 
ATOM     51  C   UNL     1       8.394   7.028  19.273  0.00  0.00    -0.059 A 
ATOM     52  C   UNL     1       7.737   5.838  18.948  0.00  0.00    -0.057 A 
ATOM     53  C   UNL     1       6.988   5.735  17.768  0.00  0.00    -0.030 A 
ATOM     54  C   UNL     1       6.908   6.851  16.922  0.00  0.00    -0.057 A 
ATOM     55  C   UNL     1       7.568   8.038  17.246  0.00  0.00    -0.059 A 
ATOM     56  H   UNL     1       8.967   7.081  20.196  0.00  0.00    +0.062 HD
ATOM     57  H   UNL     1       7.818   4.987  19.621  0.00  0.00    +0.062 HD
ATOM     58  H   UNL     1       6.331   6.801  16.001  0.00  0.00    +0.062 HD
ATOM     59  H   UNL     1       7.492   8.888  16.574  0.00  0.00    +0.062 HD
BRANCH  50  60
ATOM     60  C   UNL     1       9.016   9.414  18.780  0.00  0.00    -0.040 C 
ATOM     61  H   UNL     1       8.326  10.069  19.322  0.00  0.00    +0.028 HD
ATOM     62  H   UNL     1       9.369   9.937  17.885  0.00  0.00    +0.028 HD
ATOM     63  H   UNL     1       9.891   9.220  19.410  0.00  0.00    +0.028 HD
ENDBRANCH  50  60
ENDBRANCH  47  53
ENDBRANCH  42  47
ENDBRANCH   1  42
TORSDOF 9
ENDMDL
MODEL 7
REMARK VINA RESULT:    -7.410      1.956      3.065
REMARK INTER + INTRA:         -11.732
REMARK INTER:                 -11.810
REMARK INTRA:                   0.078
REMARK UNBOUND:                -0.856
REMARK  Name = 
REMARK  9 active torsions:
REMARK  status: ('A' for Active; 'I' for Inactive)
REMARK    1  A    between atoms: C_1  and  C_2
REMARK    2  A    between atoms: C_5  and  C_6
REMARK    3  A    between atoms: C_6  and  N_7
REMARK    4  A    between atoms: N_7  and  C_8
REMARK    5  A    between atoms: N_7  and  C_9
REMARK    6  A    between atoms: C_12  and  C_13
REMARK    7  A    between atoms: C_13  and  N_14
REMARK    8  A    between atoms: N_17  and  C_18
REMARK    9  A    between atoms: C_27  and  C_28
REMARK                            x       y       z     vdW  Elec       q    Type
REMARK                         _______ _______ _______ _____ _____    ______ ____
ROOT
ATOM      1  C   UNL     1       4.367   5.457  17.423  0.00  0.00    +0.030 A 
ATOM      2  C   UNL     1       4.163   6.812  17.132  0.00  0.00    -0.040 A 
ATOM      3  C   UNL     1       3.294   7.609  17.887  0.00  0.00    -0.055 A 
ATOM      4  C   UNL     1       2.583   7.077  18.970  0.00  0.00    -0.018 A 
ATOM      5  C   UNL     1       2.747   5.711  19.261  0.00  0.00    +0.043 A 
ATOM      6  C   UNL     1       3.636   4.927  18.497  0.00  0.00    -0.028 A 
ATOM      7  H   UNL     1       4.656   7.269  16.276  0.00  0.00    +0.064 HD
ATOM      8  H   UNL     1       3.156   8.650  17.599  0.00  0.00    +0.062 HD
ATOM      9  H   UNL     1       3.785   3.891  18.786  0.00  0.00    +0.064 HD
ENDROOT
BRANCH   5  10
ATOM     10  C   UNL     1       1.995   5.060  20.372  0.00  0.00    +0.242 C 
ATOM     11  N   UNL     1       2.688   4.836  21.529  0.00  0.00    -0.325 N 
ATOM     12  O   UNL     1       0.828   4.710  20.272  0.00  0.00    -0.270 OA
ATOM     13  H   UNL     1       3.694   4.916  21.583  0.00  0.00    +0.145 HD
ATOM     14  H   UNL     1       2.205   4.332  22.260  0.00  0.00    +0.145 HD
ENDBRANCH   5  10
BRANCH   4  15
ATOM     15  C   UNL     1       1.637   7.973  19.729  0.00  0.00    +0.039 C 
ATOM     16  H   UNL     1       0.679   7.472  19.901  0.00  0.00    +0.051 HD
ATOM     17  H   UNL     1       2.035   8.210  20.724  0.00  0.00    +0.051 HD
BRANCH  15  18
ATOM     18  N   UNL     1       1.396   9.204  19.012  0.00  0.00    -0.295 N 
ATOM     19  C   UNL     1       0.243   9.914  19.183  0.00  0.00    +0.300 C 
ATOM     20  O   UNL     1      -0.667   9.587  19.932  0.00  0.00    -0.253 OA
ATOM     21  N   UNL     1       0.253  11.057  18.426  0.00  0.00    -0.293 N 
ATOM     22  H   UNL     1       1.873   9.305  18.125  0.00  0.00    +0.151 HD
ATOM     23  H   UNL     1       1.177  11.429  18.287  0.00  0.00    +0.151 HD
BRANCH  21  24
ATOM     24  C   UNL     1      -0.809  12.022  18.605  0.00  0.00    +0.050 C 
ATOM     25  C   UNL     1      -1.204  12.196  20.087  0.00  0.00    -0.026 C 
ATOM     26  C   UNL     1      -2.677  12.620  20.092  0.00  0.00    -0.025 C 
ATOM     27  C   UNL     1      -3.184  11.938  18.860  0.00  0.00    -0.042 A 
ATOM     28  C   UNL     1      -4.500  11.710  18.500  0.00  0.00    -0.058 A 
ATOM     29  C   UNL     1      -4.757  11.108  17.266  0.00  0.00    -0.061 A 
ATOM     30  C   UNL     1      -3.702  10.762  16.409  0.00  0.00    -0.061 A 
ATOM     31  C   UNL     1      -2.376  11.010  16.772  0.00  0.00    -0.057 A 
ATOM     32  C   UNL     1      -2.124  11.590  18.008  0.00  0.00    -0.024 A 
ATOM     33  H   UNL     1      -0.511  12.983  18.165  0.00  0.00    +0.055 HD
ATOM     34  H   UNL     1      -0.566  12.919  20.608  0.00  0.00    +0.029 HD
ATOM     35  H   UNL     1      -1.104  11.240  20.620  0.00  0.00    +0.029 HD
ATOM     36  H   UNL     1      -2.773  13.706  19.988  0.00  0.00    +0.031 HD
ATOM     37  H   UNL     1      -3.190  12.285  20.996  0.00  0.00    +0.031 HD
ATOM     38  H   UNL     1      -5.318  11.994  19.156  0.00  0.00    +0.062 HD
ATOM     39  H   UNL     1      -5.784  10.920  16.963  0.00  0.00    +0.062 HD
ATOM     40  H   UNL     1      -3.922  10.308  15.445  0.00  0.00    +0.062 HD
ATOM     41  H   UNL     1      -1.570  10.764  16.089  0.00  0.00    +0.062 HD
ENDBRANCH  21  24
ENDBRANCH  15  18
ENDBRANCH   4  15
BRANCH   1  42
ATOM     42  N   UNL     1       5.239   4.689  16.646  0.00  0.00    -0.329 N 
BRANCH  42  43
ATOM     43  C   UNL     1       4.697   3.587  15.852  0.00  0.00    +0.001 C 
ATOM     44  H   UNL     1       3.902   3.940  15.187  0.00  0.00    +0.043 HD
ATOM     45  H   UNL     1       4.307   2.782  16.487  0.00  0.00    +0.043 HD
ATOM     46  H   UNL     1       5.480   3.160  15.211  0.00  0.00    +0.043 HD
ENDBRANCH  42  43
BRANCH  42  47
ATOM     47  C   UNL     1       6.611   4.500  17.152  0.00  0.00    +0.037 C 
ATOM     48  H   UNL     1       6.584   3.803  18.000  0.00  0.00    +0.051 HD
ATOM     49  H   UNL     1       7.264   4.009  16.423  0.00  0.00    +0.051 HD
BRANCH  47  53
ATOM     50  C   UNL     1       8.374   8.234  18.474  0.00  0.00    -0.050 A 
ATOM     51  C   UNL     1       7.806   8.129  17.200  0.00  0.00    -0.059 A 
ATOM     52  C   UNL     1       7.241   6.925  16.773  0.00  0.00    -0.057 A 
ATOM     53  C   UNL     1       7.246   5.798  17.607  0.00  0.00    -0.030 A 
ATOM     54  C   UNL     1       7.832   5.903  18.876  0.00  0.00    -0.057 A 
ATOM     55  C   UNL     1       8.395   7.108  19.303  0.00  0.00    -0.059 A 
ATOM     56  H   UNL     1       7.791   8.987  16.532  0.00  0.00    +0.062 HD
ATOM     57  H   UNL     1       6.790   6.872  15.785  0.00  0.00    +0.062 HD
ATOM     58  H   UNL     1       7.854   5.043  19.544  0.00  0.00    +0.062 HD
ATOM     59  H   UNL     1       8.842   7.164  20.292  0.00  0.00    +0.062 HD
BRANCH  50  60
ATOM     60  C   UNL     1       8.999   9.522  18.921  0.00  0.00    -0.040 C 
ATOM     61  H   UNL     1       8.234  10.301  18.997  0.00  0.00    +0.028 HD
ATOM     62  H   UNL     1       9.768   9.851  18.215  0.00  0.00    +0.028 HD
ATOM     63  H   UNL     1       9.483   9.401  19.896  0.00  0.00    +0.028 HD
ENDBRANCH  50  60
ENDBRANCH  47  53
ENDBRANCH  42  47
ENDBRANCH   1  42
TORSDOF 9
ENDMDL
MODEL 8
REMARK VINA RESULT:    -7.358      2.444      3.641
REMARK INTER + INTRA:         -11.655
REMARK INTER:                 -11.446
REMARK INTRA:                  -0.209
REMARK UNBOUND:                -0.856
REMARK  Name = 
REMARK  9 active torsions:
REMARK  status: ('A' for Active; 'I' for Inactive)
REMARK    1  A    between atoms: C_1  and  C_2
REMARK    2  A    between atoms: C_5  and  C_6
REMARK    3  A    between atoms: C_6  and  N_7
REMARK    4  A    between atoms: N_7  and  C_8
REMARK    5  A    between atoms: N_7  and  C_9
REMARK    6  A    between atoms: C_12  and  C_13
REMARK    7  A    between atoms: C_13  and  N_14
REMARK    8  A    between atoms: N_17  and  C_18
REMARK    9  A    between atoms: C_27  and  C_28
REMARK                            x       y       z     vdW  Elec       q    Type
REMARK                         _______ _______ _______ _____ _____    ______ ____
ROOT
ATOM      1  C   UNL     1       2.301   5.688  19.250  0.00  0.00    +0.030 A 
ATOM      2  C   UNL     1       2.519   6.399  18.062  0.00  0.00    -0.040 A 
ATOM      3  C   UNL     1       2.296   7.778  17.973  0.00  0.00    -0.055 A 
ATOM      4  C   UNL     1       1.835   8.508  19.076  0.00  0.00    -0.018 A 
ATOM      5  C   UNL     1       1.578   7.811  20.269  0.00  0.00    +0.043 A 
ATOM      6  C   UNL     1       1.821   6.424  20.344  0.00  0.00    -0.028 A 
ATOM      7  H   UNL     1       2.837   5.877  17.162  0.00  0.00    +0.064 HD
ATOM      8  H   UNL     1       2.459   8.273  17.017  0.00  0.00    +0.062 HD
ATOM      9  H   UNL     1       1.669   5.927  21.298  0.00  0.00    +0.064 HD
ENDROOT
BRANCH   5  10
ATOM     10  C   UNL     1       1.048   8.510  21.475  0.00  0.00    +0.242 C 
ATOM     11  N   UNL     1       1.974   8.995  22.356  0.00  0.00    -0.325 N 
ATOM     12  O   UNL     1      -0.147   8.631  21.704  0.00  0.00    -0.270 OA
ATOM     13  H   UNL     1       2.951   8.738  22.313  0.00  0.00    +0.145 HD
ATOM     14  H   UNL     1       1.621   9.407  23.209  0.00  0.00    +0.145 HD
ENDBRANCH   5  10
BRANCH   4  15
ATOM     15  C   UNL     1       1.582   9.986  18.914  0.00  0.00    +0.039 C 
ATOM     16  H   UNL     1       2.412  10.571  19.322  0.00  0.00    +0.051 HD
ATOM     17  H   UNL     1       1.516  10.258  17.853  0.00  0.00    +0.051 HD
BRANCH  15  18
ATOM     18  N   UNL     1       0.362  10.382  19.579  0.00  0.00    -0.295 N 
ATOM     19  C   UNL     1       0.264  11.576  20.234  0.00  0.00    +0.300 C 
ATOM     20  O   UNL     1       1.169  12.395  20.320  0.00  0.00    -0.253 OA
ATOM     21  N   UNL     1      -0.991  11.747  20.758  0.00  0.00    -0.293 N 
ATOM     22  H   UNL     1      -0.239   9.632  19.895  0.00  0.00    +0.151 HD
ATOM     23  H   UNL     1      -1.708  11.293  20.218  0.00  0.00    +0.151 HD
BRANCH  21  24
ATOM     24  C   UNL     1      -1.337  13.025  21.341  0.00  0.00    +0.050 C 
ATOM     25  C   UNL     1      -0.522  13.330  22.617  0.00  0.00    -0.026 C 
ATOM     26  C   UNL     1      -1.400  14.245  23.477  0.00  0.00    -0.025 C 
ATOM     27  C   UNL     1      -2.771  13.782  23.096  0.00  0.00    -0.042 A 
ATOM     28  C   UNL     1      -3.962  14.031  23.755  0.00  0.00    -0.058 A 
ATOM     29  C   UNL     1      -5.147  13.555  23.189  0.00  0.00    -0.061 A 
ATOM     30  C   UNL     1      -5.125  12.858  21.972  0.00  0.00    -0.061 A 
ATOM     31  C   UNL     1      -3.920  12.624  21.304  0.00  0.00    -0.057 A 
ATOM     32  C   UNL     1      -2.743  13.082  21.881  0.00  0.00    -0.024 A 
ATOM     33  H   UNL     1      -1.204  13.819  20.594  0.00  0.00    +0.055 HD
ATOM     34  H   UNL     1       0.450  13.783  22.394  0.00  0.00    +0.029 HD
ATOM     35  H   UNL     1      -0.322  12.402  23.169  0.00  0.00    +0.029 HD
ATOM     36  H   UNL     1      -1.266  15.295  23.197  0.00  0.00    +0.031 HD
ATOM     37  H   UNL     1      -1.196  14.114  24.542  0.00  0.00    +0.031 HD
ATOM     38  H   UNL     1      -3.981  14.586  24.689  0.00  0.00    +0.062 HD
ATOM     39  H   UNL     1      -6.094  13.739  23.690  0.00  0.00    +0.062 HD
ATOM     40  H   UNL     1      -6.059  12.507  21.539  0.00  0.00    +0.062 HD
ATOM     41  H   UNL     1      -3.919  12.108  20.350  0.00  0.00    +0.062 HD
ENDBRANCH  21  24
ENDBRANCH  15  18
ENDBRANCH   4  15
BRANCH   1  42
ATOM     42  N   UNL     1       2.530   4.310  19.304  0.00  0.00    -0.329 N 
BRANCH  42  43
ATOM     43  C   UNL     1       1.495   3.441  19.859  0.00  0.00    +0.001 C 
ATOM     44  H   UNL     1       0.831   3.072  19.070  0.00  0.00    +0.043 HD
ATOM     45  H   UNL     1       0.899   3.955  20.623  0.00  0.00    +0.043 HD
ATOM     46  H   UNL     1       1.951   2.557  20.327  0.00  0.00    +0.043 HD
ENDBRANCH  42  43
BRANCH  42  47
ATOM     47  C   UNL     1       3.921   3.862  19.506  0.00  0.00    +0.037 C 
ATOM     48  H   UNL     1       4.353   4.415  20.350  0.00  0.00    +0.051 HD
ATOM     49  H   UNL     1       3.983   2.812  19.813  0.00  0.00    +0.051 HD
BRANCH  47  53
ATOM     50  C   UNL     1       6.367   4.545  15.993  0.00  0.00    -0.050 A 
ATOM     51  C   UNL     1       5.152   3.861  15.889  0.00  0.00    -0.059 A 
ATOM     52  C   UNL     1       4.365   3.638  17.022  0.00  0.00    -0.057 A 
ATOM     53  C   UNL     1       4.786   4.082  18.282  0.00  0.00    -0.030 A 
ATOM     54  C   UNL     1       6.013   4.752  18.384  0.00  0.00    -0.057 A 
ATOM     55  C   UNL     1       6.798   4.978  17.251  0.00  0.00    -0.059 A 
ATOM     56  H   UNL     1       4.803   3.502  14.923  0.00  0.00    +0.062 HD
ATOM     57  H   UNL     1       3.416   3.117  16.914  0.00  0.00    +0.062 HD
ATOM     58  H   UNL     1       6.367   5.106  19.351  0.00  0.00    +0.062 HD
ATOM     59  H   UNL     1       7.744   5.500  17.356  0.00  0.00    +0.062 HD
BRANCH  50  60
ATOM     60  C   UNL     1       7.219   4.764  14.778  0.00  0.00    -0.040 C 
ATOM     61  H   UNL     1       7.720   3.832  14.500  0.00  0.00    +0.028 HD
ATOM     62  H   UNL     1       7.978   5.531  14.963  0.00  0.00    +0.028 HD
ATOM     63  H   UNL     1       6.610   5.106  13.934  0.00  0.00    +0.028 HD
ENDBRANCH  50  60
ENDBRANCH  47  53
ENDBRANCH  42  47
ENDBRANCH   1  42
TORSDOF 9
ENDMDL
MODEL 9
REMARK VINA RESULT:    -7.317      2.699      9.925
REMARK INTER + INTRA:         -11.595
REMARK INTER:                 -10.456
REMARK INTRA:                  -1.139
REMARK UNBOUND:                -0.856
REMARK  Name = 
REMARK  9 active torsions:
REMARK  status: ('A' for Active; 'I' for Inactive)
REMARK    1  A    between atoms: C_1  and  C_2
REMARK    2  A    between atoms: C_5  and  C_6
REMARK    3  A    between atoms: C_6  and  N_7
REMARK    4  A    between atoms: N_7  and  C_8
REMARK    5  A    between atoms: N_7  and  C_9
REMARK    6  A    between atoms: C_12  and  C_13
REMARK    7  A    between atoms: C_13  and  N_14
REMARK    8  A    between atoms: N_17  and  C_18
REMARK    9  A    between atoms: C_27  and  C_28
REMARK                            x       y       z     vdW  Elec       q    Type
REMARK                         _______ _______ _______ _____ _____    ______ ____
ROOT
ATOM      1  C   UNL     1       0.090  12.827  19.746  0.00  0.00    +0.030 A 
ATOM      2  C   UNL     1       1.237  12.034  19.887  0.00  0.00    -0.040 A 
ATOM      3  C   UNL     1       1.369  10.801  19.237  0.00  0.00    -0.055 A 
ATOM      4  C   UNL     1       0.348  10.302  18.419  0.00  0.00    -0.018 A 
ATOM      5  C   UNL     1      -0.826  11.065  18.289  0.00  0.00    +0.043 A 
ATOM      6  C   UNL     1      -0.936  12.310  18.941  0.00  0.00    -0.028 A 
ATOM      7  H   UNL     1       2.045  12.351  20.543  0.00  0.00    +0.064 HD
ATOM      8  H   UNL     1       2.273  10.216  19.403  0.00  0.00    +0.062 HD
ATOM      9  H   UNL     1      -1.831  12.901  18.771  0.00  0.00    +0.064 HD
ENDROOT
BRANCH   5  10
ATOM     10  C   UNL     1      -1.975  10.584  17.469  0.00  0.00    +0.242 C 
ATOM     11  N   UNL     1      -2.191  11.230  16.283  0.00  0.00    -0.325 N 
ATOM     12  O   UNL     1      -2.718   9.681  17.827  0.00  0.00    -0.270 OA
ATOM     13  H   UNL     1      -1.738  12.103  16.051  0.00  0.00    +0.145 HD
ATOM     14  H   UNL     1      -3.010  10.955  15.757  0.00  0.00    +0.145 HD
ENDBRANCH   5  10
BRANCH   4  15
ATOM     15  C   UNL     1       0.531   8.954  17.769  0.00  0.00    +0.039 C 
ATOM     16  H   UNL     1      -0.018   8.180  18.316  0.00  0.00    +0.051 HD
ATOM     17  H   UNL     1       0.121   8.950  16.751  0.00  0.00    +0.051 HD
BRANCH  15  18
ATOM     18  N   UNL     1       1.927   8.585  17.717  0.00  0.00    -0.295 N 
ATOM     19  C   UNL     1       2.345   7.330  18.053  0.00  0.00    +0.300 C 
ATOM     20  O   UNL     1       1.604   6.429  18.421  0.00  0.00    -0.253 OA
ATOM     21  N   UNL     1       3.701   7.205  17.896  0.00  0.00    -0.293 N 
ATOM     22  H   UNL     1       2.593   9.339  17.829  0.00  0.00    +0.151 HD
ATOM     23  H   UNL     1       4.068   7.788  17.162  0.00  0.00    +0.151 HD
BRANCH  21  24
ATOM     24  C   UNL     1       4.304   5.899  18.040  0.00  0.00    +0.050 C 
ATOM     25  C   UNL     1       5.260   5.821  19.250  0.00  0.00    -0.026 C 
ATOM     26  C   UNL     1       6.304   4.754  18.904  0.00  0.00    -0.025 C 
ATOM     27  C   UNL     1       6.375   4.882  17.415  0.00  0.00    -0.042 A 
ATOM     28  C   UNL     1       7.351   4.387  16.568  0.00  0.00    -0.058 A 
ATOM     29  C   UNL     1       7.189   4.565  15.192  0.00  0.00    -0.061 A 
ATOM     30  C   UNL     1       6.054   5.215  14.686  0.00  0.00    -0.061 A 
ATOM     31  C   UNL     1       5.066   5.699  15.546  0.00  0.00    -0.057 A 
ATOM     32  C   UNL     1       5.239   5.538  16.914  0.00  0.00    -0.024 A 
ATOM     33  H   UNL     1       3.518   5.136  18.115  0.00  0.00    +0.055 HD
ATOM     34  H   UNL     1       4.735   5.596  20.185  0.00  0.00    +0.029 HD
ATOM     35  H   UNL     1       5.766   6.786  19.394  0.00  0.00    +0.029 HD
ATOM     36  H   UNL     1       5.951   3.755  19.180  0.00  0.00    +0.031 HD
ATOM     37  H   UNL     1       7.263   4.957  19.387  0.00  0.00    +0.031 HD
ATOM     38  H   UNL     1       8.221   3.867  16.959  0.00  0.00    +0.062 HD
ATOM     39  H   UNL     1       7.944   4.183  14.509  0.00  0.00    +0.062 HD
ATOM     40  H   UNL     1       5.939   5.332  13.611  0.00  0.00    +0.062 HD
ATOM     41  H   UNL     1       4.179   6.176  15.142  0.00  0.00    +0.062 HD
ENDBRANCH  21  24
ENDBRANCH  15  18
ENDBRANCH   4  15
BRANCH   1  42
ATOM     42  N   UNL     1      -0.011  14.051  20.412  0.00  0.00    -0.329 N 
BRANCH  42  43
ATOM     43  C   UNL     1       0.434  15.267  19.733  0.00  0.00    +0.001 C 
ATOM     44  H   UNL     1       0.669  15.063  18.683  0.00  0.00    +0.043 HD
ATOM     45  H   UNL     1       1.313  15.706  20.221  0.00  0.00    +0.043 HD
ATOM     46  H   UNL     1      -0.365  16.020  19.738  0.00  0.00    +0.043 HD
ENDBRANCH  42  43
BRANCH  42  47
ATOM     47  C   UNL     1       0.150  14.041  21.878  0.00  0.00    +0.037 C 
ATOM     48  H   UNL     1       0.968  13.357  22.141  0.00  0.00    +0.051 HD
ATOM     49  H   UNL     1       0.474  15.010  22.273  0.00  0.00    +0.051 HD
BRANCH  47  53
ATOM     50  C   UNL     1      -3.416  12.767  23.989  0.00  0.00    -0.050 A 
ATOM     51  C   UNL     1      -2.550  11.824  23.426  0.00  0.00    -0.059 A 
ATOM     52  C   UNL     1      -1.402  12.235  22.743  0.00  0.00    -0.057 A 
ATOM     53  C   UNL     1      -1.107  13.597  22.598  0.00  0.00    -0.030 A 
ATOM     54  C   UNL     1      -1.988  14.539  23.148  0.00  0.00    -0.057 A 
ATOM     55  C   UNL     1      -3.133  14.127  23.833  0.00  0.00    -0.059 A 
ATOM     56  H   UNL     1      -2.757  10.761  23.522  0.00  0.00    +0.062 HD
ATOM     57  H   UNL     1      -0.735  11.483  22.328  0.00  0.00    +0.062 HD
ATOM     58  H   UNL     1      -1.786  15.604  23.048  0.00  0.00    +0.062 HD
ATOM     59  H   UNL     1      -3.799  14.877  24.252  0.00  0.00    +0.062 HD
BRANCH  50  60
ATOM     60  C   UNL     1      -4.658  12.323  24.703  0.00  0.00    -0.040 C 
ATOM     61  H   UNL     1      -4.609  11.248  24.904  0.00  0.00    +0.028 HD
ATOM     62  H   UNL     1      -5.551  12.529  24.104  0.00  0.00    +0.028 HD
ATOM     63  H   UNL     1      -4.772  12.857  25.652  0.00  0.00    +0.028 HD
ENDBRANCH  50  60
ENDBRANCH  47  53
ENDBRANCH  42  47
ENDBRANCH   1  42
TORSDOF 9
ENDMDL
MODEL 10
REMARK VINA RESULT:    -7.274      2.183      9.458
REMARK INTER + INTRA:         -11.532
REMARK INTER:                 -11.294
REMARK INTRA:                  -0.238
REMARK UNBOUND:                -0.856
REMARK  Name = 
REMARK  9 active torsions:
REMARK  status: ('A' for Active; 'I' for Inactive)
REMARK    1  A    between atoms: C_1  and  C_2
REMARK    2  A    between atoms: C_5  and  C_6
REMARK    3  A    between atoms: C_6  and  N_7
REMARK    4  A    between atoms: N_7  and  C_8
REMARK    5  A    between atoms: N_7  and  C_9
REMARK    6  A    between atoms: C_12  and  C_13
REMARK    7  A    between atoms: C_13  and  N_14
REMARK    8  A    between atoms: N_17  and  C_18
REMARK    9  A    between atoms: C_27  and  C_28
REMARK                            x       y       z     vdW  Elec       q    Type
REMARK                         _______ _______ _______ _____ _____    ______ ____
ROOT
ATOM      1  C   UNL     1      -2.136  11.276  18.646  0.00  0.00    +0.030 A 
ATOM      2  C   UNL     1      -2.067   9.985  18.104  0.00  0.00    -0.040 A 
ATOM      3  C   UNL     1      -0.843   9.360  17.836  0.00  0.00    -0.055 A 
ATOM      4  C   UNL     1       0.372  10.007  18.096  0.00  0.00    -0.018 A 
ATOM      5  C   UNL     1       0.326  11.314  18.610  0.00  0.00    +0.043 A 
ATOM      6  C   UNL     1      -0.915  11.924  18.885  0.00  0.00    -0.028 A 
ATOM      7  H   UNL     1      -2.978   9.451  17.843  0.00  0.00    +0.064 HD
ATOM      8  H   UNL     1      -0.850   8.366  17.391  0.00  0.00    +0.062 HD
ATOM      9  H   UNL     1      -0.913  12.911  19.337  0.00  0.00    +0.064 HD
ENDROOT
BRANCH   5  10
ATOM     10  C   UNL     1       1.575  12.086  18.875  0.00  0.00    +0.242 C 
ATOM     11  N   UNL     1       2.299  12.471  17.781  0.00  0.00    -0.325 N 
ATOM     12  O   UNL     1       1.969  12.349  20.002  0.00  0.00    -0.270 OA
ATOM     13  H   UNL     1       2.124  12.101  16.857  0.00  0.00    +0.145 HD
ATOM     14  H   UNL     1       3.181  12.932  17.957  0.00  0.00    +0.145 HD
ENDBRANCH   5  10
BRANCH   4  15
ATOM     15  C   UNL     1       1.659   9.298  17.759  0.00  0.00    +0.039 C 
ATOM     16  H   UNL     1       1.526   8.638  16.895  0.00  0.00    +0.051 HD
ATOM     17  H   UNL     1       2.438  10.015  17.471  0.00  0.00    +0.051 HD
BRANCH  15  18
ATOM     18  N   UNL     1       2.130   8.512  18.876  0.00  0.00    -0.295 N 
ATOM     19  C   UNL     1       2.511   7.211  18.721  0.00  0.00    +0.300 C 
ATOM     20  O   UNL     1       2.487   6.604  17.659  0.00  0.00    -0.253 OA
ATOM     21  N   UNL     1       2.950   6.682  19.908  0.00  0.00    -0.293 N 
ATOM     22  H   UNL     1       1.797   8.790  19.790  0.00  0.00    +0.151 HD
ATOM     23  H   UNL     1       3.371   7.368  20.512  0.00  0.00    +0.151 HD
BRANCH  21  24
ATOM     24  C   UNL     1       3.553   5.368  19.907  0.00  0.00    +0.050 C 
ATOM     25  C   UNL     1       4.645   5.222  18.826  0.00  0.00    -0.026 C 
ATOM     26  C   UNL     1       4.681   3.737  18.450  0.00  0.00    -0.025 C 
ATOM     27  C   UNL     1       3.255   3.341  18.677  0.00  0.00    -0.042 A 
ATOM     28  C   UNL     1       2.613   2.199  18.231  0.00  0.00    -0.058 A 
ATOM     29  C   UNL     1       1.286   1.992  18.613  0.00  0.00    -0.061 A 
ATOM     30  C   UNL     1       0.631   2.913  19.443  0.00  0.00    -0.061 A 
ATOM     31  C   UNL     1       1.291   4.056  19.901  0.00  0.00    -0.057 A 
ATOM     32  C   UNL     1       2.604   4.268  19.504  0.00  0.00    -0.024 A 
ATOM     33  H   UNL     1       3.958   5.148  20.904  0.00  0.00    +0.055 HD
ATOM     34  H   UNL     1       5.622   5.584  19.166  0.00  0.00    +0.029 HD
ATOM     35  H   UNL     1       4.379   5.811  17.937  0.00  0.00    +0.029 HD
ATOM     36  H   UNL     1       5.338   3.177  19.123  0.00  0.00    +0.031 HD
ATOM     37  H   UNL     1       4.995   3.590  17.414  0.00  0.00    +0.031 HD
ATOM     38  H   UNL     1       3.126   1.476  17.603  0.00  0.00    +0.062 HD
ATOM     39  H   UNL     1       0.762   1.101  18.274  0.00  0.00    +0.062 HD
ATOM     40  H   UNL     1      -0.399   2.728  19.741  0.00  0.00    +0.062 HD
ATOM     41  H   UNL     1       0.782   4.748  20.566  0.00  0.00    +0.062 HD
ENDBRANCH  21  24
ENDBRANCH  15  18
ENDBRANCH   4  15
BRANCH   1  42
ATOM     42  N   UNL     1      -3.375  11.873  18.898  0.00  0.00    -0.329 N 
BRANCH  42  43
ATOM     43  C   UNL     1      -4.461  11.682  17.939  0.00  0.00    +0.001 C 
ATOM     44  H   UNL     1      -4.504  12.514  17.227  0.00  0.00    +0.043 HD
ATOM     45  H   UNL     1      -5.432  11.584  18.439  0.00  0.00    +0.043 HD
ATOM     46  H   UNL     1      -4.293  10.770  17.350  0.00  0.00    +0.043 HD
ENDBRANCH  42  43
BRANCH  42  47
ATOM     47  C   UNL     1      -3.373  13.160  19.616  0.00  0.00    +0.037 C 
ATOM     48  H   UNL     1      -2.396  13.643  19.479  0.00  0.00    +0.051 HD
ATOM     49  H   UNL     1      -4.087  13.877  19.197  0.00  0.00    +0.051 HD
BRANCH  47  53
ATOM     50  C   UNL     1      -4.137  12.638  23.852  0.00  0.00    -0.050 A 
ATOM     51  C   UNL     1      -5.147  13.096  23.000  0.00  0.00    -0.059 A 
ATOM     52  C   UNL     1      -4.900  13.267  21.636  0.00  0.00    -0.057 A 
ATOM     53  C   UNL     1      -3.633  12.998  21.100  0.00  0.00    -0.030 A 
ATOM     54  C   UNL     1      -2.618  12.556  21.961  0.00  0.00    -0.057 A 
ATOM     55  C   UNL     1      -2.868  12.382  23.324  0.00  0.00    -0.059 A 
ATOM     56  H   UNL     1      -6.138  13.316  23.390  0.00  0.00    +0.062 HD
ATOM     57  H   UNL     1      -5.705  13.609  20.990  0.00  0.00    +0.062 HD
ATOM     58  H   UNL     1      -1.624  12.342  21.574  0.00  0.00    +0.062 HD
ATOM     59  H   UNL     1      -2.065  12.038  23.971  0.00  0.00    +0.062 HD
BRANCH  50  60
ATOM     60  C   UNL     1      -4.400  12.476  25.320  0.00  0.00    -0.040 C 
ATOM     61  H   UNL     1      -3.648  13.024  25.897  0.00  0.00    +0.028 HD
ATOM     62  H   UNL     1      -4.367  11.421  25.610  0.00  0.00    +0.028 HD
ATOM     63  H   UNL     1      -5.394  12.855  25.580  0.00  0.00    +0.028 HD
ENDBRANCH  50  60
ENDBRANCH  47  53
ENDBRANCH  42  47
ENDBRANCH   1  42
TORSDOF 9
ENDMDL
MODEL 11
REMARK VINA RESULT:    -7.248      2.757      4.598
REMARK INTER + INTRA:         -11.494
REMARK INTER:                 -10.648
REMARK INTRA:                  -0.846
REMARK UNBOUND:                -0.856
REMARK  Name = 
REMARK  9 active torsions:
REMARK  status: ('A' for Active; 'I' for Inactive)
REMARK    1  A    between atoms: C_1  and  C_2
REMARK    2  A    between atoms: C_5  and  C_6
REMARK    3  A    between atoms: C_6  and  N_7
REMARK    4  A    between atoms: N_7  and  C_8
REMARK    5  A    between atoms: N_7  and  C_9
REMARK    6  A    between atoms: C_12  and  C_13
REMARK    7  A    between atoms: C_13  and  N_14
REMARK    8  A    between atoms: N_17  and  C_18
REMARK    9  A    between atoms: C_27  and  C_28
REMARK                            x       y       z     vdW  Elec       q    Type
REMARK                         _______ _______ _______ _____ _____    ______ ____
ROOT
ATOM      1  C   UNL     1       5.515   5.917  17.818  0.00  0.00    +0.030 A 
ATOM      2  C   UNL     1       5.149   7.088  17.141  0.00  0.00    -0.040 A 
ATOM      3  C   UNL     1       3.890   7.676  17.308  0.00  0.00    -0.055 A 
ATOM      4  C   UNL     1       2.934   7.109  18.160  0.00  0.00    -0.018 A 
ATOM      5  C   UNL     1       3.267   5.915  18.824  0.00  0.00    +0.043 A 
ATOM      6  C   UNL     1       4.545   5.344  18.654  0.00  0.00    -0.028 A 
ATOM      7  H   UNL     1       5.835   7.550  16.435  0.00  0.00    +0.064 HD
ATOM      8  H   UNL     1       3.651   8.573  16.737  0.00  0.00    +0.062 HD
ATOM      9  H   UNL     1       4.791   4.455  19.228  0.00  0.00    +0.064 HD
ENDROOT
BRANCH   5  10
ATOM     10  C   UNL     1       2.291   5.227  19.717  0.00  0.00    +0.242 C 
ATOM     11  N   UNL     1       2.337   5.558  21.043  0.00  0.00    -0.325 N 
ATOM     12  O   UNL     1       1.498   4.387  19.316  0.00  0.00    -0.270 OA
ATOM     13  H   UNL     1       3.103   6.082  21.445  0.00  0.00    +0.145 HD
ATOM     14  H   UNL     1       1.727   5.044  21.663  0.00  0.00    +0.145 HD
ENDBRANCH   5  10
BRANCH   4  15
ATOM     15  C   UNL     1       1.583   7.767  18.277  0.00  0.00    +0.039 C 
ATOM     16  H   UNL     1       1.105   7.853  17.297  0.00  0.00    +0.051 HD
ATOM     17  H   UNL     1       0.903   7.162  18.891  0.00  0.00    +0.051 HD
BRANCH  15  18
ATOM     18  N   UNL     1       1.693   9.086  18.858  0.00  0.00    -0.295 N 
ATOM     19  C   UNL     1       0.707  10.016  18.705  0.00  0.00    +0.300 C 
ATOM     20  O   UNL     1      -0.329   9.831  18.081  0.00  0.00    -0.253 OA
ATOM     21  N   UNL     1       1.017  11.176  19.367  0.00  0.00    -0.293 N 
ATOM     22  H   UNL     1       2.633   9.430  19.010  0.00  0.00    +0.151 HD
ATOM     23  H   UNL     1       1.582  11.022  20.186  0.00  0.00    +0.151 HD
BRANCH  21  24
ATOM     24  C   UNL     1       0.017  12.216  19.461  0.00  0.00    +0.050 C 
ATOM     25  C   UNL     1       0.592  13.616  19.154  0.00  0.00    -0.026 C 
ATOM     26  C   UNL     1      -0.269  14.614  19.935  0.00  0.00    -0.025 C 
ATOM     27  C   UNL     1      -0.671  13.794  21.120  0.00  0.00    -0.042 A 
ATOM     28  C   UNL     1      -1.208  14.239  22.315  0.00  0.00    -0.058 A 
ATOM     29  C   UNL     1      -1.575  13.291  23.272  0.00  0.00    -0.061 A 
ATOM     30  C   UNL     1      -1.418  11.921  23.016  0.00  0.00    -0.061 A 
ATOM     31  C   UNL     1      -0.889  11.478  21.801  0.00  0.00    -0.057 A 
ATOM     32  C   UNL     1      -0.507  12.425  20.859  0.00  0.00    -0.024 A 
ATOM     33  H   UNL     1      -0.821  11.983  18.792  0.00  0.00    +0.055 HD
ATOM     34  H   UNL     1       0.607  13.836  18.080  0.00  0.00    +0.029 HD
ATOM     35  H   UNL     1       1.631  13.684  19.507  0.00  0.00    +0.029 HD
ATOM     36  H   UNL     1      -1.154  14.904  19.359  0.00  0.00    +0.031 HD
ATOM     37  H   UNL     1       0.300  15.504  20.216  0.00  0.00    +0.031 HD
ATOM     38  H   UNL     1      -1.347  15.299  22.506  0.00  0.00    +0.062 HD
ATOM     39  H   UNL     1      -2.000  13.619  24.218  0.00  0.00    +0.062 HD
ATOM     40  H   UNL     1      -1.723  11.197  23.768  0.00  0.00    +0.062 HD
ATOM     41  H   UNL     1      -0.798  10.415  21.603  0.00  0.00    +0.062 HD
ENDBRANCH  21  24
ENDBRANCH  15  18
ENDBRANCH   4  15
BRANCH   1  42
ATOM     42  N   UNL     1       6.780   5.353  17.625  0.00  0.00    -0.329 N 
BRANCH  42  43
ATOM     43  C   UNL     1       7.630   5.105  18.788  0.00  0.00    +0.001 C 
ATOM     44  H   UNL     1       7.039   4.728  19.630  0.00  0.00    +0.043 HD
ATOM     45  H   UNL     1       8.167   6.009  19.099  0.00  0.00    +0.043 HD
ATOM     46  H   UNL     1       8.377   4.334  18.555  0.00  0.00    +0.043 HD
ENDBRANCH  42  43
BRANCH  42  47
ATOM     47  C   UNL     1       7.486   5.685  16.374  0.00  0.00    +0.037 C 
ATOM     48  H   UNL     1       7.389   6.763  16.186  0.00  0.00    +0.051 HD
ATOM     49  H   UNL     1       8.567   5.522  16.445  0.00  0.00    +0.051 HD
BRANCH  47  53
ATOM     50  C   UNL     1       5.879   3.567  12.949  0.00  0.00    -0.050 A 
ATOM     51  C   UNL     1       5.362   3.342  14.229  0.00  0.00    -0.059 A 
ATOM     52  C   UNL     1       5.882   4.023  15.334  0.00  0.00    -0.057 A 
ATOM     53  C   UNL     1       6.940   4.930  15.180  0.00  0.00    -0.030 A 
ATOM     54  C   UNL     1       7.466   5.139  13.898  0.00  0.00    -0.057 A 
ATOM     55  C   UNL     1       6.943   4.460  12.794  0.00  0.00    -0.059 A 
ATOM     56  H   UNL     1       4.543   2.642  14.377  0.00  0.00    +0.062 HD
ATOM     57  H   UNL     1       5.453   3.844  16.317  0.00  0.00    +0.062 HD
ATOM     58  H   UNL     1       8.290   5.835  13.749  0.00  0.00    +0.062 HD
ATOM     59  H   UNL     1       7.368   4.640  11.810  0.00  0.00    +0.062 HD
BRANCH  50  60
ATOM     60  C   UNL     1       5.332   2.819  11.770  0.00  0.00    -0.040 C 
ATOM     61  H   UNL     1       5.812   1.838  11.695  0.00  0.00    +0.028 HD
ATOM     62  H   UNL     1       5.507   3.370  10.840  0.00  0.00    +0.028 HD
ATOM     63  H   UNL     1       4.250   2.680  11.867  0.00  0.00    +0.028 HD
ENDBRANCH  50  60
ENDBRANCH  47  53
ENDBRANCH  42  47
ENDBRANCH   1  42
TORSDOF 9
ENDMDL
MODEL 12
REMARK VINA RESULT:    -7.212      4.114      5.858
REMARK INTER + INTRA:         -11.442
REMARK INTER:                 -11.456
REMARK INTRA:                   0.014
REMARK UNBOUND:                -0.856
REMARK  Name = 
REMARK  9 active torsions:
REMARK  status: ('A' for Active; 'I' for Inactive)
REMARK    1  A    between atoms: C_1  and  C_2
REMARK    2  A    between atoms: C_5  and  C_6
REMARK    3  A    between atoms: C_6  and  N_7
REMARK    4  A    between atoms: N_7  and  C_8
REMARK    5  A    between atoms: N_7  and  C_9
REMARK    6  A    between atoms: C_12  and  C_13
REMARK    7  A    between atoms: C_13  and  N_14
REMARK    8  A    between atoms: N_17  and  C_18
REMARK    9  A    between atoms: C_27  and  C_28
REMARK                            x       y       z     vdW  Elec       q    Type
REMARK                         _______ _______ _______ _____ _____    ______ ____
ROOT
ATOM      1  C   UNL     1       2.582   6.913  19.186  0.00  0.00    +0.030 A 
ATOM      2  C   UNL     1       2.470   7.765  18.079  0.00  0.00    -0.040 A 
ATOM      3  C   UNL     1       1.748   8.963  18.137  0.00  0.00    -0.055 A 
ATOM      4  C   UNL     1       1.098   9.359  19.314  0.00  0.00    -0.018 A 
ATOM      5  C   UNL     1       1.170   8.504  20.427  0.00  0.00    +0.043 A 
ATOM      6  C   UNL     1       1.911   7.308  20.354  0.00  0.00    -0.028 A 
ATOM      7  H   UNL     1       2.918   7.488  17.127  0.00  0.00    +0.064 HD
ATOM      8  H   UNL     1       1.674   9.573  17.238  0.00  0.00    +0.062 HD
ATOM      9  H   UNL     1       1.997   6.700  21.250  0.00  0.00    +0.064 HD
ENDROOT
BRANCH   5  10
ATOM     10  C   UNL     1       0.472   8.835  21.703  0.00  0.00    +0.242 C 
ATOM     11  N   UNL     1      -0.746   8.246  21.903  0.00  0.00    -0.325 N 
ATOM     12  O   UNL     1       0.928   9.610  22.531  0.00  0.00    -0.270 OA
ATOM     13  H   UNL     1      -1.247   7.772  21.164  0.00  0.00    +0.145 HD
ATOM     14  H   UNL     1      -1.255   8.520  22.732  0.00  0.00    +0.145 HD
ENDBRANCH   5  10
BRANCH   4  15
ATOM     15  C   UNL     1       0.309  10.644  19.310  0.00  0.00    +0.039 C 
ATOM     16  H   UNL     1       0.118  10.981  18.286  0.00  0.00    +0.051 HD
ATOM     17  H   UNL     1      -0.678  10.499  19.768  0.00  0.00    +0.051 HD
BRANCH  15  18
ATOM     18  N   UNL     1       1.010  11.689  20.021  0.00  0.00    -0.295 N 
ATOM     19  C   UNL     1       1.834  12.562  19.372  0.00  0.00    +0.300 C 
ATOM     20  O   UNL     1       2.053  12.544  18.168  0.00  0.00    -0.253 OA
ATOM     21  N   UNL     1       2.360  13.481  20.243  0.00  0.00    -0.293 N 
ATOM     22  H   UNL     1       1.202  11.513  20.999  0.00  0.00    +0.151 HD
ATOM     23  H   UNL     1       1.749  13.686  21.015  0.00  0.00    +0.151 HD
BRANCH  21  24
ATOM     24  C   UNL     1       3.122  14.590  19.713  0.00  0.00    +0.050 C 
ATOM     25  C   UNL     1       3.384  14.454  18.198  0.00  0.00    -0.026 C 
ATOM     26  C   UNL     1       4.692  15.203  17.920  0.00  0.00    -0.025 C 
ATOM     27  C   UNL     1       5.420  15.015  19.214  0.00  0.00    -0.042 A 
ATOM     28  C   UNL     1       6.767  15.214  19.464  0.00  0.00    -0.058 A 
ATOM     29  C   UNL     1       7.232  15.041  20.769  0.00  0.00    -0.061 A 
ATOM     30  C   UNL     1       6.348  14.692  21.801  0.00  0.00    -0.061 A 
ATOM     31  C   UNL     1       4.987  14.508  21.543  0.00  0.00    -0.057 A 
ATOM     32  C   UNL     1       4.532  14.661  20.241  0.00  0.00    -0.024 A 
ATOM     33  H   UNL     1       2.605  15.532  19.936  0.00  0.00    +0.055 HD
ATOM     34  H   UNL     1       2.554  14.837  17.593  0.00  0.00    +0.029 HD
ATOM     35  H   UNL     1       3.512  13.396  17.929  0.00  0.00    +0.029 HD
ATOM     36  H   UNL     1       4.506  16.267  17.744  0.00  0.00    +0.031 HD
ATOM     37  H   UNL     1       5.230  14.773  17.071  0.00  0.00    +0.031 HD
ATOM     38  H   UNL     1       7.448  15.502  18.668  0.00  0.00    +0.062 HD
ATOM     39  H   UNL     1       8.286  15.193  20.988  0.00  0.00    +0.062 HD
ATOM     40  H   UNL     1       6.727  14.576  22.814  0.00  0.00    +0.062 HD
ATOM     41  H   UNL     1       4.309  14.265  22.355  0.00  0.00    +0.062 HD
ENDBRANCH  21  24
ENDBRANCH  15  18
ENDBRANCH   4  15
BRANCH   1  42
ATOM     42  N   UNL     1       3.307   5.722  19.093  0.00  0.00    -0.329 N 
BRANCH  42  43
ATOM     43  C   UNL     1       2.921   4.589  19.931  0.00  0.00    +0.001 C 
ATOM     44  H   UNL     1       2.235   3.923  19.396  0.00  0.00    +0.043 HD
ATOM     45  H   UNL     1       2.450   4.917  20.866  0.00  0.00    +0.043 HD
ATOM     46  H   UNL     1       3.804   3.990  20.191  0.00  0.00    +0.043 HD
ENDBRANCH  42  43
BRANCH  42  47
ATOM     47  C   UNL     1       4.744   5.826  18.779  0.00  0.00    +0.037 C 
ATOM     48  H   UNL     1       5.050   6.877  18.856  0.00  0.00    +0.051 HD
ATOM     49  H   UNL     1       5.373   5.309  19.512  0.00  0.00    +0.051 HD
BRANCH  47  53
ATOM     50  C   UNL     1       5.745   4.397  14.809  0.00  0.00    -0.050 A 
ATOM     51  C   UNL     1       5.519   5.758  15.037  0.00  0.00    -0.059 A 
ATOM     52  C   UNL     1       5.193   6.218  16.316  0.00  0.00    -0.057 A 
ATOM     53  C   UNL     1       5.073   5.323  17.388  0.00  0.00    -0.030 A 
ATOM     54  C   UNL     1       5.283   3.957  17.151  0.00  0.00    -0.057 A 
ATOM     55  C   UNL     1       5.612   3.499  15.872  0.00  0.00    -0.059 A 
ATOM     56  H   UNL     1       5.602   6.475  14.223  0.00  0.00    +0.062 HD
ATOM     57  H   UNL     1       5.038   7.283  16.473  0.00  0.00    +0.062 HD
ATOM     58  H   UNL     1       5.194   3.238  17.963  0.00  0.00    +0.062 HD
ATOM     59  H   UNL     1       5.771   2.436  15.714  0.00  0.00    +0.062 HD
BRANCH  50  60
ATOM     60  C   UNL     1       6.073   3.905  13.431  0.00  0.00    -0.040 C 
ATOM     61  H   UNL     1       6.378   4.744  12.798  0.00  0.00    +0.028 HD
ATOM     62  H   UNL     1       5.208   3.414  12.973  0.00  0.00    +0.028 HD
ATOM     63  H   UNL     1       6.885   3.170  13.464  0.00  0.00    +0.028 HD
ENDBRANCH  50  60
ENDBRANCH  47  53
ENDBRANCH  42  47
ENDBRANCH   1  42
TORSDOF 9
ENDMDL
MODEL 13
REMARK VINA RESULT:    -7.151      1.815      3.018
REMARK INTER + INTRA:         -11.352
REMARK INTER:                 -11.170
REMARK INTRA:                  -0.182
REMARK UNBOUND:                -0.856
REMARK  Name = 
REMARK  9 active torsions:
REMARK  status: ('A' for Active; 'I' for Inactive)
REMARK    1  A    between atoms: C_1  and  C_2
REMARK    2  A    between atoms: C_5  and  C_6
REMARK    3  A    between atoms: C_6  and  N_7
REMARK    4  A    between atoms: N_7  and  C_8
REMARK    5  A    between atoms: N_7  and  C_9
REMARK    6  A    between atoms: C_12  and  C_13
REMARK    7  A    between atoms: C_13  and  N_14
REMARK    8  A    between atoms: N_17  and  C_18
REMARK    9  A    between atoms: C_27  and  C_28
REMARK                            x       y       z     vdW  Elec       q    Type
REMARK                         _______ _______ _______ _____ _____    ______ ____
ROOT
ATOM      1  C   UNL     1       2.123   4.494  18.878  0.00  0.00    +0.030 A 
ATOM      2  C   UNL     1       1.889   4.610  20.254  0.00  0.00    -0.040 A 
ATOM      3  C   UNL     1       1.724   5.855  20.875  0.00  0.00    -0.055 A 
ATOM      4  C   UNL     1       1.793   7.044  20.138  0.00  0.00    -0.018 A 
ATOM      5  C   UNL     1       2.061   6.953  18.761  0.00  0.00    +0.043 A 
ATOM      6  C   UNL     1       2.212   5.691  18.152  0.00  0.00    -0.028 A 
ATOM      7  H   UNL     1       1.866   3.723  20.884  0.00  0.00    +0.064 HD
ATOM      8  H   UNL     1       1.568   5.886  21.952  0.00  0.00    +0.062 HD
ATOM      9  H   UNL     1       2.357   5.654  17.076  0.00  0.00    +0.064 HD
ENDROOT
BRANCH   5  10
ATOM     10  C   UNL     1       2.191   8.175  17.915  0.00  0.00    +0.242 C 
ATOM     11  N   UNL     1       3.429   8.427  17.393  0.00  0.00    -0.325 N 
ATOM     12  O   UNL     1       1.262   8.943  17.707  0.00  0.00    -0.270 OA
ATOM     13  H   UNL     1       4.258   7.942  17.706  0.00  0.00    +0.145 HD
ATOM     14  H   UNL     1       3.540   9.290  16.878  0.00  0.00    +0.145 HD
ENDBRANCH   5  10
BRANCH   4  15
ATOM     15  C   UNL     1       1.639   8.357  20.863  0.00  0.00    +0.039 C 
ATOM     16  H   UNL     1       1.732   8.219  21.945  0.00  0.00    +0.051 HD
ATOM     17  H   UNL     1       2.437   9.057  20.581  0.00  0.00    +0.051 HD
BRANCH  15  18
ATOM     18  N   UNL     1       0.358   8.963  20.580  0.00  0.00    -0.295 N 
ATOM     19  C   UNL     1       0.198  10.318  20.573  0.00  0.00    +0.300 C 
ATOM     20  O   UNL     1       1.090  11.123  20.801  0.00  0.00    -0.253 OA
ATOM     21  N   UNL     1      -1.091  10.659  20.249  0.00  0.00    -0.293 N 
ATOM     22  H   UNL     1      -0.458   8.402  20.791  0.00  0.00    +0.151 HD
ATOM     23  H   UNL     1      -1.530   9.994  19.635  0.00  0.00    +0.151 HD
BRANCH  21  24
ATOM     24  C   UNL     1      -1.410  12.051  20.026  0.00  0.00    +0.050 C 
ATOM     25  C   UNL     1      -0.427  12.732  19.049  0.00  0.00    -0.026 C 
ATOM     26  C   UNL     1      -0.402  14.216  19.430  0.00  0.00    -0.025 C 
ATOM     27  C   UNL     1      -0.668  14.147  20.901  0.00  0.00    -0.042 A 
ATOM     28  C   UNL     1      -0.476  15.142  21.844  0.00  0.00    -0.058 A 
ATOM     29  C   UNL     1      -0.852  14.888  23.164  0.00  0.00    -0.061 A 
ATOM     30  C   UNL     1      -1.427  13.659  23.517  0.00  0.00    -0.061 A 
ATOM     31  C   UNL     1      -1.633  12.665  22.558  0.00  0.00    -0.057 A 
ATOM     32  C   UNL     1      -1.239  12.914  21.250  0.00  0.00    -0.024 A 
ATOM     33  H   UNL     1      -2.443  12.139  19.663  0.00  0.00    +0.055 HD
ATOM     34  H   UNL     1      -0.706  12.580  18.000  0.00  0.00    +0.029 HD
ATOM     35  H   UNL     1       0.581  12.312  19.174  0.00  0.00    +0.029 HD
ATOM     36  H   UNL     1      -1.207  14.764  18.928  0.00  0.00    +0.031 HD
ATOM     37  H   UNL     1       0.562  14.675  19.201  0.00  0.00    +0.031 HD
ATOM     38  H   UNL     1      -0.047  16.101  21.566  0.00  0.00    +0.062 HD
ATOM     39  H   UNL     1      -0.710  15.656  23.921  0.00  0.00    +0.062 HD
ATOM     40  H   UNL     1      -1.727  13.485  24.548  0.00  0.00    +0.062 HD
ATOM     41  H   UNL     1      -2.105  11.728  22.838  0.00  0.00    +0.062 HD
ENDBRANCH  21  24
ENDBRANCH  15  18
ENDBRANCH   4  15
BRANCH   1  42
ATOM     42  N   UNL     1       2.288   3.236  18.291  0.00  0.00    -0.329 N 
BRANCH  42  43
ATOM     43  C   UNL     1       1.276   2.207  18.524  0.00  0.00    +0.001 C 
ATOM     44  H   UNL     1       1.171   1.999  19.594  0.00  0.00    +0.043 HD
ATOM     45  H   UNL     1       1.514   1.276  17.996  0.00  0.00    +0.043 HD
ATOM     46  H   UNL     1       0.295   2.552  18.171  0.00  0.00    +0.043 HD
ENDBRANCH  42  43
BRANCH  42  47
ATOM     47  C   UNL     1       3.668   2.748  18.109  0.00  0.00    +0.037 C 
ATOM     48  H   UNL     1       3.959   2.169  18.995  0.00  0.00    +0.051 HD
ATOM     49  H   UNL     1       3.756   2.036  17.282  0.00  0.00    +0.051 HD
BRANCH  47  53
ATOM     50  C   UNL     1       6.466   6.014  17.558  0.00  0.00    -0.050 A 
ATOM     51  C   UNL     1       5.786   5.469  16.464  0.00  0.00    -0.059 A 
ATOM     52  C   UNL     1       4.887   4.415  16.641  0.00  0.00    -0.057 A 
ATOM     53  C   UNL     1       4.661   3.875  17.915  0.00  0.00    -0.030 A 
ATOM     54  C   UNL     1       5.358   4.413  19.006  0.00  0.00    -0.057 A 
ATOM     55  C   UNL     1       6.254   5.469  18.828  0.00  0.00    -0.059 A 
ATOM     56  H   UNL     1       5.945   5.867  15.464  0.00  0.00    +0.062 HD
ATOM     57  H   UNL     1       4.358   4.018  15.777  0.00  0.00    +0.062 HD
ATOM     58  H   UNL     1       5.205   4.012  20.007  0.00  0.00    +0.062 HD
ATOM     59  H   UNL     1       6.781   5.869  19.690  0.00  0.00    +0.062 HD
BRANCH  50  60
ATOM     60  C   UNL     1       7.446   7.131  17.361  0.00  0.00    -0.040 C 
ATOM     61  H   UNL     1       7.023   7.885  16.688  0.00  0.00    +0.028 HD
ATOM     62  H   UNL     1       8.382   6.761  16.931  0.00  0.00    +0.028 HD
ATOM     63  H   UNL     1       7.692   7.606  18.317  0.00  0.00    +0.028 HD
ENDBRANCH  50  60
ENDBRANCH  47  53
ENDBRANCH  42  47
ENDBRANCH   1  42
TORSDOF 9
ENDMDL
MODEL 14
REMARK VINA RESULT:    -7.144      2.009      9.232
REMARK INTER + INTRA:         -11.341
REMARK INTER:                 -11.562
REMARK INTRA:                   0.221
REMARK UNBOUND:                -0.856
REMARK  Name = 
REMARK  9 active torsions:
REMARK  status: ('A' for Active; 'I' for Inactive)
REMARK    1  A    between atoms: C_1  and  C_2
REMARK    2  A    between atoms: C_5  and  C_6
REMARK    3  A    between atoms: C_6  and  N_7
REMARK    4  A    between atoms: N_7  and  C_8
REMARK    5  A    between atoms: N_7  and  C_9
REMARK    6  A    between atoms: C_12  and  C_13
REMARK    7  A    between atoms: C_13  and  N_14
REMARK    8  A    between atoms: N_17  and  C_18
REMARK    9  A    between atoms: C_27  and  C_28
REMARK                            x       y       z     vdW  Elec       q    Type
REMARK                         _______ _______ _______ _____ _____    ______ ____
ROOT
ATOM      1  C   UNL     1       0.081  10.736  21.362  0.00  0.00    +0.030 A 
ATOM      2  C   UNL     1       0.055   9.657  22.256  0.00  0.00    -0.040 A 
ATOM      3  C   UNL     1       0.553   8.396  21.910  0.00  0.00    -0.055 A 
ATOM      4  C   UNL     1       1.098   8.158  20.641  0.00  0.00    -0.018 A 
ATOM      5  C   UNL     1       1.105   9.216  19.716  0.00  0.00    +0.043 A 
ATOM      6  C   UNL     1       0.610  10.483  20.087  0.00  0.00    -0.028 A 
ATOM      7  H   UNL     1      -0.395   9.772  23.240  0.00  0.00    +0.064 HD
ATOM      8  H   UNL     1       0.484   7.588  22.637  0.00  0.00    +0.062 HD
ATOM      9  H   UNL     1       0.685  11.294  19.369  0.00  0.00    +0.064 HD
ENDROOT
BRANCH   5  10
ATOM     10  C   UNL     1       1.631   9.032  18.333  0.00  0.00    +0.242 C 
ATOM     11  N   UNL     1       1.988  10.167  17.659  0.00  0.00    -0.325 N 
ATOM     12  O   UNL     1       1.721   7.938  17.794  0.00  0.00    -0.270 OA
ATOM     13  H   UNL     1       1.738  11.091  17.983  0.00  0.00    +0.145 HD
ATOM     14  H   UNL     1       2.278  10.054  16.697  0.00  0.00    +0.145 HD
ENDBRANCH   5  10
BRANCH   4  15
ATOM     15  C   UNL     1       1.592   6.772  20.312  0.00  0.00    +0.039 C 
ATOM     16  H   UNL     1       1.417   6.086  21.147  0.00  0.00    +0.051 HD
ATOM     17  H   UNL     1       1.043   6.352  19.459  0.00  0.00    +0.051 HD
BRANCH  15  18
ATOM     18  N   UNL     1       3.004   6.780  20.005  0.00  0.00    -0.295 N 
ATOM     19  C   UNL     1       3.657   5.642  19.629  0.00  0.00    +0.300 C 
ATOM     20  O   UNL     1       3.130   4.544  19.521  0.00  0.00    -0.253 OA
ATOM     21  N   UNL     1       4.977   5.899  19.360  0.00  0.00    -0.293 N 
ATOM     22  H   UNL     1       3.555   7.502  20.453  0.00  0.00    +0.151 HD
ATOM     23  H   UNL     1       5.133   6.830  19.011  0.00  0.00    +0.151 HD
BRANCH  21  24
ATOM     24  C   UNL     1       5.790   4.851  18.783  0.00  0.00    +0.050 C 
ATOM     25  C   UNL     1       7.298   5.069  19.035  0.00  0.00    -0.026 C 
ATOM     26  C   UNL     1       8.029   4.394  17.869  0.00  0.00    -0.025 C 
ATOM     27  C   UNL     1       7.033   4.555  16.764  0.00  0.00    -0.042 A 
ATOM     28  C   UNL     1       7.246   4.406  15.405  0.00  0.00    -0.058 A 
ATOM     29  C   UNL     1       6.155   4.538  14.543  0.00  0.00    -0.061 A 
ATOM     30  C   UNL     1       4.874   4.799  15.050  0.00  0.00    -0.061 A 
ATOM     31  C   UNL     1       4.664   4.933  16.425  0.00  0.00    -0.057 A 
ATOM     32  C   UNL     1       5.754   4.820  17.276  0.00  0.00    -0.024 A 
ATOM     33  H   UNL     1       5.466   3.877  19.173  0.00  0.00    +0.055 HD
ATOM     34  H   UNL     1       7.621   4.678  20.006  0.00  0.00    +0.029 HD
ATOM     35  H   UNL     1       7.530   6.143  19.031  0.00  0.00    +0.029 HD
ATOM     36  H   UNL     1       8.196   3.332  18.074  0.00  0.00    +0.031 HD
ATOM     37  H   UNL     1       8.979   4.886  17.651  0.00  0.00    +0.031 HD
ATOM     38  H   UNL     1       8.236   4.186  15.013  0.00  0.00    +0.062 HD
ATOM     39  H   UNL     1       6.300   4.425  13.471  0.00  0.00    +0.062 HD
ATOM     40  H   UNL     1       4.034   4.885  14.364  0.00  0.00    +0.062 HD
ATOM     41  H   UNL     1       3.663   5.106  16.807  0.00  0.00    +0.062 HD
ENDBRANCH  21  24
ENDBRANCH  15  18
ENDBRANCH   4  15
BRANCH   1  42
ATOM     42  N   UNL     1      -0.429  11.981  21.739  0.00  0.00    -0.329 N 
BRANCH  42  43
ATOM     43  C   UNL     1      -1.292  12.067  22.915  0.00  0.00    +0.001 C 
ATOM     44  H   UNL     1      -2.038  12.860  22.795  0.00  0.00    +0.043 HD
ATOM     45  H   UNL     1      -0.715  12.250  23.830  0.00  0.00    +0.043 HD
ATOM     46  H   UNL     1      -1.847  11.129  23.050  0.00  0.00    +0.043 HD
ENDBRANCH  42  43
BRANCH  42  47
ATOM     47  C   UNL     1      -0.713  12.951  20.664  0.00  0.00    +0.037 C 
ATOM     48  H   UNL     1      -0.964  13.919  21.117  0.00  0.00    +0.051 HD
ATOM     49  H   UNL     1       0.167  13.163  20.047  0.00  0.00    +0.051 HD
BRANCH  47  53
ATOM     50  C   UNL     1      -3.992  11.647  18.145  0.00  0.00    -0.050 A 
ATOM     51  C   UNL     1      -2.669  11.517  17.711  0.00  0.00    -0.059 A 
ATOM     52  C   UNL     1      -1.612  11.940  18.522  0.00  0.00    -0.057 A 
ATOM     53  C   UNL     1      -1.860  12.515  19.776  0.00  0.00    -0.030 A 
ATOM     54  C   UNL     1      -3.189  12.660  20.199  0.00  0.00    -0.057 A 
ATOM     55  C   UNL     1      -4.244  12.233  19.389  0.00  0.00    -0.059 A 
ATOM     56  H   UNL     1      -2.448  11.077  16.742  0.00  0.00    +0.062 HD
ATOM     57  H   UNL     1      -0.590  11.814  18.170  0.00  0.00    +0.062 HD
ATOM     58  H   UNL     1      -3.411  13.106  21.167  0.00  0.00    +0.062 HD
ATOM     59  H   UNL     1      -5.265  12.355  19.740  0.00  0.00    +0.062 HD
BRANCH  50  60
ATOM     60  C   UNL     1      -5.124  11.211  17.264  0.00  0.00    -0.040 C 
ATOM     61  H   UNL     1      -5.378  10.167  17.470  0.00  0.00    +0.028 HD
ATOM     62  H   UNL     1      -4.857  11.307  16.206  0.00  0.00    +0.028 HD
ATOM     63  H   UNL     1      -6.010  11.833  17.434  0.00  0.00    +0.028 HD
ENDBRANCH  50  60
ENDBRANCH  47  53
ENDBRANCH  42  47
ENDBRANCH   1  42
TORSDOF 9
ENDMDL
MODEL 15
REMARK VINA RESULT:    -7.116      1.840      8.679
REMARK INTER + INTRA:         -11.300
REMARK INTER:                 -10.074
REMARK INTRA:                  -1.226
REMARK UNBOUND:                -0.856
REMARK  Name = 
REMARK  9 active torsions:
REMARK  status: ('A' for Active; 'I' for Inactive)
REMARK    1  A    between atoms: C_1  and  C_2
REMARK    2  A    between atoms: C_5  and  C_6
REMARK    3  A    between atoms: C_6  and  N_7
REMARK    4  A    between atoms: N_7  and  C_8
REMARK    5  A    between atoms: N_7  and  C_9
REMARK    6  A    between atoms: C_12  and  C_13
REMARK    7  A    between atoms: C_13  and  N_14
REMARK    8  A    between atoms: N_17  and  C_18
REMARK    9  A    between atoms: C_27  and  C_28
REMARK                            x       y       z     vdW  Elec       q    Type
REMARK                         _______ _______ _______ _____ _____    ______ ____
ROOT
ATOM      1  C   UNL     1      -1.863  12.041  20.275  0.00  0.00    +0.030 A 
ATOM      2  C   UNL     1      -1.705  11.276  21.439  0.00  0.00    -0.040 A 
ATOM      3  C   UNL     1      -0.487  10.668  21.766  0.00  0.00    -0.055 A 
ATOM      4  C   UNL     1       0.631  10.796  20.932  0.00  0.00    -0.018 A 
ATOM      5  C   UNL     1       0.487  11.532  19.743  0.00  0.00    +0.043 A 
ATOM      6  C   UNL     1      -0.743  12.147  19.436  0.00  0.00    -0.028 A 
ATOM      7  H   UNL     1      -2.551  11.108  22.103  0.00  0.00    +0.064 HD
ATOM      8  H   UNL     1      -0.430  10.065  22.671  0.00  0.00    +0.062 HD
ATOM      9  H   UNL     1      -0.804  12.758  18.540  0.00  0.00    +0.064 HD
ENDROOT
BRANCH   5  10
ATOM     10  C   UNL     1       1.619  11.680  18.782  0.00  0.00    +0.242 C 
ATOM     11  N   UNL     1       1.765  10.687  17.853  0.00  0.00    -0.325 N 
ATOM     12  O   UNL     1       2.406  12.615  18.819  0.00  0.00    -0.270 OA
ATOM     13  H   UNL     1       1.274   9.806  17.919  0.00  0.00    +0.145 HD
ATOM     14  H   UNL     1       2.571  10.747  17.246  0.00  0.00    +0.145 HD
ENDBRANCH   5  10
BRANCH   4  15
ATOM     15  C   UNL     1       1.908  10.095  21.318  0.00  0.00    +0.039 C 
ATOM     16  H   UNL     1       2.678  10.235  20.552  0.00  0.00    +0.051 HD
ATOM     17  H   UNL     1       2.325  10.516  22.242  0.00  0.00    +0.051 HD
BRANCH  15  18
ATOM     18  N   UNL     1       1.690   8.678  21.503  0.00  0.00    -0.295 N 
ATOM     19  C   UNL     1       1.645   7.820  20.442  0.00  0.00    +0.300 C 
ATOM     20  O   UNL     1       1.777   8.156  19.274  0.00  0.00    -0.253 OA
ATOM     21  N   UNL     1       1.460   6.528  20.863  0.00  0.00    -0.293 N 
ATOM     22  H   UNL     1       1.183   8.409  22.336  0.00  0.00    +0.151 HD
ATOM     23  H   UNL     1       1.859   6.349  21.770  0.00  0.00    +0.151 HD
BRANCH  21  24
ATOM     24  C   UNL     1       1.556   5.458  19.896  0.00  0.00    +0.050 C 
ATOM     25  C   UNL     1       0.886   4.157  20.388  0.00  0.00    -0.026 C 
ATOM     26  C   UNL     1       1.623   3.006  19.694  0.00  0.00    -0.025 C 
ATOM     27  C   UNL     1       2.996   3.583  19.543  0.00  0.00    -0.042 A 
ATOM     28  C   UNL     1       4.169   2.909  19.253  0.00  0.00    -0.058 A 
ATOM     29  C   UNL     1       5.339   3.654  19.092  0.00  0.00    -0.061 A 
ATOM     30  C   UNL     1       5.316   5.052  19.203  0.00  0.00    -0.061 A 
ATOM     31  C   UNL     1       4.124   5.726  19.481  0.00  0.00    -0.057 A 
ATOM     32  C   UNL     1       2.967   4.980  19.661  0.00  0.00    -0.024 A 
ATOM     33  H   UNL     1       1.121   5.783  18.941  0.00  0.00    +0.055 HD
ATOM     34  H   UNL     1      -0.191   4.138  20.186  0.00  0.00    +0.029 HD
ATOM     35  H   UNL     1       1.008   4.057  21.475  0.00  0.00    +0.029 HD
ATOM     36  H   UNL     1       1.191   2.800  18.710  0.00  0.00    +0.031 HD
ATOM     37  H   UNL     1       1.616   2.098  20.302  0.00  0.00    +0.031 HD
ATOM     38  H   UNL     1       4.184   1.828  19.149  0.00  0.00    +0.062 HD
ATOM     39  H   UNL     1       6.273   3.146  18.863  0.00  0.00    +0.062 HD
ATOM     40  H   UNL     1       6.235   5.616  19.060  0.00  0.00    +0.062 HD
ATOM     41  H   UNL     1       4.113   6.810  19.537  0.00  0.00    +0.062 HD
ENDBRANCH  21  24
ENDBRANCH  15  18
ENDBRANCH   4  15
BRANCH   1  42
ATOM     42  N   UNL     1      -3.095  12.631  19.977  0.00  0.00    -0.329 N 
BRANCH  42  43
ATOM     43  C   UNL     1      -3.547  13.770  20.773  0.00  0.00    +0.001 C 
ATOM     44  H   UNL     1      -4.060  14.506  20.144  0.00  0.00    +0.043 HD
ATOM     45  H   UNL     1      -2.714  14.258  21.294  0.00  0.00    +0.043 HD
ATOM     46  H   UNL     1      -4.271  13.442  21.530  0.00  0.00    +0.043 HD
ENDBRANCH  42  43
BRANCH  42  47
ATOM     47  C   UNL     1      -4.158  11.752  19.454  0.00  0.00    +0.037 C 
ATOM     48  H   UNL     1      -4.291  10.907  20.142  0.00  0.00    +0.051 HD
ATOM     49  H   UNL     1      -5.137  12.242  19.438  0.00  0.00    +0.051 HD
BRANCH  47  53
ATOM     50  C   UNL     1      -3.202  10.250  15.500  0.00  0.00    -0.050 A 
ATOM     51  C   UNL     1      -4.102  11.309  15.659  0.00  0.00    -0.059 A 
ATOM     52  C   UNL     1      -4.413  11.791  16.933  0.00  0.00    -0.057 A 
ATOM     53  C   UNL     1      -3.839  11.213  18.074  0.00  0.00    -0.030 A 
ATOM     54  C   UNL     1      -2.951  10.141  17.912  0.00  0.00    -0.057 A 
ATOM     55  C   UNL     1      -2.639   9.662  16.637  0.00  0.00    -0.059 A 
ATOM     56  H   UNL     1      -4.564  11.773  14.791  0.00  0.00    +0.062 HD
ATOM     57  H   UNL     1      -5.103  12.625  17.031  0.00  0.00    +0.062 HD
ATOM     58  H   UNL     1      -2.492   9.671  18.780  0.00  0.00    +0.062 HD
ATOM     59  H   UNL     1      -1.946   8.831  16.537  0.00  0.00    +0.062 HD
BRANCH  50  60
ATOM     60  C   UNL     1      -2.887   9.722  14.133  0.00  0.00    -0.040 C 
ATOM     61  H   UNL     1      -2.301  10.458  13.574  0.00  0.00    +0.028 HD
ATOM     62  H   UNL     1      -3.804   9.505  13.575  0.00  0.00    +0.028 HD
ATOM     63  H   UNL     1      -2.318   8.789  14.198  0.00  0.00    +0.028 HD
ENDBRANCH  50  60
ENDBRANCH  47  53
ENDBRANCH  42  47
ENDBRANCH   1  42
TORSDOF 9
ENDMDL
MODEL 16
REMARK VINA RESULT:    -7.116      1.163      1.754
REMARK INTER + INTRA:         -11.300
REMARK INTER:                 -10.989
REMARK INTRA:                  -0.310
REMARK UNBOUND:                -0.856
REMARK  Name = 
REMARK  9 active torsions:
REMARK  status: ('A' for Active; 'I' for Inactive)
REMARK    1  A    between atoms: C_1  and  C_2
REMARK    2  A    between atoms: C_5  and  C_6
REMARK    3  A    between atoms: C_6  and  N_7
REMARK    4  A    between atoms: N_7  and  C_8
REMARK    5  A    between atoms: N_7  and  C_9
REMARK    6  A    between atoms: C_12  and  C_13
REMARK    7  A    between atoms: C_13  and  N_14
REMARK    8  A    between atoms: N_17  and  C_18
REMARK    9  A    between atoms: C_27  and  C_28
REMARK                            x       y       z     vdW  Elec       q    Type
REMARK                         _______ _______ _______ _____ _____    ______ ____
ROOT
ATOM      1  C   UNL     1       1.900   4.392  18.874  0.00  0.00    +0.030 A 
ATOM      2  C   UNL     1       1.597   4.593  20.227  0.00  0.00    -0.040 A 
ATOM      3  C   UNL     1       1.605   5.867  20.807  0.00  0.00    -0.055 A 
ATOM      4  C   UNL     1       1.926   7.002  20.051  0.00  0.00    -0.018 A 
ATOM      5  C   UNL     1       2.265   6.822  18.699  0.00  0.00    +0.043 A 
ATOM      6  C   UNL     1       2.240   5.532  18.130  0.00  0.00    -0.028 A 
ATOM      7  H   UNL     1       1.382   3.743  20.872  0.00  0.00    +0.064 HD
ATOM      8  H   UNL     1       1.386   5.960  21.869  0.00  0.00    +0.062 HD
ATOM      9  H   UNL     1       2.449   5.435  17.068  0.00  0.00    +0.064 HD
ENDROOT
BRANCH   5  10
ATOM     10  C   UNL     1       2.658   7.975  17.838  0.00  0.00    +0.242 C 
ATOM     11  N   UNL     1       1.657   8.833  17.474  0.00  0.00    -0.325 N 
ATOM     12  O   UNL     1       3.801   8.151  17.441  0.00  0.00    -0.270 OA
ATOM     13  H   UNL     1       0.680   8.612  17.603  0.00  0.00    +0.145 HD
ATOM     14  H   UNL     1       1.904   9.575  16.834  0.00  0.00    +0.145 HD
ENDBRANCH   5  10
BRANCH   4  15
ATOM     15  C   UNL     1       1.950   8.346  20.734  0.00  0.00    +0.039 C 
ATOM     16  H   UNL     1       2.372   8.265  21.741  0.00  0.00    +0.051 HD
ATOM     17  H   UNL     1       2.596   9.050  20.194  0.00  0.00    +0.051 HD
BRANCH  15  18
ATOM     18  N   UNL     1       0.621   8.906  20.831  0.00  0.00    -0.295 N 
ATOM     19  C   UNL     1       0.424  10.242  21.031  0.00  0.00    +0.300 C 
ATOM     20  O   UNL     1       1.322  11.065  21.145  0.00  0.00    -0.253 OA
ATOM     21  N   UNL     1      -0.914  10.543  21.057  0.00  0.00    -0.293 N 
ATOM     22  H   UNL     1      -0.106   8.279  21.153  0.00  0.00    +0.151 HD
ATOM     23  H   UNL     1      -1.466   9.929  20.482  0.00  0.00    +0.151 HD
BRANCH  21  24
ATOM     24  C   UNL     1      -1.317  11.931  21.088  0.00  0.00    +0.050 C 
ATOM     25  C   UNL     1      -1.583  12.435  22.523  0.00  0.00    -0.026 C 
ATOM     26  C   UNL     1      -2.617  13.559  22.399  0.00  0.00    -0.025 C 
ATOM     27  C   UNL     1      -3.389  13.117  21.195  0.00  0.00    -0.042 A 
ATOM     28  C   UNL     1      -4.626  13.569  20.771  0.00  0.00    -0.058 A 
ATOM     29  C   UNL     1      -5.142  13.065  19.575  0.00  0.00    -0.061 A 
ATOM     30  C   UNL     1      -4.413  12.137  18.818  0.00  0.00    -0.061 A 
ATOM     31  C   UNL     1      -3.158  11.697  19.246  0.00  0.00    -0.057 A 
ATOM     32  C   UNL     1      -2.656  12.185  20.445  0.00  0.00    -0.024 A 
ATOM     33  H   UNL     1      -0.555  12.548  20.593  0.00  0.00    +0.055 HD
ATOM     34  H   UNL     1      -0.668  12.771  23.025  0.00  0.00    +0.029 HD
ATOM     35  H   UNL     1      -2.003  11.626  23.136  0.00  0.00    +0.029 HD
ATOM     36  H   UNL     1      -2.130  14.520  22.202  0.00  0.00    +0.031 HD
ATOM     37  H   UNL     1      -3.241  13.633  23.292  0.00  0.00    +0.031 HD
ATOM     38  H   UNL     1      -5.183  14.302  21.347  0.00  0.00    +0.062 HD
ATOM     39  H   UNL     1      -6.113  13.407  19.222  0.00  0.00    +0.062 HD
ATOM     40  H   UNL     1      -4.825  11.767  17.882  0.00  0.00    +0.062 HD
ATOM     41  H   UNL     1      -2.590  11.000  18.638  0.00  0.00    +0.062 HD
ENDBRANCH  21  24
ENDBRANCH  15  18
ENDBRANCH   4  15
BRANCH   1  42
ATOM     42  N   UNL     1       1.887   3.105  18.328  0.00  0.00    -0.329 N 
BRANCH  42  43
ATOM     43  C   UNL     1       0.820   2.183  18.712  0.00  0.00    +0.001 C 
ATOM     44  H   UNL     1       0.039   2.150  17.945  0.00  0.00    +0.043 HD
ATOM     45  H   UNL     1       0.371   2.459  19.674  0.00  0.00    +0.043 HD
ATOM     46  H   UNL     1       1.215   1.162  18.806  0.00  0.00    +0.043 HD
ENDBRANCH  42  43
BRANCH  42  47
ATOM     47  C   UNL     1       3.190   2.485  18.022  0.00  0.00    +0.037 C 
ATOM     48  H   UNL     1       3.440   1.772  18.818  0.00  0.00    +0.051 HD
ATOM     49  H   UNL     1       3.161   1.874  17.114  0.00  0.00    +0.051 HD
BRANCH  47  53
ATOM     50  C   UNL     1       6.342   5.446  17.707  0.00  0.00    -0.050 A 
ATOM     51  C   UNL     1       5.662   5.010  16.566  0.00  0.00    -0.059 A 
ATOM     52  C   UNL     1       4.648   4.053  16.667  0.00  0.00    -0.057 A 
ATOM     53  C   UNL     1       4.306   3.504  17.910  0.00  0.00    -0.030 A 
ATOM     54  C   UNL     1       5.002   3.932  19.049  0.00  0.00    -0.057 A 
ATOM     55  C   UNL     1       6.013   4.890  18.947  0.00  0.00    -0.059 A 
ATOM     56  H   UNL     1       5.909   5.417  15.588  0.00  0.00    +0.062 HD
ATOM     57  H   UNL     1       4.122   3.741  15.767  0.00  0.00    +0.062 HD
ATOM     58  H   UNL     1       4.760   3.520  20.028  0.00  0.00    +0.062 HD
ATOM     59  H   UNL     1       6.538   5.206  19.845  0.00  0.00    +0.062 HD
BRANCH  50  60
ATOM     60  C   UNL     1       7.443   6.457  17.592  0.00  0.00    -0.040 C 
ATOM     61  H   UNL     1       7.224   7.323  18.225  0.00  0.00    +0.028 HD
ATOM     62  H   UNL     1       7.558   6.797  16.557  0.00  0.00    +0.028 HD
ATOM     63  H   UNL     1       8.401   6.024  17.900  0.00  0.00    +0.028 HD
ENDBRANCH  50  60
ENDBRANCH  47  53
ENDBRANCH  42  47
ENDBRANCH   1  42
TORSDOF 9
ENDMDL
MODEL 17
REMARK VINA RESULT:    -7.115      2.266      4.001
REMARK INTER + INTRA:         -11.299
REMARK INTER:                 -10.772
REMARK INTRA:                  -0.526
REMARK UNBOUND:                -0.856
REMARK  Name = 
REMARK  9 active torsions:
REMARK  status: ('A' for Active; 'I' for Inactive)
REMARK    1  A    between atoms: C_1  and  C_2
REMARK    2  A    between atoms: C_5  and  C_6
REMARK    3  A    between atoms: C_6  and  N_7
REMARK    4  A    between atoms: N_7  and  C_8
REMARK    5  A    between atoms: N_7  and  C_9
REMARK    6  A    between atoms: C_12  and  C_13
REMARK    7  A    between atoms: C_13  and  N_14
REMARK    8  A    between atoms: N_17  and  C_18
REMARK    9  A    between atoms: C_27  and  C_28
REMARK                            x       y       z     vdW  Elec       q    Type
REMARK                         _______ _______ _______ _____ _____    ______ ____
ROOT
ATOM      1  C   UNL     1       5.832   6.129  18.371  0.00  0.00    +0.030 A 
ATOM      2  C   UNL     1       5.416   7.128  17.480  0.00  0.00    -0.040 A 
ATOM      3  C   UNL     1       4.074   7.510  17.370  0.00  0.00    -0.055 A 
ATOM      4  C   UNL     1       3.083   6.899  18.150  0.00  0.00    -0.018 A 
ATOM      5  C   UNL     1       3.472   5.872  19.027  0.00  0.00    +0.043 A 
ATOM      6  C   UNL     1       4.830   5.509  19.133  0.00  0.00    -0.028 A 
ATOM      7  H   UNL     1       6.136   7.607  16.820  0.00  0.00    +0.064 HD
ATOM      8  H   UNL     1       3.806   8.275  16.643  0.00  0.00    +0.062 HD
ATOM      9  H   UNL     1       5.105   4.754  19.864  0.00  0.00    +0.064 HD
ENDROOT
BRANCH   5  10
ATOM     10  C   UNL     1       2.471   5.145  19.860  0.00  0.00    +0.242 C 
ATOM     11  N   UNL     1       2.358   5.544  21.164  0.00  0.00    -0.325 N 
ATOM     12  O   UNL     1       1.795   4.220  19.434  0.00  0.00    -0.270 OA
ATOM     13  H   UNL     1       3.033   6.152  21.606  0.00  0.00    +0.145 HD
ATOM     14  H   UNL     1       1.733   5.009  21.751  0.00  0.00    +0.145 HD
ENDBRANCH   5  10
BRANCH   4  15
ATOM     15  C   UNL     1       1.649   7.329  17.968  0.00  0.00    +0.039 C 
ATOM     16  H   UNL     1       1.172   6.762  17.162  0.00  0.00    +0.051 HD
ATOM     17  H   UNL     1       1.060   7.122  18.870  0.00  0.00    +0.051 HD
BRANCH  15  18
ATOM     18  N   UNL     1       1.561   8.738  17.660  0.00  0.00    -0.295 N 
ATOM     19  C   UNL     1       0.975   9.620  18.521  0.00  0.00    +0.300 C 
ATOM     20  O   UNL     1       0.483   9.313  19.597  0.00  0.00    -0.253 OA
ATOM     21  N   UNL     1       1.037  10.899  18.032  0.00  0.00    -0.293 N 
ATOM     22  H   UNL     1       1.559   8.981  16.677  0.00  0.00    +0.151 HD
ATOM     23  H   UNL     1       1.848  11.062  17.458  0.00  0.00    +0.151 HD
BRANCH  21  24
ATOM     24  C   UNL     1       0.620  11.993  18.881  0.00  0.00    +0.050 C 
ATOM     25  C   UNL     1       1.160  11.859  20.321  0.00  0.00    -0.026 C 
ATOM     26  C   UNL     1       0.153  12.578  21.225  0.00  0.00    -0.025 C 
ATOM     27  C   UNL     1      -1.123  12.365  20.473  0.00  0.00    -0.042 A 
ATOM     28  C   UNL     1      -2.416  12.530  20.936  0.00  0.00    -0.058 A 
ATOM     29  C   UNL     1      -3.472  12.339  20.042  0.00  0.00    -0.061 A 
ATOM     30  C   UNL     1      -3.220  12.005  18.703  0.00  0.00    -0.061 A 
ATOM     31  C   UNL     1      -1.911  11.855  18.239  0.00  0.00    -0.057 A 
ATOM     32  C   UNL     1      -0.865  12.027  19.136  0.00  0.00    -0.024 A 
ATOM     33  H   UNL     1       0.932  12.946  18.434  0.00  0.00    +0.055 HD
ATOM     34  H   UNL     1       2.173  12.266  20.428  0.00  0.00    +0.029 HD
ATOM     35  H   UNL     1       1.210  10.800  20.610  0.00  0.00    +0.029 HD
ATOM     36  H   UNL     1       0.377  13.648  21.291  0.00  0.00    +0.031 HD
ATOM     37  H   UNL     1       0.126  12.141  22.226  0.00  0.00    +0.031 HD
ATOM     38  H   UNL     1      -2.611  12.807  21.969  0.00  0.00    +0.062 HD
ATOM     39  H   UNL     1      -4.496  12.463  20.385  0.00  0.00    +0.062 HD
ATOM     40  H   UNL     1      -4.054  11.874  18.018  0.00  0.00    +0.062 HD
ATOM     41  H   UNL     1      -1.728  11.624  17.194  0.00  0.00    +0.062 HD
ENDBRANCH  21  24
ENDBRANCH  15  18
ENDBRANCH   4  15
BRANCH   1  42
ATOM     42  N   UNL     1       7.180   5.769  18.453  0.00  0.00    -0.329 N 
BRANCH  42  43
ATOM     43  C   UNL     1       8.192   6.821  18.527  0.00  0.00    +0.001 C 
ATOM     44  H   UNL     1       9.200   6.392  18.550  0.00  0.00    +0.043 HD
ATOM     45  H   UNL     1       8.050   7.459  19.408  0.00  0.00    +0.043 HD
ATOM     46  H   UNL     1       8.141   7.461  17.637  0.00  0.00    +0.043 HD
ENDBRANCH  42  43
BRANCH  42  47
ATOM     47  C   UNL     1       7.593   4.530  17.767  0.00  0.00    +0.037 C 
ATOM     48  H   UNL     1       8.684   4.537  17.647  0.00  0.00    +0.051 HD
ATOM     49  H   UNL     1       7.395   3.633  18.364  0.00  0.00    +0.051 HD
BRANCH  47  53
ATOM     50  C   UNL     1       5.795   4.052  13.851  0.00  0.00    -0.050 A 
ATOM     51  C   UNL     1       6.963   4.805  14.008  0.00  0.00    -0.059 A 
ATOM     52  C   UNL     1       7.541   4.962  15.271  0.00  0.00    -0.057 A 
ATOM     53  C   UNL     1       6.953   4.380  16.402  0.00  0.00    -0.030 A 
ATOM     54  C   UNL     1       5.772   3.641  16.242  0.00  0.00    -0.057 A 
ATOM     55  C   UNL     1       5.197   3.482  14.979  0.00  0.00    -0.059 A 
ATOM     56  H   UNL     1       7.439   5.269  13.148  0.00  0.00    +0.062 HD
ATOM     57  H   UNL     1       8.458   5.538  15.366  0.00  0.00    +0.062 HD
ATOM     58  H   UNL     1       5.291   3.180  17.104  0.00  0.00    +0.062 HD
ATOM     59  H   UNL     1       4.283   2.904  14.881  0.00  0.00    +0.062 HD
BRANCH  50  60
ATOM     60  C   UNL     1       5.166   3.904  12.498  0.00  0.00    -0.040 C 
ATOM     61  H   UNL     1       5.121   2.846  12.220  0.00  0.00    +0.028 HD
ATOM     62  H   UNL     1       5.740   4.443  11.737  0.00  0.00    +0.028 HD
ATOM     63  H   UNL     1       4.152   4.316  12.494  0.00  0.00    +0.028 HD
ENDBRANCH  50  60
ENDBRANCH  47  53
ENDBRANCH  42  47
ENDBRANCH   1  42
TORSDOF 9
ENDMDL
MODEL 18
REMARK VINA RESULT:    -7.087      2.673      9.843
REMARK INTER + INTRA:         -11.257
REMARK INTER:                 -11.375
REMARK INTRA:                   0.118
REMARK UNBOUND:                -0.856
REMARK  Name = 
REMARK  9 active torsions:
REMARK  status: ('A' for Active; 'I' for Inactive)
REMARK    1  A    between atoms: C_1  and  C_2
REMARK    2  A    between atoms: C_5  and  C_6
REMARK    3  A    between atoms: C_6  and  N_7
REMARK    4  A    between atoms: N_7  and  C_8
REMARK    5  A    between atoms: N_7  and  C_9
REMARK    6  A    between atoms: C_12  and  C_13
REMARK    7  A    between atoms: C_13  and  N_14
REMARK    8  A    between atoms: N_17  and  C_18
REMARK    9  A    between atoms: C_27  and  C_28
REMARK                            x       y       z     vdW  Elec       q    Type
REMARK                         _______ _______ _______ _____ _____    ______ ____
ROOT
ATOM      1  C   UNL     1      -0.128  13.473  20.000  0.00  0.00    +0.030 A 
ATOM      2  C   UNL     1       1.110  12.846  20.196  0.00  0.00    -0.040 A 
ATOM      3  C   UNL     1       1.431  11.630  19.581  0.00  0.00    -0.055 A 
ATOM      4  C   UNL     1       0.516  10.983  18.740  0.00  0.00    -0.018 A 
ATOM      5  C   UNL     1      -0.744  11.576  18.554  0.00  0.00    +0.043 A 
ATOM      6  C   UNL     1      -1.045  12.807  19.172  0.00  0.00    -0.028 A 
ATOM      7  H   UNL     1       1.843  13.281  20.872  0.00  0.00    +0.064 HD
ATOM      8  H   UNL     1       2.399  11.177  19.790  0.00  0.00    +0.062 HD
ATOM      9  H   UNL     1      -2.005  13.268  18.960  0.00  0.00    +0.064 HD
ENDROOT
BRANCH   5  10
ATOM     10  C   UNL     1      -1.788  10.929  17.706  0.00  0.00    +0.242 C 
ATOM     11  N   UNL     1      -2.088  11.551  16.526  0.00  0.00    -0.325 N 
ATOM     12  O   UNL     1      -2.379   9.912  18.038  0.00  0.00    -0.270 OA
ATOM     13  H   UNL     1      -1.780  12.490  16.315  0.00  0.00    +0.145 HD
ATOM     14  H   UNL     1      -2.843  11.157  15.982  0.00  0.00    +0.145 HD
ENDBRANCH   5  10
BRANCH   4  15
ATOM     15  C   UNL     1       0.903   9.660  18.128  0.00  0.00    +0.039 C 
ATOM     16  H   UNL     1       0.020   9.127  17.762  0.00  0.00    +0.051 HD
ATOM     17  H   UNL     1       1.549   9.807  17.253  0.00  0.00    +0.051 HD
BRANCH  15  18
ATOM     18  N   UNL     1       1.588   8.823  19.086  0.00  0.00    -0.295 N 
ATOM     19  C   UNL     1       2.081   7.599  18.737  0.00  0.00    +0.300 C 
ATOM     20  O   UNL     1       1.991   7.108  17.620  0.00  0.00    -0.253 OA
ATOM     21  N   UNL     1       2.716   7.004  19.796  0.00  0.00    -0.293 N 
ATOM     22  H   UNL     1       1.342   8.961  20.058  0.00  0.00    +0.151 HD
ATOM     23  H   UNL     1       3.135   7.667  20.427  0.00  0.00    +0.151 HD
BRANCH  21  24
ATOM     24  C   UNL     1       3.449   5.778  19.573  0.00  0.00    +0.050 C 
ATOM     25  C   UNL     1       4.229   5.791  18.241  0.00  0.00    -0.026 C 
ATOM     26  C   UNL     1       4.340   4.330  17.794  0.00  0.00    -0.025 C 
ATOM     27  C   UNL     1       3.082   3.752  18.360  0.00  0.00    -0.042 A 
ATOM     28  C   UNL     1       2.484   2.546  18.037  0.00  0.00    -0.058 A 
ATOM     29  C   UNL     1       1.338   2.164  18.737  0.00  0.00    -0.061 A 
ATOM     30  C   UNL     1       0.819   2.979  19.754  0.00  0.00    -0.061 A 
ATOM     31  C   UNL     1       1.436   4.189  20.084  0.00  0.00    -0.057 A 
ATOM     32  C   UNL     1       2.564   4.574  19.373  0.00  0.00    -0.024 A 
ATOM     33  H   UNL     1       4.124   5.593  20.419  0.00  0.00    +0.055 HD
ATOM     34  H   UNL     1       5.211   6.269  18.336  0.00  0.00    +0.029 HD
ATOM     35  H   UNL     1       3.672   6.358  17.482  0.00  0.00    +0.029 HD
ATOM     36  H   UNL     1       5.213   3.847  18.245  0.00  0.00    +0.031 HD
ATOM     37  H   UNL     1       4.388   4.244  16.706  0.00  0.00    +0.031 HD
ATOM     38  H   UNL     1       2.897   1.906  17.262  0.00  0.00    +0.062 HD
ATOM     39  H   UNL     1       0.853   1.220  18.500  0.00  0.00    +0.062 HD
ATOM     40  H   UNL     1      -0.067   2.659  20.298  0.00  0.00    +0.062 HD
ATOM     41  H   UNL     1       1.042   4.797  20.891  0.00  0.00    +0.062 HD
ENDBRANCH  21  24
ENDBRANCH  15  18
ENDBRANCH   4  15
BRANCH   1  42
ATOM     42  N   UNL     1      -0.417  14.684  20.634  0.00  0.00    -0.329 N 
BRANCH  42  43
ATOM     43  C   UNL     1       0.434  15.129  21.736  0.00  0.00    +0.001 C 
ATOM     44  H   UNL     1       1.493  15.011  21.482  0.00  0.00    +0.043 HD
ATOM     45  H   UNL     1       0.220  14.580  22.661  0.00  0.00    +0.043 HD
ATOM     46  H   UNL     1       0.272  16.197  21.934  0.00  0.00    +0.043 HD
ENDBRANCH  42  43
BRANCH  42  47
ATOM     47  C   UNL     1      -1.834  15.085  20.716  0.00  0.00    +0.037 C 
ATOM     48  H   UNL     1      -1.888  16.164  20.910  0.00  0.00    +0.051 HD
ATOM     49  H   UNL     1      -2.363  14.956  19.766  0.00  0.00    +0.051 HD
BRANCH  47  53
ATOM     50  C   UNL     1      -4.016  13.036  23.854  0.00  0.00    -0.050 A 
ATOM     51  C   UNL     1      -3.109  14.053  24.168  0.00  0.00    -0.059 A 
ATOM     52  C   UNL     1      -2.404  14.712  23.157  0.00  0.00    -0.057 A 
ATOM     53  C   UNL     1      -2.581  14.354  21.813  0.00  0.00    -0.030 A 
ATOM     54  C   UNL     1      -3.478  13.321  21.505  0.00  0.00    -0.057 A 
ATOM     55  C   UNL     1      -4.185  12.667  22.516  0.00  0.00    -0.059 A 
ATOM     56  H   UNL     1      -2.950  14.349  25.202  0.00  0.00    +0.062 HD
ATOM     57  H   UNL     1      -1.716  15.511  23.424  0.00  0.00    +0.062 HD
ATOM     58  H   UNL     1      -3.634  13.020  20.470  0.00  0.00    +0.062 HD
ATOM     59  H   UNL     1      -4.875  11.870  22.251  0.00  0.00    +0.062 HD
BRANCH  50  60
ATOM     60  C   UNL     1      -4.755  12.318  24.943  0.00  0.00    -0.040 C 
ATOM     61  H   UNL     1      -5.574  12.942  25.313  0.00  0.00    +0.028 HD
ATOM     62  H   UNL     1      -4.089  12.079  25.778  0.00  0.00    +0.028 HD
ATOM     63  H   UNL     1      -5.168  11.372  24.574  0.00  0.00    +0.028 HD
ENDBRANCH  50  60
ENDBRANCH  47  53
ENDBRANCH  42  47
ENDBRANCH   1  42
TORSDOF 9
ENDMDL
MODEL 19
REMARK VINA RESULT:    -7.034      2.710      4.450
REMARK INTER + INTRA:         -11.179
REMARK INTER:                 -10.807
REMARK INTRA:                  -0.372
REMARK UNBOUND:                -0.856
REMARK  Name = 
REMARK  9 active torsions:
REMARK  status: ('A' for Active; 'I' for Inactive)
REMARK    1  A    between atoms: C_1  and  C_2
REMARK    2  A    between atoms: C_5  and  C_6
REMARK    3  A    between atoms: C_6  and  N_7
REMARK    4  A    between atoms: N_7  and  C_8
REMARK    5  A    between atoms: N_7  and  C_9
REMARK    6  A    between atoms: C_12  and  C_13
REMARK    7  A    between atoms: C_13  and  N_14
REMARK    8  A    between atoms: N_17  and  C_18
REMARK    9  A    between atoms: C_27  and  C_28
REMARK                            x       y       z     vdW  Elec       q    Type
REMARK                         _______ _______ _______ _____ _____    ______ ____
ROOT
ATOM      1  C   UNL     1       5.830   6.149  18.365  0.00  0.00    +0.030 A 
ATOM      2  C   UNL     1       5.403   7.149  17.481  0.00  0.00    -0.040 A 
ATOM      3  C   UNL     1       4.056   7.517  17.374  0.00  0.00    -0.055 A 
ATOM      4  C   UNL     1       3.072   6.891  18.151  0.00  0.00    -0.018 A 
ATOM      5  C   UNL     1       3.473   5.863  19.021  0.00  0.00    +0.043 A 
ATOM      6  C   UNL     1       4.835   5.513  19.124  0.00  0.00    -0.028 A 
ATOM      7  H   UNL     1       6.116   7.640  16.823  0.00  0.00    +0.064 HD
ATOM      8  H   UNL     1       3.779   8.283  16.652  0.00  0.00    +0.062 HD
ATOM      9  H   UNL     1       5.119   4.757  19.849  0.00  0.00    +0.064 HD
ENDROOT
BRANCH   5  10
ATOM     10  C   UNL     1       2.481   5.120  19.851  0.00  0.00    +0.242 C 
ATOM     11  N   UNL     1       2.345   5.527  21.149  0.00  0.00    -0.325 N 
ATOM     12  O   UNL     1       1.832   4.174  19.427  0.00  0.00    -0.270 OA
ATOM     13  H   UNL     1       3.001   6.155  21.592  0.00  0.00    +0.145 HD
ATOM     14  H   UNL     1       1.726   4.983  21.735  0.00  0.00    +0.145 HD
ENDBRANCH   5  10
BRANCH   4  15
ATOM     15  C   UNL     1       1.634   7.305  17.973  0.00  0.00    +0.039 C 
ATOM     16  H   UNL     1       1.346   7.272  16.917  0.00  0.00    +0.051 HD
ATOM     17  H   UNL     1       0.959   6.612  18.490  0.00  0.00    +0.051 HD
BRANCH  15  18
ATOM     18  N   UNL     1       1.410   8.643  18.473  0.00  0.00    -0.295 N 
ATOM     19  C   UNL     1       1.022   8.865  19.762  0.00  0.00    +0.300 C 
ATOM     20  O   UNL     1       0.829   7.984  20.589  0.00  0.00    -0.253 OA
ATOM     21  N   UNL     1       0.904  10.207  20.016  0.00  0.00    -0.293 N 
ATOM     22  H   UNL     1       1.151   9.339  17.786  0.00  0.00    +0.151 HD
ATOM     23  H   UNL     1       1.536  10.768  19.470  0.00  0.00    +0.151 HD
BRANCH  21  24
ATOM     24  C   UNL     1       0.666  10.643  21.374  0.00  0.00    +0.050 C 
ATOM     25  C   UNL     1       0.248   9.482  22.302  0.00  0.00    -0.026 C 
ATOM     26  C   UNL     1      -0.616  10.104  23.404  0.00  0.00    -0.025 C 
ATOM     27  C   UNL     1      -1.244  11.250  22.676  0.00  0.00    -0.042 A 
ATOM     28  C   UNL     1      -2.341  12.000  23.063  0.00  0.00    -0.058 A 
ATOM     29  C   UNL     1      -2.726  13.076  22.260  0.00  0.00    -0.061 A 
ATOM     30  C   UNL     1      -2.005  13.395  21.101  0.00  0.00    -0.061 A 
ATOM     31  C   UNL     1      -0.889  12.642  20.724  0.00  0.00    -0.057 A 
ATOM     32  C   UNL     1      -0.521  11.562  21.514  0.00  0.00    -0.024 A 
ATOM     33  H   UNL     1       1.561  11.149  21.761  0.00  0.00    +0.055 HD
ATOM     34  H   UNL     1       1.109   8.941  22.709  0.00  0.00    +0.029 HD
ATOM     35  H   UNL     1      -0.353   8.750  21.744  0.00  0.00    +0.029 HD
ATOM     36  H   UNL     1       0.004  10.475  24.227  0.00  0.00    +0.031 HD
ATOM     37  H   UNL     1      -1.355   9.395  23.785  0.00  0.00    +0.031 HD
ATOM     38  H   UNL     1      -2.889  11.764  23.971  0.00  0.00    +0.062 HD
ATOM     39  H   UNL     1      -3.585  13.679  22.546  0.00  0.00    +0.062 HD
ATOM     40  H   UNL     1      -2.312  14.245  20.496  0.00  0.00    +0.062 HD
ATOM     41  H   UNL     1      -0.322  12.916  19.840  0.00  0.00    +0.062 HD
ENDBRANCH  21  24
ENDBRANCH  15  18
ENDBRANCH   4  15
BRANCH   1  42
ATOM     42  N   UNL     1       7.182   5.803  18.443  0.00  0.00    -0.329 N 
BRANCH  42  43
ATOM     43  C   UNL     1       8.185   6.865  18.477  0.00  0.00    +0.001 C 
ATOM     44  H   UNL     1       8.704   6.942  17.516  0.00  0.00    +0.043 HD
ATOM     45  H   UNL     1       8.921   6.704  19.274  0.00  0.00    +0.043 HD
ATOM     46  H   UNL     1       7.704   7.837  18.655  0.00  0.00    +0.043 HD
ENDBRANCH  42  43
BRANCH  42  47
ATOM     47  C   UNL     1       7.599   4.548  17.789  0.00  0.00    +0.037 C 
ATOM     48  H   UNL     1       8.692   4.550  17.682  0.00  0.00    +0.051 HD
ATOM     49  H   UNL     1       7.391   3.665  18.402  0.00  0.00    +0.051 HD
BRANCH  47  53
ATOM     50  C   UNL     1       5.849   3.994  13.861  0.00  0.00    -0.050 A 
ATOM     51  C   UNL     1       6.995   4.779  14.023  0.00  0.00    -0.059 A 
ATOM     52  C   UNL     1       7.557   4.960  15.289  0.00  0.00    -0.057 A 
ATOM     53  C   UNL     1       6.975   4.371  16.420  0.00  0.00    -0.030 A 
ATOM     54  C   UNL     1       5.816   3.600  16.255  0.00  0.00    -0.057 A 
ATOM     55  C   UNL     1       5.257   3.416  14.989  0.00  0.00    -0.059 A 
ATOM     56  H   UNL     1       7.466   5.250  13.163  0.00  0.00    +0.062 HD
ATOM     57  H   UNL     1       8.458   5.562  15.388  0.00  0.00    +0.062 HD
ATOM     58  H   UNL     1       5.340   3.132  17.116  0.00  0.00    +0.062 HD
ATOM     59  H   UNL     1       4.359   2.813  14.887  0.00  0.00    +0.062 HD
BRANCH  50  60
ATOM     60  C   UNL     1       5.237   3.819  12.504  0.00  0.00    -0.040 C 
ATOM     61  H   UNL     1       5.283   2.767  12.205  0.00  0.00    +0.028 HD
ATOM     62  H   UNL     1       5.762   4.421  11.755  0.00  0.00    +0.028 HD
ATOM     63  H   UNL     1       4.190   4.142  12.505  0.00  0.00    +0.028 HD
ENDBRANCH  50  60
ENDBRANCH  47  53
ENDBRANCH  42  47
ENDBRANCH   1  42
TORSDOF 9
ENDMDL
MODEL 20
REMARK VINA RESULT:    -6.986      2.755      9.811
REMARK INTER + INTRA:         -11.109
REMARK INTER:                 -10.129
REMARK INTRA:                  -0.980
REMARK UNBOUND:                -0.856
REMARK  Name = 
REMARK  9 active torsions:
REMARK  status: ('A' for Active; 'I' for Inactive)
REMARK    1  A    between atoms: C_1  and  C_2
REMARK    2  A    between atoms: C_5  and  C_6
REMARK    3  A    between atoms: C_6  and  N_7
REMARK    4  A    between atoms: N_7  and  C_8
REMARK    5  A    between atoms: N_7  and  C_9
REMARK    6  A    between atoms: C_12  and  C_13
REMARK    7  A    between atoms: C_13  and  N_14
REMARK    8  A    between atoms: N_17  and  C_18
REMARK    9  A    between atoms: C_27  and  C_28
REMARK                            x       y       z     vdW  Elec       q    Type
REMARK                         _______ _______ _______ _____ _____    ______ ____
ROOT
ATOM      1  C   UNL     1      -1.566  12.049  19.560  0.00  0.00    +0.030 A 
ATOM      2  C   UNL     1      -1.617  10.701  19.180  0.00  0.00    -0.040 A 
ATOM      3  C   UNL     1      -0.496  10.031  18.674  0.00  0.00    -0.055 A 
ATOM      4  C   UNL     1       0.731  10.690  18.521  0.00  0.00    -0.018 A 
ATOM      5  C   UNL     1       0.797  12.051  18.865  0.00  0.00    +0.043 A 
ATOM      6  C   UNL     1      -0.338  12.706  19.384  0.00  0.00    -0.028 A 
ATOM      7  H   UNL     1      -2.554  10.151  19.238  0.00  0.00    +0.064 HD
ATOM      8  H   UNL     1      -0.601   8.990  18.372  0.00  0.00    +0.062 HD
ATOM      9  H   UNL     1      -0.237  13.741  19.696  0.00  0.00    +0.064 HD
ENDROOT
BRANCH   5  10
ATOM     10  C   UNL     1       2.056  12.833  18.692  0.00  0.00    +0.242 C 
ATOM     11  N   UNL     1       2.429  13.114  17.407  0.00  0.00    -0.325 N 
ATOM     12  O   UNL     1       2.751  13.192  19.631  0.00  0.00    -0.270 OA
ATOM     13  H   UNL     1       2.003  12.664  16.608  0.00  0.00    +0.145 HD
ATOM     14  H   UNL     1       3.316  13.581  17.281  0.00  0.00    +0.145 HD
ENDBRANCH   5  10
BRANCH   4  15
ATOM     15  C   UNL     1       1.896   9.928  17.942  0.00  0.00    +0.039 C 
ATOM     16  H   UNL     1       2.115  10.265  16.924  0.00  0.00    +0.051 HD
ATOM     17  H   UNL     1       2.810  10.109  18.522  0.00  0.00    +0.051 HD
BRANCH  15  18
ATOM     18  N   UNL     1       1.629   8.508  17.914  0.00  0.00    -0.295 N 
ATOM     19  C   UNL     1       2.639   7.592  17.983  0.00  0.00    +0.300 C 
ATOM     20  O   UNL     1       3.826   7.875  18.070  0.00  0.00    -0.253 OA
ATOM     21  N   UNL     1       2.144   6.313  17.971  0.00  0.00    -0.293 N 
ATOM     22  H   UNL     1       0.778   8.222  17.446  0.00  0.00    +0.151 HD
ATOM     23  H   UNL     1       1.232   6.241  18.390  0.00  0.00    +0.151 HD
BRANCH  21  24
ATOM     24  C   UNL     1       3.050   5.212  18.208  0.00  0.00    +0.050 C 
ATOM     25  C   UNL     1       2.987   4.146  17.093  0.00  0.00    -0.026 C 
ATOM     26  C   UNL     1       3.377   2.816  17.747  0.00  0.00    -0.025 C 
ATOM     27  C   UNL     1       2.882   3.019  19.145  0.00  0.00    -0.042 A 
ATOM     28  C   UNL     1       2.686   2.058  20.121  0.00  0.00    -0.058 A 
ATOM     29  C   UNL     1       2.276   2.474  21.389  0.00  0.00    -0.061 A 
ATOM     30  C   UNL     1       2.086   3.835  21.666  0.00  0.00    -0.061 A 
ATOM     31  C   UNL     1       2.301   4.801  20.680  0.00  0.00    -0.057 A 
ATOM     32  C   UNL     1       2.689   4.382  19.414  0.00  0.00    -0.024 A 
ATOM     33  H   UNL     1       4.073   5.594  18.326  0.00  0.00    +0.055 HD
ATOM     34  H   UNL     1       3.633   4.392  16.242  0.00  0.00    +0.029 HD
ATOM     35  H   UNL     1       1.963   4.068  16.702  0.00  0.00    +0.029 HD
ATOM     36  H   UNL     1       4.463   2.683  17.748  0.00  0.00    +0.031 HD
ATOM     37  H   UNL     1       2.897   1.968  17.252  0.00  0.00    +0.031 HD
ATOM     38  H   UNL     1       2.851   1.005  19.911  0.00  0.00    +0.062 HD
ATOM     39  H   UNL     1       2.117   1.735  22.171  0.00  0.00    +0.062 HD
ATOM     40  H   UNL     1       1.781   4.141  22.664  0.00  0.00    +0.062 HD
ATOM     41  H   UNL     1       2.178   5.854  20.914  0.00  0.00    +0.062 HD
ENDBRANCH  21  24
ENDBRANCH  15  18
ENDBRANCH   4  15
BRANCH   1  42
ATOM     42  N   UNL     1      -2.705  12.689  20.057  0.00  0.00    -0.329 N 
BRANCH  42  43
ATOM     43  C   UNL     1      -4.022  12.227  19.625  0.00  0.00    +0.001 C 
ATOM     44  H   UNL     1      -4.661  12.007  20.488  0.00  0.00    +0.043 HD
ATOM     45  H   UNL     1      -3.953  11.336  18.989  0.00  0.00    +0.043 HD
ATOM     46  H   UNL     1      -4.530  13.013  19.049  0.00  0.00    +0.043 HD
ENDBRANCH  42  43
BRANCH  42  47
ATOM     47  C   UNL     1      -2.597  14.128  20.358  0.00  0.00    +0.037 C 
ATOM     48  H   UNL     1      -1.730  14.539  19.824  0.00  0.00    +0.051 HD
ATOM     49  H   UNL     1      -3.445  14.703  19.973  0.00  0.00    +0.051 HD
BRANCH  47  53
ATOM     50  C   UNL     1      -2.127  14.970  24.586  0.00  0.00    -0.050 A 
ATOM     51  C   UNL     1      -1.010  14.901  23.748  0.00  0.00    -0.059 A 
ATOM     52  C   UNL     1      -1.160  14.626  22.386  0.00  0.00    -0.057 A 
ATOM     53  C   UNL     1      -2.432  14.402  21.839  0.00  0.00    -0.030 A 
ATOM     54  C   UNL     1      -3.547  14.455  22.687  0.00  0.00    -0.057 A 
ATOM     55  C   UNL     1      -3.395  14.733  24.047  0.00  0.00    -0.059 A 
ATOM     56  H   UNL     1      -0.011  15.068  24.146  0.00  0.00    +0.062 HD
ATOM     57  H   UNL     1      -0.278  14.593  21.750  0.00  0.00    +0.062 HD
ATOM     58  H   UNL     1      -4.547  14.282  22.291  0.00  0.00    +0.062 HD
ATOM     59  H   UNL     1      -4.276  14.770  24.683  0.00  0.00    +0.062 HD
BRANCH  50  60
ATOM     60  C   UNL     1      -1.959  15.244  26.050  0.00  0.00    -0.040 C 
ATOM     61  H   UNL     1      -1.576  14.352  26.556  0.00  0.00    +0.028 HD
ATOM     62  H   UNL     1      -2.912  15.527  26.509  0.00  0.00    +0.028 HD
ATOM     63  H   UNL     1      -1.261  16.072  26.213  0.00  0.00    +0.028 HD
ENDBRANCH  50  60
ENDBRANCH  47  53
ENDBRANCH  42  47
ENDBRANCH   1  42
TORSDOF 9
ENDMDL
MODEL 21
REMARK VINA RESULT:    -6.902      4.183      9.193
REMARK INTER + INTRA:         -10.987
REMARK INTER:                  -9.493
REMARK INTRA:                  -1.494
REMARK UNBOUND:                -0.856
REMARK  Name = 
REMARK  9 active torsions:
REMARK  status: ('A' for Active; 'I' for Inactive)
REMARK    1  A    between atoms: C_1  and  C_2
REMARK    2  A    between atoms: C_5  and  C_6
REMARK    3  A    between atoms: C_6  and  N_7
REMARK    4  A    between atoms: N_7  and  C_8
REMARK    5  A    between atoms: N_7  and  C_9
REMARK    6  A    between atoms: C_12  and  C_13
REMARK    7  A    between atoms: C_13  and  N_14
REMARK    8  A    between atoms: N_17  and  C_18
REMARK    9  A    between atoms: C_27  and  C_28
REMARK                            x       y       z     vdW  Elec       q    Type
REMARK                         _______ _______ _______ _____ _____    ______ ____
ROOT
ATOM      1  C   UNL     1       1.767  13.178  20.465  0.00  0.00    +0.030 A 
ATOM      2  C   UNL     1       1.903  13.126  19.071  0.00  0.00    -0.040 A 
ATOM      3  C   UNL     1       1.582  11.977  18.338  0.00  0.00    -0.055 A 
ATOM      4  C   UNL     1       1.113  10.821  18.976  0.00  0.00    -0.018 A 
ATOM      5  C   UNL     1       1.000  10.839  20.377  0.00  0.00    +0.043 A 
ATOM      6  C   UNL     1       1.317  12.009  21.097  0.00  0.00    -0.028 A 
ATOM      7  H   UNL     1       2.302  13.980  18.527  0.00  0.00    +0.064 HD
ATOM      8  H   UNL     1       1.730  11.986  17.259  0.00  0.00    +0.062 HD
ATOM      9  H   UNL     1       1.161  12.009  22.172  0.00  0.00    +0.064 HD
ENDROOT
BRANCH   5  10
ATOM     10  C   UNL     1       0.548   9.636  21.133  0.00  0.00    +0.242 C 
ATOM     11  N   UNL     1       1.527   8.796  21.586  0.00  0.00    -0.325 N 
ATOM     12  O   UNL     1      -0.631   9.375  21.327  0.00  0.00    -0.270 OA
ATOM     13  H   UNL     1       2.485   8.861  21.272  0.00  0.00    +0.145 HD
ATOM     14  H   UNL     1       1.224   7.944  22.037  0.00  0.00    +0.145 HD
ENDBRANCH   5  10
BRANCH   4  15
ATOM     15  C   UNL     1       0.812   9.603  18.141  0.00  0.00    +0.039 C 
ATOM     16  H   UNL     1       0.246   8.864  18.717  0.00  0.00    +0.051 HD
ATOM     17  H   UNL     1       0.179   9.862  17.282  0.00  0.00    +0.051 HD
BRANCH  15  18
ATOM     18  N   UNL     1       2.027   8.986  17.660  0.00  0.00    -0.295 N 
ATOM     19  C   UNL     1       2.471   7.798  18.166  0.00  0.00    +0.300 C 
ATOM     20  O   UNL     1       1.904   7.165  19.046  0.00  0.00    -0.253 OA
ATOM     21  N   UNL     1       3.621   7.395  17.537  0.00  0.00    -0.293 N 
ATOM     22  H   UNL     1       2.723   9.610  17.272  0.00  0.00    +0.151 HD
ATOM     23  H   UNL     1       3.675   7.703  16.581  0.00  0.00    +0.151 HD
BRANCH  21  24
ATOM     24  C   UNL     1       4.147   6.078  17.819  0.00  0.00    +0.050 C 
ATOM     25  C   UNL     1       4.946   6.033  19.140  0.00  0.00    -0.026 C 
ATOM     26  C   UNL     1       5.978   4.912  18.978  0.00  0.00    -0.025 C 
ATOM     27  C   UNL     1       6.233   4.956  17.504  0.00  0.00    -0.042 A 
ATOM     28  C   UNL     1       7.283   4.381  16.809  0.00  0.00    -0.058 A 
ATOM     29  C   UNL     1       7.296   4.490  15.417  0.00  0.00    -0.061 A 
ATOM     30  C   UNL     1       6.259   5.151  14.744  0.00  0.00    -0.061 A 
ATOM     31  C   UNL     1       5.195   5.716  15.451  0.00  0.00    -0.057 A 
ATOM     32  C   UNL     1       5.195   5.623  16.837  0.00  0.00    -0.024 A 
ATOM     33  H   UNL     1       3.326   5.349  17.835  0.00  0.00    +0.055 HD
ATOM     34  H   UNL     1       4.302   5.877  20.013  0.00  0.00    +0.029 HD
ATOM     35  H   UNL     1       5.471   6.985  19.297  0.00  0.00    +0.029 HD
ATOM     36  H   UNL     1       5.553   3.943  19.258  0.00  0.00    +0.031 HD
ATOM     37  H   UNL     1       6.879   5.106  19.565  0.00  0.00    +0.031 HD
ATOM     38  H   UNL     1       8.077   3.853  17.330  0.00  0.00    +0.062 HD
ATOM     39  H   UNL     1       8.111   4.045  14.851  0.00  0.00    +0.062 HD
ATOM     40  H   UNL     1       6.280   5.213  13.658  0.00  0.00    +0.062 HD
ATOM     41  H   UNL     1       4.384   6.201  14.917  0.00  0.00    +0.062 HD
ENDBRANCH  21  24
ENDBRANCH  15  18
ENDBRANCH   4  15
BRANCH   1  42
ATOM     42  N   UNL     1       2.101  14.340  21.166  0.00  0.00    -0.329 N 
BRANCH  42  43
ATOM     43  C   UNL     1       1.077  15.001  21.973  0.00  0.00    +0.001 C 
ATOM     44  H   UNL     1       1.515  15.800  22.580  0.00  0.00    +0.043 HD
ATOM     45  H   UNL     1       0.556  14.292  22.628  0.00  0.00    +0.043 HD
ATOM     46  H   UNL     1       0.327  15.472  21.323  0.00  0.00    +0.043 HD
ENDBRANCH  42  43
BRANCH  42  47
ATOM     47  C   UNL     1       3.114  15.228  20.564  0.00  0.00    +0.037 C 
ATOM     48  H   UNL     1       3.054  15.145  19.471  0.00  0.00    +0.051 HD
ATOM     49  H   UNL     1       2.918  16.286  20.764  0.00  0.00    +0.051 HD
BRANCH  47  53
ATOM     50  C   UNL     1       7.139  14.187  21.794  0.00  0.00    -0.050 A 
ATOM     51  C   UNL     1       6.048  13.894  22.618  0.00  0.00    -0.059 A 
ATOM     52  C   UNL     1       4.750  14.232  22.223  0.00  0.00    -0.057 A 
ATOM     53  C   UNL     1       4.523  14.884  21.002  0.00  0.00    -0.030 A 
ATOM     54  C   UNL     1       5.622  15.191  20.188  0.00  0.00    -0.057 A 
ATOM     55  C   UNL     1       6.918  14.850  20.583  0.00  0.00    -0.059 A 
ATOM     56  H   UNL     1       6.196  13.392  23.571  0.00  0.00    +0.062 HD
ATOM     57  H   UNL     1       3.915  13.980  22.872  0.00  0.00    +0.062 HD
ATOM     58  H   UNL     1       5.475  15.700  19.237  0.00  0.00    +0.062 HD
ATOM     59  H   UNL     1       7.753  15.098  19.934  0.00  0.00    +0.062 HD
BRANCH  50  60
ATOM     60  C   UNL     1       8.531  13.842  22.231  0.00  0.00    -0.040 C 
ATOM     61  H   UNL     1       8.706  14.210  23.247  0.00  0.00    +0.028 HD
ATOM     62  H   UNL     1       9.275  14.287  21.562  0.00  0.00    +0.028 HD
ATOM     63  H   UNL     1       8.686  12.758  22.215  0.00  0.00    +0.028 HD
ENDBRANCH  50  60
ENDBRANCH  47  53
ENDBRANCH  42  47
ENDBRANCH   1  42
TORSDOF 9
ENDMDL
MODEL 22
REMARK VINA RESULT:    -6.890      2.427      4.468
REMARK INTER + INTRA:         -10.969
REMARK INTER:                 -10.247
REMARK INTRA:                  -0.722
REMARK UNBOUND:                -0.856
REMARK  Name = 
REMARK  9 active torsions:
REMARK  status: ('A' for Active; 'I' for Inactive)
REMARK    1  A    between atoms: C_1  and  C_2
REMARK    2  A    between atoms: C_5  and  C_6
REMARK    3  A    between atoms: C_6  and  N_7
REMARK    4  A    between atoms: N_7  and  C_8
REMARK    5  A    between atoms: N_7  and  C_9
REMARK    6  A    between atoms: C_12  and  C_13
REMARK    7  A    between atoms: C_13  and  N_14
REMARK    8  A    between atoms: N_17  and  C_18
REMARK    9  A    between atoms: C_27  and  C_28
REMARK                            x       y       z     vdW  Elec       q    Type
REMARK                         _______ _______ _______ _____ _____    ______ ____
ROOT
ATOM      1  C   UNL     1       4.934   6.237  18.206  0.00  0.00    +0.030 A 
ATOM      2  C   UNL     1       4.602   6.988  17.071  0.00  0.00    -0.040 A 
ATOM      3  C   UNL     1       3.428   7.747  17.001  0.00  0.00    -0.055 A 
ATOM      4  C   UNL     1       2.525   7.780  18.072  0.00  0.00    -0.018 A 
ATOM      5  C   UNL     1       2.820   7.009  19.209  0.00  0.00    +0.043 A 
ATOM      6  C   UNL     1       4.014   6.261  19.266  0.00  0.00    -0.028 A 
ATOM      7  H   UNL     1       5.245   6.967  16.193  0.00  0.00    +0.064 HD
ATOM      8  H   UNL     1       3.210   8.291  16.083  0.00  0.00    +0.062 HD
ATOM      9  H   UNL     1       4.241   5.724  20.182  0.00  0.00    +0.064 HD
ENDROOT
BRANCH   5  10
ATOM     10  C   UNL     1       1.890   6.959  20.374  0.00  0.00    +0.242 C 
ATOM     11  N   UNL     1       1.463   5.719  20.762  0.00  0.00    -0.325 N 
ATOM     12  O   UNL     1       1.492   7.960  20.952  0.00  0.00    -0.270 OA
ATOM     13  H   UNL     1       1.598   4.896  20.191  0.00  0.00    +0.145 HD
ATOM     14  H   UNL     1       0.779   5.685  21.505  0.00  0.00    +0.145 HD
ENDBRANCH   5  10
BRANCH   4  15
ATOM     15  C   UNL     1       1.260   8.589  17.930  0.00  0.00    +0.039 C 
ATOM     16  H   UNL     1       0.970   8.678  16.878  0.00  0.00    +0.051 HD
ATOM     17  H   UNL     1       0.420   8.093  18.433  0.00  0.00    +0.051 HD
BRANCH  15  18
ATOM     18  N   UNL     1       1.424   9.915  18.481  0.00  0.00    -0.295 N 
ATOM     19  C   UNL     1       0.381  10.792  18.545  0.00  0.00    +0.300 C 
ATOM     20  O   UNL     1      -0.753  10.551  18.154  0.00  0.00    -0.253 OA
ATOM     21  N   UNL     1       0.765  11.970  19.133  0.00  0.00    -0.293 N 
ATOM     22  H   UNL     1       2.355  10.307  18.432  0.00  0.00    +0.151 HD
ATOM     23  H   UNL     1       1.497  11.850  19.813  0.00  0.00    +0.151 HD
BRANCH  21  24
ATOM     24  C   UNL     1      -0.244  12.959  19.443  0.00  0.00    +0.050 C 
ATOM     25  C   UNL     1       0.280  14.403  19.290  0.00  0.00    -0.026 C 
ATOM     26  C   UNL     1      -0.538  15.261  20.262  0.00  0.00    -0.025 C 
ATOM     27  C   UNL     1      -0.833  14.275  21.348  0.00  0.00    -0.042 A 
ATOM     28  C   UNL     1      -1.285  14.538  22.630  0.00  0.00    -0.058 A 
ATOM     29  C   UNL     1      -1.561  13.458  23.471  0.00  0.00    -0.061 A 
ATOM     30  C   UNL     1      -1.398  12.141  23.018  0.00  0.00    -0.061 A 
ATOM     31  C   UNL     1      -0.955  11.883  21.718  0.00  0.00    -0.057 A 
ATOM     32  C   UNL     1      -0.664  12.960  20.891  0.00  0.00    -0.024 A 
ATOM     33  H   UNL     1      -1.127  12.795  18.811  0.00  0.00    +0.055 HD
ATOM     34  H   UNL     1       0.208  14.767  18.259  0.00  0.00    +0.029 HD
ATOM     35  H   UNL     1       1.340  14.453  19.572  0.00  0.00    +0.029 HD
ATOM     36  H   UNL     1      -1.470  15.600  19.798  0.00  0.00    +0.031 HD
ATOM     37  H   UNL     1       0.034  16.120  20.620  0.00  0.00    +0.031 HD
ATOM     38  H   UNL     1      -1.429  15.558  22.975  0.00  0.00    +0.062 HD
ATOM     39  H   UNL     1      -1.918  13.642  24.482  0.00  0.00    +0.062 HD
ATOM     40  H   UNL     1      -1.631  11.313  23.683  0.00  0.00    +0.062 HD
ATOM     41  H   UNL     1      -0.860  10.860  21.369  0.00  0.00    +0.062 HD
ENDBRANCH  21  24
ENDBRANCH  15  18
ENDBRANCH   4  15
BRANCH   1  42
ATOM     42  N   UNL     1       6.113   5.488  18.241  0.00  0.00    -0.329 N 
BRANCH  42  43
ATOM     43  C   UNL     1       7.367   6.119  17.834  0.00  0.00    +0.001 C 
ATOM     44  H   UNL     1       7.246   6.648  16.883  0.00  0.00    +0.043 HD
ATOM     45  H   UNL     1       8.179   5.388  17.741  0.00  0.00    +0.043 HD
ATOM     46  H   UNL     1       7.673   6.869  18.576  0.00  0.00    +0.043 HD
ENDBRANCH  42  43
BRANCH  42  47
ATOM     47  C   UNL     1       6.006   4.042  17.968  0.00  0.00    +0.037 C 
ATOM     48  H   UNL     1       6.291   3.856  16.924  0.00  0.00    +0.051 HD
ATOM     49  H   UNL     1       6.719   3.450  18.551  0.00  0.00    +0.051 HD
BRANCH  47  53
ATOM     50  C   UNL     1       1.980   2.577  18.636  0.00  0.00    -0.050 A 
ATOM     51  C   UNL     1       2.933   2.525  19.658  0.00  0.00    -0.059 A 
ATOM     52  C   UNL     1       4.231   2.994  19.442  0.00  0.00    -0.057 A 
ATOM     53  C   UNL     1       4.605   3.511  18.194  0.00  0.00    -0.030 A 
ATOM     54  C   UNL     1       3.651   3.545  17.167  0.00  0.00    -0.057 A 
ATOM     55  C   UNL     1       2.353   3.079  17.385  0.00  0.00    -0.059 A 
ATOM     56  H   UNL     1       2.671   2.126  20.635  0.00  0.00    +0.062 HD
ATOM     57  H   UNL     1       4.951   2.958  20.257  0.00  0.00    +0.062 HD
ATOM     58  H   UNL     1       3.914   3.939  16.186  0.00  0.00    +0.062 HD
ATOM     59  H   UNL     1       1.632   3.117  16.573  0.00  0.00    +0.062 HD
BRANCH  50  60
ATOM     60  C   UNL     1       0.594   2.053  18.865  0.00  0.00    -0.040 C 
ATOM     61  H   UNL     1       0.494   1.056  18.426  0.00  0.00    +0.028 HD
ATOM     62  H   UNL     1      -0.155   2.713  18.416  0.00  0.00    +0.028 HD
ATOM     63  H   UNL     1       0.374   1.993  19.937  0.00  0.00    +0.028 HD
ENDBRANCH  50  60
ENDBRANCH  47  53
ENDBRANCH  42  47
ENDBRANCH   1  42
TORSDOF 9
ENDMDL
MODEL 23
REMARK VINA RESULT:    -6.754      2.641      9.409
REMARK INTER + INTRA:         -10.769
REMARK INTER:                 -10.471
REMARK INTRA:                  -0.298
REMARK UNBOUND:                -0.856
REMARK  Name = 
REMARK  9 active torsions:
REMARK  status: ('A' for Active; 'I' for Inactive)
REMARK    1  A    between atoms: C_1  and  C_2
REMARK    2  A    between atoms: C_5  and  C_6
REMARK    3  A    between atoms: C_6  and  N_7
REMARK    4  A    between atoms: N_7  and  C_8
REMARK    5  A    between atoms: N_7  and  C_9
REMARK    6  A    between atoms: C_12  and  C_13
REMARK    7  A    between atoms: C_13  and  N_14
REMARK    8  A    between atoms: N_17  and  C_18
REMARK    9  A    between atoms: C_27  and  C_28
REMARK                            x       y       z     vdW  Elec       q    Type
REMARK                         _______ _______ _______ _____ _____    ______ ____
ROOT
ATOM      1  C   UNL     1       1.673  12.917  19.713  0.00  0.00    +0.030 A 
ATOM      2  C   UNL     1       2.095  12.732  18.390  0.00  0.00    -0.040 A 
ATOM      3  C   UNL     1       2.060  11.477  17.770  0.00  0.00    -0.055 A 
ATOM      4  C   UNL     1       1.603  10.345  18.457  0.00  0.00    -0.018 A 
ATOM      5  C   UNL     1       1.205  10.500  19.796  0.00  0.00    +0.043 A 
ATOM      6  C   UNL     1       1.236  11.774  20.399  0.00  0.00    -0.028 A 
ATOM      7  H   UNL     1       2.499  13.567  17.821  0.00  0.00    +0.064 HD
ATOM      8  H   UNL     1       2.424  11.388  16.747  0.00  0.00    +0.062 HD
ATOM      9  H   UNL     1       0.865  11.871  21.416  0.00  0.00    +0.064 HD
ENDROOT
BRANCH   5  10
ATOM     10  C   UNL     1       0.745   9.337  20.607  0.00  0.00    +0.242 C 
ATOM     11  N   UNL     1      -0.592   9.278  20.887  0.00  0.00    -0.325 N 
ATOM     12  O   UNL     1       1.506   8.481  21.037  0.00  0.00    -0.270 OA
ATOM     13  H   UNL     1      -1.213  10.061  20.734  0.00  0.00    +0.145 HD
ATOM     14  H   UNL     1      -0.898   8.531  21.495  0.00  0.00    +0.145 HD
ENDBRANCH   5  10
BRANCH   4  15
ATOM     15  C   UNL     1       1.617   9.013  17.751  0.00  0.00    +0.039 C 
ATOM     16  H   UNL     1       0.710   8.443  17.975  0.00  0.00    +0.051 HD
ATOM     17  H   UNL     1       1.626   9.146  16.661  0.00  0.00    +0.051 HD
BRANCH  15  18
ATOM     18  N   UNL     1       2.766   8.228  18.139  0.00  0.00    -0.295 N 
ATOM     19  C   UNL     1       2.694   6.870  18.257  0.00  0.00    +0.300 C 
ATOM     20  O   UNL     1       1.685   6.210  18.055  0.00  0.00    -0.253 OA
ATOM     21  N   UNL     1       3.911   6.341  18.604  0.00  0.00    -0.293 N 
ATOM     22  H   UNL     1       3.465   8.703  18.697  0.00  0.00    +0.151 HD
ATOM     23  H   UNL     1       4.687   6.878  18.254  0.00  0.00    +0.151 HD
BRANCH  21  24
ATOM     24  C   UNL     1       4.073   4.905  18.610  0.00  0.00    +0.050 C 
ATOM     25  C   UNL     1       3.706   4.265  17.253  0.00  0.00    -0.026 C 
ATOM     26  C   UNL     1       3.236   2.840  17.564  0.00  0.00    -0.025 C 
ATOM     27  C   UNL     1       2.644   3.015  18.927  0.00  0.00    -0.042 A 
ATOM     28  C   UNL     1       1.803   2.148  19.603  0.00  0.00    -0.058 A 
ATOM     29  C   UNL     1       1.415   2.477  20.903  0.00  0.00    -0.061 A 
ATOM     30  C   UNL     1       1.884   3.651  21.511  0.00  0.00    -0.061 A 
ATOM     31  C   UNL     1       2.746   4.514  20.829  0.00  0.00    -0.057 A 
ATOM     32  C   UNL     1       3.113   4.192  19.529  0.00  0.00    -0.024 A 
ATOM     33  H   UNL     1       5.102   4.650  18.895  0.00  0.00    +0.055 HD
ATOM     34  H   UNL     1       4.542   4.278  16.545  0.00  0.00    +0.029 HD
ATOM     35  H   UNL     1       2.883   4.820  16.784  0.00  0.00    +0.029 HD
ATOM     36  H   UNL     1       4.084   2.148  17.608  0.00  0.00    +0.031 HD
ATOM     37  H   UNL     1       2.505   2.488  16.833  0.00  0.00    +0.031 HD
ATOM     38  H   UNL     1       1.454   1.230  19.138  0.00  0.00    +0.062 HD
ATOM     39  H   UNL     1       0.755   1.810  21.452  0.00  0.00    +0.062 HD
ATOM     40  H   UNL     1       1.583   3.883  22.530  0.00  0.00    +0.062 HD
ATOM     41  H   UNL     1       3.124   5.404  21.320  0.00  0.00    +0.062 HD
ENDBRANCH  21  24
ENDBRANCH  15  18
ENDBRANCH   4  15
BRANCH   1  42
ATOM     42  N   UNL     1       1.725  14.184  20.302  0.00  0.00    -0.329 N 
BRANCH  42  43
ATOM     43  C   UNL     1       2.666  14.418  21.396  0.00  0.00    +0.001 C 
ATOM     44  H   UNL     1       2.138  14.734  22.303  0.00  0.00    +0.043 HD
ATOM     45  H   UNL     1       3.416  15.174  21.132  0.00  0.00    +0.043 HD
ATOM     46  H   UNL     1       3.197  13.490  21.646  0.00  0.00    +0.043 HD
ENDBRANCH  42  43
BRANCH  42  47
ATOM     47  C   UNL     1       0.471  14.957  20.359  0.00  0.00    +0.037 C 
ATOM     48  H   UNL     1       0.688  15.959  20.752  0.00  0.00    +0.051 HD
ATOM     49  H   UNL     1       0.048  15.145  19.366  0.00  0.00    +0.051 HD
BRANCH  47  53
ATOM     50  C   UNL     1      -2.495  13.034  22.870  0.00  0.00    -0.050 A 
ATOM     51  C   UNL     1      -2.653  13.063  21.480  0.00  0.00    -0.059 A 
ATOM     52  C   UNL     1      -1.699  13.686  20.671  0.00  0.00    -0.057 A 
ATOM     53  C   UNL     1      -0.576  14.304  21.238  0.00  0.00    -0.030 A 
ATOM     54  C   UNL     1      -0.431  14.287  22.633  0.00  0.00    -0.057 A 
ATOM     55  C   UNL     1      -1.384  13.662  23.440  0.00  0.00    -0.059 A 
ATOM     56  H   UNL     1      -3.516  12.594  21.014  0.00  0.00    +0.062 HD
ATOM     57  H   UNL     1      -1.834  13.682  19.592  0.00  0.00    +0.062 HD
ATOM     58  H   UNL     1       0.430  14.762  23.101  0.00  0.00    +0.062 HD
ATOM     59  H   UNL     1      -1.248  13.662  24.518  0.00  0.00    +0.062 HD
BRANCH  50  60
ATOM     60  C   UNL     1      -3.532  12.383  23.736  0.00  0.00    -0.040 C 
ATOM     61  H   UNL     1      -3.456  11.294  23.655  0.00  0.00    +0.028 HD
ATOM     62  H   UNL     1      -4.540  12.689  23.439  0.00  0.00    +0.028 HD
ATOM     63  H   UNL     1      -3.399  12.672  24.784  0.00  0.00    +0.028 HD
ENDBRANCH  50  60
ENDBRANCH  47  53
ENDBRANCH  42  47
ENDBRANCH   1  42
TORSDOF 9
ENDMDL
MODEL 24
REMARK VINA RESULT:    -6.750      2.797      9.786
REMARK INTER + INTRA:         -10.763
REMARK INTER:                  -9.537
REMARK INTRA:                  -1.225
REMARK UNBOUND:                -0.856
REMARK  Name = 
REMARK  9 active torsions:
REMARK  status: ('A' for Active; 'I' for Inactive)
REMARK    1  A    between atoms: C_1  and  C_2
REMARK    2  A    between atoms: C_5  and  C_6
REMARK    3  A    between atoms: C_6  and  N_7
REMARK    4  A    between atoms: N_7  and  C_8
REMARK    5  A    between atoms: N_7  and  C_9
REMARK    6  A    between atoms: C_12  and  C_13
REMARK    7  A    between atoms: C_13  and  N_14
REMARK    8  A    between atoms: N_17  and  C_18
REMARK    9  A    between atoms: C_27  and  C_28
REMARK                            x       y       z     vdW  Elec       q    Type
REMARK                         _______ _______ _______ _____ _____    ______ ____
ROOT
ATOM      1  C   UNL     1       1.068  12.893  20.504  0.00  0.00    +0.030 A 
ATOM      2  C   UNL     1       1.091  12.854  19.104  0.00  0.00    -0.040 A 
ATOM      3  C   UNL     1       0.936  11.658  18.393  0.00  0.00    -0.055 A 
ATOM      4  C   UNL     1       0.756  10.439  19.060  0.00  0.00    -0.018 A 
ATOM      5  C   UNL     1       0.763  10.449  20.466  0.00  0.00    +0.043 A 
ATOM      6  C   UNL     1       0.908  11.664  21.164  0.00  0.00    -0.028 A 
ATOM      7  H   UNL     1       1.269  13.763  18.533  0.00  0.00    +0.064 HD
ATOM      8  H   UNL     1       0.987  11.684  17.306  0.00  0.00    +0.062 HD
ATOM      9  H   UNL     1       0.848  11.645  22.249  0.00  0.00    +0.064 HD
ENDROOT
BRANCH   5  10
ATOM     10  C   UNL     1       0.618   9.188  21.250  0.00  0.00    +0.242 C 
ATOM     11  N   UNL     1       1.776   8.548  21.597  0.00  0.00    -0.325 N 
ATOM     12  O   UNL     1      -0.467   8.713  21.555  0.00  0.00    -0.270 OA
ATOM     13  H   UNL     1       2.670   8.789  21.192  0.00  0.00    +0.145 HD
ATOM     14  H   UNL     1       1.682   7.658  22.066  0.00  0.00    +0.145 HD
ENDBRANCH   5  10
BRANCH   4  15
ATOM     15  C   UNL     1       0.626   9.177  18.246  0.00  0.00    +0.039 C 
ATOM     16  H   UNL     1       0.124   8.392  18.820  0.00  0.00    +0.051 HD
ATOM     17  H   UNL     1       0.002   9.346  17.358  0.00  0.00    +0.051 HD
BRANCH  15  18
ATOM     18  N   UNL     1       1.920   8.691  17.826  0.00  0.00    -0.295 N 
ATOM     19  C   UNL     1       2.409   7.496  18.269  0.00  0.00    +0.300 C 
ATOM     20  O   UNL     1       1.821   6.749  19.038  0.00  0.00    -0.253 OA
ATOM     21  N   UNL     1       3.635   7.230  17.714  0.00  0.00    -0.293 N 
ATOM     22  H   UNL     1       2.596   9.394  17.554  0.00  0.00    +0.151 HD
ATOM     23  H   UNL     1       3.745   7.626  16.795  0.00  0.00    +0.151 HD
BRANCH  21  24
ATOM     24  C   UNL     1       4.234   5.932  17.931  0.00  0.00    +0.050 C 
ATOM     25  C   UNL     1       5.128   5.899  19.189  0.00  0.00    -0.026 C 
ATOM     26  C   UNL     1       6.192   4.827  18.932  0.00  0.00    -0.025 C 
ATOM     27  C   UNL     1       6.337   4.907  17.444  0.00  0.00    -0.042 A 
ATOM     28  C   UNL     1       7.357   4.389  16.664  0.00  0.00    -0.058 A 
ATOM     29  C   UNL     1       7.264   4.522  15.277  0.00  0.00    -0.061 A 
ATOM     30  C   UNL     1       6.154   5.150  14.694  0.00  0.00    -0.061 A 
ATOM     31  C   UNL     1       5.122   5.656  15.487  0.00  0.00    -0.057 A 
ATOM     32  C   UNL     1       5.227   5.540  16.866  0.00  0.00    -0.024 A 
ATOM     33  H   UNL     1       3.448   5.168  17.991  0.00  0.00    +0.055 HD
ATOM     34  H   UNL     1       4.557   5.702  20.103  0.00  0.00    +0.029 HD
ATOM     35  H   UNL     1       5.623   6.870  19.327  0.00  0.00    +0.029 HD
ATOM     36  H   UNL     1       5.828   3.835  19.221  0.00  0.00    +0.031 HD
ATOM     37  H   UNL     1       7.124   5.050  19.455  0.00  0.00    +0.031 HD
ATOM     38  H   UNL     1       8.208   3.887  17.116  0.00  0.00    +0.062 HD
ATOM     39  H   UNL     1       8.054   4.122  14.646  0.00  0.00    +0.062 HD
ATOM     40  H   UNL     1       6.093   5.231  13.611  0.00  0.00    +0.062 HD
ATOM     41  H   UNL     1       4.255   6.115  15.022  0.00  0.00    +0.062 HD
ENDBRANCH  21  24
ENDBRANCH  15  18
ENDBRANCH   4  15
BRANCH   1  42
ATOM     42  N   UNL     1       1.231  14.104  21.182  0.00  0.00    -0.329 N 
BRANCH  42  43
ATOM     43  C   UNL     1       2.557  14.715  21.234  0.00  0.00    +0.001 C 
ATOM     44  H   UNL     1       3.290  14.102  20.699  0.00  0.00    +0.043 HD
ATOM     45  H   UNL     1       2.896  14.866  22.267  0.00  0.00    +0.043 HD
ATOM     46  H   UNL     1       2.544  15.696  20.739  0.00  0.00    +0.043 HD
ENDBRANCH  42  43
BRANCH  42  47
ATOM     47  C   UNL     1       0.367  14.346  22.353  0.00  0.00    +0.037 C 
ATOM     48  H   UNL     1       0.768  13.792  23.211  0.00  0.00    +0.051 HD
ATOM     49  H   UNL     1       0.383  15.392  22.678  0.00  0.00    +0.051 HD
BRANCH  47  53
ATOM     50  C   UNL     1      -3.713  13.061  21.643  0.00  0.00    -0.050 A 
ATOM     51  C   UNL     1      -3.108  14.001  20.802  0.00  0.00    -0.059 A 
ATOM     52  C   UNL     1      -1.795  14.418  21.033  0.00  0.00    -0.057 A 
ATOM     53  C   UNL     1      -1.065  13.913  22.118  0.00  0.00    -0.030 A 
ATOM     54  C   UNL     1      -1.681  12.983  22.968  0.00  0.00    -0.057 A 
ATOM     55  C   UNL     1      -2.993  12.565  22.735  0.00  0.00    -0.059 A 
ATOM     56  H   UNL     1      -3.652  14.412  19.955  0.00  0.00    +0.062 HD
ATOM     57  H   UNL     1      -1.340  15.138  20.356  0.00  0.00    +0.062 HD
ATOM     58  H   UNL     1      -1.140  12.576  23.821  0.00  0.00    +0.062 HD
ATOM     59  H   UNL     1      -3.448  11.844  23.408  0.00  0.00    +0.062 HD
BRANCH  50  60
ATOM     60  C   UNL     1      -5.129  12.632  21.405  0.00  0.00    -0.040 C 
ATOM     61  H   UNL     1      -5.318  12.547  20.330  0.00  0.00    +0.028 HD
ATOM     62  H   UNL     1      -5.835  13.353  21.830  0.00  0.00    +0.028 HD
ATOM     63  H   UNL     1      -5.327  11.665  21.878  0.00  0.00    +0.028 HD
ENDBRANCH  50  60
ENDBRANCH  47  53
ENDBRANCH  42  47
ENDBRANCH   1  42
TORSDOF 9
ENDMDL
MODEL 25
REMARK VINA RESULT:    -6.727      2.329      3.846
REMARK INTER + INTRA:         -10.729
REMARK INTER:                 -10.591
REMARK INTRA:                  -0.137
REMARK UNBOUND:                -0.856
REMARK  Name = 
REMARK  9 active torsions:
REMARK  status: ('A' for Active; 'I' for Inactive)
REMARK    1  A    between atoms: C_1  and  C_2
REMARK    2  A    between atoms: C_5  and  C_6
REMARK    3  A    between atoms: C_6  and  N_7
REMARK    4  A    between atoms: N_7  and  C_8
REMARK    5  A    between atoms: N_7  and  C_9
REMARK    6  A    between atoms: C_12  and  C_13
REMARK    7  A    between atoms: C_13  and  N_14
REMARK    8  A    between atoms: N_17  and  C_18
REMARK    9  A    between atoms: C_27  and  C_28
REMARK                            x       y       z     vdW  Elec       q    Type
REMARK                         _______ _______ _______ _____ _____    ______ ____
ROOT
ATOM      1  C   UNL     1       2.211   6.266  18.813  0.00  0.00    +0.030 A 
ATOM      2  C   UNL     1       1.990   6.180  20.194  0.00  0.00    -0.040 A 
ATOM      3  C   UNL     1       1.571   7.283  20.947  0.00  0.00    -0.055 A 
ATOM      4  C   UNL     1       1.359   8.530  20.345  0.00  0.00    -0.018 A 
ATOM      5  C   UNL     1       1.606   8.649  18.966  0.00  0.00    +0.043 A 
ATOM      6  C   UNL     1       2.016   7.524  18.222  0.00  0.00    -0.028 A 
ATOM      7  H   UNL     1       2.179   5.247  20.722  0.00  0.00    +0.064 HD
ATOM      8  H   UNL     1       1.438   7.164  22.021  0.00  0.00    +0.062 HD
ATOM      9  H   UNL     1       2.141   7.635  17.149  0.00  0.00    +0.064 HD
ENDROOT
BRANCH   5  10
ATOM     10  C   UNL     1       1.444   9.952  18.259  0.00  0.00    +0.242 C 
ATOM     11  N   UNL     1       0.209  10.211  17.732  0.00  0.00    -0.325 N 
ATOM     12  O   UNL     1       2.357  10.753  18.119  0.00  0.00    -0.270 OA
ATOM     13  H   UNL     1      -0.503   9.499  17.643  0.00  0.00    +0.145 HD
ATOM     14  H   UNL     1       0.113  11.060  17.192  0.00  0.00    +0.145 HD
ENDBRANCH   5  10
BRANCH   4  15
ATOM     15  C   UNL     1       0.938   9.691  21.209  0.00  0.00    +0.039 C 
ATOM     16  H   UNL     1       0.961   9.418  22.269  0.00  0.00    +0.051 HD
ATOM     17  H   UNL     1       1.634  10.534  21.101  0.00  0.00    +0.051 HD
BRANCH  15  18
ATOM     18  N   UNL     1      -0.395  10.136  20.873  0.00  0.00    -0.295 N 
ATOM     19  C   UNL     1      -0.837  11.382  21.212  0.00  0.00    +0.300 C 
ATOM     20  O   UNL     1      -0.172  12.213  21.814  0.00  0.00    -0.253 OA
ATOM     21  N   UNL     1      -2.116  11.589  20.763  0.00  0.00    -0.293 N 
ATOM     22  H   UNL     1      -1.094   9.411  20.767  0.00  0.00    +0.151 HD
ATOM     23  H   UNL     1      -2.323  11.083  19.918  0.00  0.00    +0.151 HD
BRANCH  21  24
ATOM     24  C   UNL     1      -2.692  12.910  20.878  0.00  0.00    +0.050 C 
ATOM     25  C   UNL     1      -1.695  14.024  20.491  0.00  0.00    -0.026 C 
ATOM     26  C   UNL     1      -2.110  15.267  21.285  0.00  0.00    -0.025 C 
ATOM     27  C   UNL     1      -2.691  14.649  22.518  0.00  0.00    -0.042 A 
ATOM     28  C   UNL     1      -2.964  15.267  23.726  0.00  0.00    -0.058 A 
ATOM     29  C   UNL     1      -3.570  14.515  24.734  0.00  0.00    -0.061 A 
ATOM     30  C   UNL     1      -3.907  13.171  24.516  0.00  0.00    -0.061 A 
ATOM     31  C   UNL     1      -3.642  12.558  23.289  0.00  0.00    -0.057 A 
ATOM     32  C   UNL     1      -3.021  13.304  22.296  0.00  0.00    -0.024 A 
ATOM     33  H   UNL     1      -3.601  12.971  20.266  0.00  0.00    +0.055 HD
ATOM     34  H   UNL     1      -1.676  14.211  19.411  0.00  0.00    +0.029 HD
ATOM     35  H   UNL     1      -0.675  13.736  20.782  0.00  0.00    +0.029 HD
ATOM     36  H   UNL     1      -2.879  15.835  20.751  0.00  0.00    +0.031 HD
ATOM     37  H   UNL     1      -1.255  15.910  21.502  0.00  0.00    +0.031 HD
ATOM     38  H   UNL     1      -2.720  16.313  23.888  0.00  0.00    +0.062 HD
ATOM     39  H   UNL     1      -3.795  14.980  25.691  0.00  0.00    +0.062 HD
ATOM     40  H   UNL     1      -4.392  12.605  25.309  0.00  0.00    +0.062 HD
ATOM     41  H   UNL     1      -3.933  11.526  23.123  0.00  0.00    +0.062 HD
ENDBRANCH  21  24
ENDBRANCH  15  18
ENDBRANCH   4  15
BRANCH   1  42
ATOM     42  N   UNL     1       2.634   5.145  18.092  0.00  0.00    -0.329 N 
BRANCH  42  43
ATOM     43  C   UNL     1       1.665   4.097  17.779  0.00  0.00    +0.001 C 
ATOM     44  H   UNL     1       1.280   4.214  16.760  0.00  0.00    +0.043 HD
ATOM     45  H   UNL     1       0.826   4.094  18.485  0.00  0.00    +0.043 HD
ATOM     46  H   UNL     1       2.146   3.110  17.824  0.00  0.00    +0.043 HD
ENDBRANCH  42  43
BRANCH  42  47
ATOM     47  C   UNL     1       4.024   4.695  18.293  0.00  0.00    +0.037 C 
ATOM     48  H   UNL     1       4.500   5.337  19.045  0.00  0.00    +0.051 HD
ATOM     49  H   UNL     1       4.081   3.690  18.724  0.00  0.00    +0.051 HD
BRANCH  47  53
ATOM     50  C   UNL     1       6.314   4.827  14.614  0.00  0.00    -0.050 A 
ATOM     51  C   UNL     1       6.163   3.624  15.313  0.00  0.00    -0.059 A 
ATOM     52  C   UNL     1       5.427   3.583  16.500  0.00  0.00    -0.057 A 
ATOM     53  C   UNL     1       4.842   4.746  17.019  0.00  0.00    -0.030 A 
ATOM     54  C   UNL     1       5.011   5.952  16.324  0.00  0.00    -0.057 A 
ATOM     55  C   UNL     1       5.744   5.992  15.136  0.00  0.00    -0.059 A 
ATOM     56  H   UNL     1       6.609   2.708  14.935  0.00  0.00    +0.062 HD
ATOM     57  H   UNL     1       5.309   2.633  17.018  0.00  0.00    +0.062 HD
ATOM     58  H   UNL     1       4.570   6.872  16.705  0.00  0.00    +0.062 HD
ATOM     59  H   UNL     1       5.860   6.938  14.615  0.00  0.00    +0.062 HD
BRANCH  50  60
ATOM     60  C   UNL     1       7.122   4.871  13.352  0.00  0.00    -0.040 C 
ATOM     61  H   UNL     1       6.594   5.455  12.591  0.00  0.00    +0.028 HD
ATOM     62  H   UNL     1       7.299   3.863  12.963  0.00  0.00    +0.028 HD
ATOM     63  H   UNL     1       8.101   5.327  13.533  0.00  0.00    +0.028 HD
ENDBRANCH  50  60
ENDBRANCH  47  53
ENDBRANCH  42  47
ENDBRANCH   1  42
TORSDOF 9
ENDMDL
MODEL 26
REMARK VINA RESULT:    -6.708      2.817      8.892
REMARK INTER + INTRA:         -10.702
REMARK INTER:                 -10.558
REMARK INTRA:                  -0.144
REMARK UNBOUND:                -0.856
REMARK  Name = 
REMARK  9 active torsions:
REMARK  status: ('A' for Active; 'I' for Inactive)
REMARK    1  A    between atoms: C_1  and  C_2
REMARK    2  A    between atoms: C_5  and  C_6
REMARK    3  A    between atoms: C_6  and  N_7
REMARK    4  A    between atoms: N_7  and  C_8
REMARK    5  A    between atoms: N_7  and  C_9
REMARK    6  A    between atoms: C_12  and  C_13
REMARK    7  A    between atoms: C_13  and  N_14
REMARK    8  A    between atoms: N_17  and  C_18
REMARK    9  A    between atoms: C_27  and  C_28
REMARK                            x       y       z     vdW  Elec       q    Type
REMARK                         _______ _______ _______ _____ _____    ______ ____
ROOT
ATOM      1  C   UNL     1      -0.314  10.745  21.096  0.00  0.00    +0.030 A 
ATOM      2  C   UNL     1      -0.371   9.710  22.039  0.00  0.00    -0.040 A 
ATOM      3  C   UNL     1       0.210   8.459  21.803  0.00  0.00    -0.055 A 
ATOM      4  C   UNL     1       0.874   8.187  20.599  0.00  0.00    -0.018 A 
ATOM      5  C   UNL     1       0.916   9.199  19.625  0.00  0.00    +0.043 A 
ATOM      6  C   UNL     1       0.336  10.457  19.886  0.00  0.00    -0.028 A 
ATOM      7  H   UNL     1      -0.910   9.850  22.974  0.00  0.00    +0.064 HD
ATOM      8  H   UNL     1       0.113   7.684  22.562  0.00  0.00    +0.062 HD
ATOM      9  H   UNL     1       0.438  11.236  19.136  0.00  0.00    +0.064 HD
ENDROOT
BRANCH   5  10
ATOM     10  C   UNL     1       1.569   8.974  18.303  0.00  0.00    +0.242 C 
ATOM     11  N   UNL     1       2.114  10.072  17.696  0.00  0.00    -0.325 N 
ATOM     12  O   UNL     1       1.603   7.882  17.753  0.00  0.00    -0.270 OA
ATOM     13  H   UNL     1       1.927  11.014  18.011  0.00  0.00    +0.145 HD
ATOM     14  H   UNL     1       2.495   9.939  16.769  0.00  0.00    +0.145 HD
ENDBRANCH   5  10
BRANCH   4  15
ATOM     15  C   UNL     1       1.455   6.812  20.385  0.00  0.00    +0.039 C 
ATOM     16  H   UNL     1       1.360   6.203  21.290  0.00  0.00    +0.051 HD
ATOM     17  H   UNL     1       0.907   6.272  19.602  0.00  0.00    +0.051 HD
BRANCH  15  18
ATOM     18  N   UNL     1       2.851   6.886  20.019  0.00  0.00    -0.295 N 
ATOM     19  C   UNL     1       3.578   5.762  19.754  0.00  0.00    +0.300 C 
ATOM     20  O   UNL     1       3.134   4.623  19.802  0.00  0.00    -0.253 OA
ATOM     21  N   UNL     1       4.863   6.080  19.399  0.00  0.00    -0.293 N 
ATOM     22  H   UNL     1       3.358   7.696  20.352  0.00  0.00    +0.151 HD
ATOM     23  H   UNL     1       4.934   6.969  18.934  0.00  0.00    +0.151 HD
BRANCH  21  24
ATOM     24  C   UNL     1       5.735   5.032  18.918  0.00  0.00    +0.050 C 
ATOM     25  C   UNL     1       7.227   5.349  19.159  0.00  0.00    -0.026 C 
ATOM     26  C   UNL     1       8.005   4.618  18.060  0.00  0.00    -0.025 C 
ATOM     27  C   UNL     1       7.013   4.632  16.939  0.00  0.00    -0.042 A 
ATOM     28  C   UNL     1       7.248   4.380  15.598  0.00  0.00    -0.058 A 
ATOM     29  C   UNL     1       6.161   4.382  14.722  0.00  0.00    -0.061 A 
ATOM     30  C   UNL     1       4.862   4.617  15.197  0.00  0.00    -0.061 A 
ATOM     31  C   UNL     1       4.631   4.855  16.554  0.00  0.00    -0.057 A 
ATOM     32  C   UNL     1       5.717   4.871  17.419  0.00  0.00    -0.024 A 
ATOM     33  H   UNL     1       5.459   4.078  19.387  0.00  0.00    +0.055 HD
ATOM     34  H   UNL     1       7.560   5.058  20.162  0.00  0.00    +0.029 HD
ATOM     35  H   UNL     1       7.403   6.429  19.066  0.00  0.00    +0.029 HD
ATOM     36  H   UNL     1       8.225   3.587  18.354  0.00  0.00    +0.031 HD
ATOM     37  H   UNL     1       8.930   5.139  17.806  0.00  0.00    +0.031 HD
ATOM     38  H   UNL     1       8.251   4.181  15.233  0.00  0.00    +0.062 HD
ATOM     39  H   UNL     1       6.322   4.187  13.664  0.00  0.00    +0.062 HD
ATOM     40  H   UNL     1       4.026   4.600  14.502  0.00  0.00    +0.062 HD
ATOM     41  H   UNL     1       3.619   5.007  16.915  0.00  0.00    +0.062 HD
ENDBRANCH  21  24
ENDBRANCH  15  18
ENDBRANCH   4  15
BRANCH   1  42
ATOM     42  N   UNL     1      -0.909  11.981  21.363  0.00  0.00    -0.329 N 
BRANCH  42  43
ATOM     43  C   UNL     1      -2.045  12.411  20.551  0.00  0.00    +0.001 C 
ATOM     44  H   UNL     1      -2.556  11.549  20.107  0.00  0.00    +0.043 HD
ATOM     45  H   UNL     1      -1.738  13.099  19.754  0.00  0.00    +0.043 HD
ATOM     46  H   UNL     1      -2.785  12.929  21.176  0.00  0.00    +0.043 HD
ENDBRANCH  42  43
BRANCH  42  47
ATOM     47  C   UNL     1      -0.037  13.059  21.866  0.00  0.00    +0.037 C 
ATOM     48  H   UNL     1      -0.664  13.857  22.285  0.00  0.00    +0.051 HD
ATOM     49  H   UNL     1       0.585  12.737  22.709  0.00  0.00    +0.051 HD
BRANCH  47  53
ATOM     50  C   UNL     1       2.478  14.690  18.734  0.00  0.00    -0.050 A 
ATOM     51  C   UNL     1       3.033  13.915  19.757  0.00  0.00    -0.059 A 
ATOM     52  C   UNL     1       2.223  13.392  20.769  0.00  0.00    -0.057 A 
ATOM     53  C   UNL     1       0.844  13.647  20.783  0.00  0.00    -0.030 A 
ATOM     54  C   UNL     1       0.296  14.439  19.765  0.00  0.00    -0.057 A 
ATOM     55  C   UNL     1       1.106  14.958  18.753  0.00  0.00    -0.059 A 
ATOM     56  H   UNL     1       4.099  13.704  19.772  0.00  0.00    +0.062 HD
ATOM     57  H   UNL     1       2.673  12.778  21.545  0.00  0.00    +0.062 HD
ATOM     58  H   UNL     1      -0.771  14.656  19.752  0.00  0.00    +0.062 HD
ATOM     59  H   UNL     1       0.657  15.568  17.974  0.00  0.00    +0.062 HD
BRANCH  50  60
ATOM     60  C   UNL     1       3.354  15.267  17.662  0.00  0.00    -0.040 C 
ATOM     61  H   UNL     1       4.258  15.694  18.108  0.00  0.00    +0.028 HD
ATOM     62  H   UNL     1       2.830  16.052  17.107  0.00  0.00    +0.028 HD
ATOM     63  H   UNL     1       3.643  14.496  16.940  0.00  0.00    +0.028 HD
ENDBRANCH  50  60
ENDBRANCH  47  53
ENDBRANCH  42  47
ENDBRANCH   1  42
TORSDOF 9
ENDMDL
MODEL 27
REMARK VINA RESULT:    -6.669      2.157      9.202
REMARK INTER + INTRA:         -10.645
REMARK INTER:                  -9.635
REMARK INTRA:                  -1.009
REMARK UNBOUND:                -0.856
REMARK  Name = 
REMARK  9 active torsions:
REMARK  status: ('A' for Active; 'I' for Inactive)
REMARK    1  A    between atoms: C_1  and  C_2
REMARK    2  A    between atoms: C_5  and  C_6
REMARK    3  A    between atoms: C_6  and  N_7
REMARK    4  A    between atoms: N_7  and  C_8
REMARK    5  A    between atoms: N_7  and  C_9
REMARK    6  A    between atoms: C_12  and  C_13
REMARK    7  A    between atoms: C_13  and  N_14
REMARK    8  A    between atoms: N_17  and  C_18
REMARK    9  A    between atoms: C_27  and  C_28
REMARK                            x       y       z     vdW  Elec       q    Type
REMARK                         _______ _______ _______ _____ _____    ______ ____
ROOT
ATOM      1  C   UNL     1       0.941  11.500  19.817  0.00  0.00    +0.030 A 
ATOM      2  C   UNL     1       1.350  10.431  19.009  0.00  0.00    -0.040 A 
ATOM      3  C   UNL     1       1.373   9.113  19.480  0.00  0.00    -0.055 A 
ATOM      4  C   UNL     1       0.990   8.808  20.793  0.00  0.00    -0.018 A 
ATOM      5  C   UNL     1       0.607   9.869  21.632  0.00  0.00    +0.043 A 
ATOM      6  C   UNL     1       0.578  11.188  21.136  0.00  0.00    -0.028 A 
ATOM      7  H   UNL     1       1.698  10.613  17.994  0.00  0.00    +0.064 HD
ATOM      8  H   UNL     1       1.724   8.325  18.815  0.00  0.00    +0.062 HD
ATOM      9  H   UNL     1       0.220  11.976  21.792  0.00  0.00    +0.064 HD
ENDROOT
BRANCH   5  10
ATOM     10  C   UNL     1       0.225   9.632  23.054  0.00  0.00    +0.242 C 
ATOM     11  N   UNL     1      -1.076   9.888  23.388  0.00  0.00    -0.325 N 
ATOM     12  O   UNL     1       1.020   9.256  23.904  0.00  0.00    -0.270 OA
ATOM     13  H   UNL     1      -1.704  10.391  22.776  0.00  0.00    +0.145 HD
ATOM     14  H   UNL     1      -1.323   9.797  24.363  0.00  0.00    +0.145 HD
ENDBRANCH   5  10
BRANCH   4  15
ATOM     15  C   UNL     1       1.065   7.376  21.257  0.00  0.00    +0.039 C 
ATOM     16  H   UNL     1       1.124   7.322  22.349  0.00  0.00    +0.051 HD
ATOM     17  H   UNL     1       0.157   6.825  20.979  0.00  0.00    +0.051 HD
BRANCH  15  18
ATOM     18  N   UNL     1       2.214   6.704  20.695  0.00  0.00    -0.295 N 
ATOM     19  C   UNL     1       2.078   5.734  19.745  0.00  0.00    +0.300 C 
ATOM     20  O   UNL     1       1.007   5.351  19.294  0.00  0.00    -0.253 OA
ATOM     21  N   UNL     1       3.302   5.266  19.341  0.00  0.00    -0.293 N 
ATOM     22  H   UNL     1       3.039   6.664  21.281  0.00  0.00    +0.151 HD
ATOM     23  H   UNL     1       4.027   5.962  19.395  0.00  0.00    +0.151 HD
BRANCH  21  24
ATOM     24  C   UNL     1       3.367   4.357  18.218  0.00  0.00    +0.050 C 
ATOM     25  C   UNL     1       3.915   2.969  18.615  0.00  0.00    -0.026 C 
ATOM     26  C   UNL     1       4.581   2.396  17.360  0.00  0.00    -0.025 C 
ATOM     27  C   UNL     1       5.050   3.643  16.679  0.00  0.00    -0.042 A 
ATOM     28  C   UNL     1       5.971   3.752  15.652  0.00  0.00    -0.058 A 
ATOM     29  C   UNL     1       6.219   5.016  15.113  0.00  0.00    -0.061 A 
ATOM     30  C   UNL     1       5.534   6.142  15.593  0.00  0.00    -0.061 A 
ATOM     31  C   UNL     1       4.594   6.023  16.619  0.00  0.00    -0.057 A 
ATOM     32  C   UNL     1       4.365   4.767  17.166  0.00  0.00    -0.024 A 
ATOM     33  H   UNL     1       2.374   4.267  17.759  0.00  0.00    +0.055 HD
ATOM     34  H   UNL     1       3.135   2.307  19.006  0.00  0.00    +0.029 HD
ATOM     35  H   UNL     1       4.670   3.073  19.407  0.00  0.00    +0.029 HD
ATOM     36  H   UNL     1       3.852   1.875  16.731  0.00  0.00    +0.031 HD
ATOM     37  H   UNL     1       5.404   1.723  17.612  0.00  0.00    +0.031 HD
ATOM     38  H   UNL     1       6.488   2.877  15.268  0.00  0.00    +0.062 HD
ATOM     39  H   UNL     1       6.939   5.125  14.305  0.00  0.00    +0.062 HD
ATOM     40  H   UNL     1       5.730   7.117  15.151  0.00  0.00    +0.062 HD
ATOM     41  H   UNL     1       4.050   6.896  16.963  0.00  0.00    +0.062 HD
ENDBRANCH  21  24
ENDBRANCH  15  18
ENDBRANCH   4  15
BRANCH   1  42
ATOM     42  N   UNL     1       0.934  12.805  19.316  0.00  0.00    -0.329 N 
BRANCH  42  43
ATOM     43  C   UNL     1       2.185  13.559  19.286  0.00  0.00    +0.001 C 
ATOM     44  H   UNL     1       2.462  13.894  20.291  0.00  0.00    +0.043 HD
ATOM     45  H   UNL     1       2.120  14.428  18.619  0.00  0.00    +0.043 HD
ATOM     46  H   UNL     1       3.005  12.922  18.927  0.00  0.00    +0.043 HD
ENDBRANCH  42  43
BRANCH  42  47
ATOM     47  C   UNL     1      -0.291  13.602  19.517  0.00  0.00    +0.037 C 
ATOM     48  H   UNL     1      -0.364  13.878  20.577  0.00  0.00    +0.051 HD
ATOM     49  H   UNL     1      -0.259  14.562  18.992  0.00  0.00    +0.051 HD
BRANCH  47  53
ATOM     50  C   UNL     1      -3.903  11.502  18.357  0.00  0.00    -0.050 A 
ATOM     51  C   UNL     1      -3.829  12.159  19.589  0.00  0.00    -0.059 A 
ATOM     52  C   UNL     1      -2.664  12.833  19.965  0.00  0.00    -0.057 A 
ATOM     53  C   UNL     1      -1.545  12.850  19.120  0.00  0.00    -0.030 A 
ATOM     54  C   UNL     1      -1.617  12.175  17.893  0.00  0.00    -0.057 A 
ATOM     55  C   UNL     1      -2.784  11.505  17.518  0.00  0.00    -0.059 A 
ATOM     56  H   UNL     1      -4.681  12.160  20.265  0.00  0.00    +0.062 HD
ATOM     57  H   UNL     1      -2.635  13.351  20.921  0.00  0.00    +0.062 HD
ATOM     58  H   UNL     1      -0.763  12.169  17.218  0.00  0.00    +0.062 HD
ATOM     59  H   UNL     1      -2.816  10.990  16.562  0.00  0.00    +0.062 HD
BRANCH  50  60
ATOM     60  C   UNL     1      -5.147  10.762  17.967  0.00  0.00    -0.040 C 
ATOM     61  H   UNL     1      -5.321  10.864  16.891  0.00  0.00    +0.028 HD
ATOM     62  H   UNL     1      -6.019  11.151  18.503  0.00  0.00    +0.028 HD
ATOM     63  H   UNL     1      -5.060   9.699  18.214  0.00  0.00    +0.028 HD
ENDBRANCH  50  60
ENDBRANCH  47  53
ENDBRANCH  42  47
ENDBRANCH   1  42
TORSDOF 9
ENDMDL
MODEL 28
REMARK VINA RESULT:    -6.628      3.170      8.880
REMARK INTER + INTRA:         -10.584
REMARK INTER:                  -9.616
REMARK INTRA:                  -0.968
REMARK UNBOUND:                -0.856
REMARK  Name = 
REMARK  9 active torsions:
REMARK  status: ('A' for Active; 'I' for Inactive)
REMARK    1  A    between atoms: C_1  and  C_2
REMARK    2  A    between atoms: C_5  and  C_6
REMARK    3  A    between atoms: C_6  and  N_7
REMARK    4  A    between atoms: N_7  and  C_8
REMARK    5  A    between atoms: N_7  and  C_9
REMARK    6  A    between atoms: C_12  and  C_13
REMARK    7  A    between atoms: C_13  and  N_14
REMARK    8  A    between atoms: N_17  and  C_18
REMARK    9  A    between atoms: C_27  and  C_28
REMARK                            x       y       z     vdW  Elec       q    Type
REMARK                         _______ _______ _______ _____ _____    ______ ____
ROOT
ATOM      1  C   UNL     1      -0.762  12.612  21.554  0.00  0.00    +0.030 A 
ATOM      2  C   UNL     1      -0.781  11.817  22.708  0.00  0.00    -0.040 A 
ATOM      3  C   UNL     1      -0.497  10.447  22.668  0.00  0.00    -0.055 A 
ATOM      4  C   UNL     1      -0.186   9.808  21.460  0.00  0.00    -0.018 A 
ATOM      5  C   UNL     1      -0.193  10.579  20.285  0.00  0.00    +0.043 A 
ATOM      6  C   UNL     1      -0.469  11.960  20.346  0.00  0.00    -0.028 A 
ATOM      7  H   UNL     1      -1.056  12.250  23.667  0.00  0.00    +0.064 HD
ATOM      8  H   UNL     1      -0.550   9.874  23.592  0.00  0.00    +0.062 HD
ATOM      9  H   UNL     1      -0.408  12.539  19.429  0.00  0.00    +0.064 HD
ENDROOT
BRANCH   5  10
ATOM     10  C   UNL     1       0.087   9.966  18.954  0.00  0.00    +0.242 C 
ATOM     11  N   UNL     1      -0.998   9.669  18.178  0.00  0.00    -0.325 N 
ATOM     12  O   UNL     1       1.217   9.705  18.565  0.00  0.00    -0.270 OA
ATOM     13  H   UNL     1      -1.942   9.674  18.540  0.00  0.00    +0.145 HD
ATOM     14  H   UNL     1      -0.818   9.189  17.306  0.00  0.00    +0.145 HD
ENDBRANCH   5  10
BRANCH   4  15
ATOM     15  C   UNL     1       0.080   8.325  21.471  0.00  0.00    +0.039 C 
ATOM     16  H   UNL     1       0.119   7.943  22.496  0.00  0.00    +0.051 HD
ATOM     17  H   UNL     1      -0.732   7.777  20.977  0.00  0.00    +0.051 HD
BRANCH  15  18
ATOM     18  N   UNL     1       1.328   8.013  20.811  0.00  0.00    -0.295 N 
ATOM     19  C   UNL     1       1.616   6.746  20.395  0.00  0.00    +0.300 C 
ATOM     20  O   UNL     1       0.874   5.784  20.538  0.00  0.00    -0.253 OA
ATOM     21  N   UNL     1       2.836   6.699  19.769  0.00  0.00    -0.293 N 
ATOM     22  H   UNL     1       2.111   8.618  21.026  0.00  0.00    +0.151 HD
ATOM     23  H   UNL     1       3.070   7.558  19.300  0.00  0.00    +0.151 HD
BRANCH  21  24
ATOM     24  C   UNL     1       3.237   5.476  19.111  0.00  0.00    +0.050 C 
ATOM     25  C   UNL     1       4.003   4.523  20.054  0.00  0.00    -0.026 C 
ATOM     26  C   UNL     1       4.935   3.695  19.163  0.00  0.00    -0.025 C 
ATOM     27  C   UNL     1       5.222   4.662  18.057  0.00  0.00    -0.042 A 
ATOM     28  C   UNL     1       6.230   4.592  17.112  0.00  0.00    -0.058 A 
ATOM     29  C   UNL     1       6.280   5.575  16.121  0.00  0.00    -0.061 A 
ATOM     30  C   UNL     1       5.319   6.595  16.079  0.00  0.00    -0.061 A 
ATOM     31  C   UNL     1       4.296   6.651  17.028  0.00  0.00    -0.057 A 
ATOM     32  C   UNL     1       4.261   5.684  18.024  0.00  0.00    -0.024 A 
ATOM     33  H   UNL     1       2.355   4.979  18.686  0.00  0.00    +0.055 HD
ATOM     34  H   UNL     1       3.331   3.891  20.646  0.00  0.00    +0.029 HD
ATOM     35  H   UNL     1       4.607   5.101  20.767  0.00  0.00    +0.029 HD
ATOM     36  H   UNL     1       4.420   2.814  18.767  0.00  0.00    +0.031 HD
ATOM     37  H   UNL     1       5.838   3.391  19.697  0.00  0.00    +0.031 HD
ATOM     38  H   UNL     1       6.964   3.791  17.133  0.00  0.00    +0.062 HD
ATOM     39  H   UNL     1       7.064   5.539  15.368  0.00  0.00    +0.062 HD
ATOM     40  H   UNL     1       5.367   7.343  15.291  0.00  0.00    +0.062 HD
ATOM     41  H   UNL     1       3.541   7.429  16.969  0.00  0.00    +0.062 HD
ENDBRANCH  21  24
ENDBRANCH  15  18
ENDBRANCH   4  15
BRANCH   1  42
ATOM     42  N   UNL     1      -1.054  13.977  21.629  0.00  0.00    -0.329 N 
BRANCH  42  43
ATOM     43  C   UNL     1      -2.092  14.528  20.760  0.00  0.00    +0.001 C 
ATOM     44  H   UNL     1      -2.356  15.547  21.066  0.00  0.00    +0.043 HD
ATOM     45  H   UNL     1      -2.995  13.905  20.759  0.00  0.00    +0.043 HD
ATOM     46  H   UNL     1      -1.727  14.593  19.726  0.00  0.00    +0.043 HD
ENDBRANCH  42  43
BRANCH  42  47
ATOM     47  C   UNL     1       0.054  14.890  21.963  0.00  0.00    +0.037 C 
ATOM     48  H   UNL     1      -0.330  15.918  21.997  0.00  0.00    +0.051 HD
ATOM     49  H   UNL     1       0.451  14.719  22.970  0.00  0.00    +0.051 HD
BRANCH  47  53
ATOM     50  C   UNL     1       3.272  14.645  19.068  0.00  0.00    -0.050 A 
ATOM     51  C   UNL     1       3.470  14.220  20.386  0.00  0.00    -0.059 A 
ATOM     52  C   UNL     1       2.433  14.302  21.320  0.00  0.00    -0.057 A 
ATOM     53  C   UNL     1       1.184  14.825  20.957  0.00  0.00    -0.030 A 
ATOM     54  C   UNL     1       0.997  15.266  19.639  0.00  0.00    -0.057 A 
ATOM     55  C   UNL     1       2.032  15.180  18.706  0.00  0.00    -0.059 A 
ATOM     56  H   UNL     1       4.430  13.813  20.695  0.00  0.00    +0.062 HD
ATOM     57  H   UNL     1       2.605  13.951  22.334  0.00  0.00    +0.062 HD
ATOM     58  H   UNL     1       0.038  15.679  19.329  0.00  0.00    +0.062 HD
ATOM     59  H   UNL     1       1.862  15.528  17.690  0.00  0.00    +0.062 HD
BRANCH  50  60
ATOM     60  C   UNL     1       4.393  14.575  18.074  0.00  0.00    -0.040 C 
ATOM     61  H   UNL     1       5.071  13.756  18.333  0.00  0.00    +0.028 HD
ATOM     62  H   UNL     1       4.961  15.511  18.056  0.00  0.00    +0.028 HD
ATOM     63  H   UNL     1       4.006  14.410  17.063  0.00  0.00    +0.028 HD
ENDBRANCH  50  60
ENDBRANCH  47  53
ENDBRANCH  42  47
ENDBRANCH   1  42
TORSDOF 9
ENDMDL
MODEL 29
REMARK VINA RESULT:    -6.615      3.492      8.922
REMARK INTER + INTRA:         -10.565
REMARK INTER:                 -10.090
REMARK INTRA:                  -0.476
REMARK UNBOUND:                -0.856
REMARK  Name = 
REMARK  9 active torsions:
REMARK  status: ('A' for Active; 'I' for Inactive)
REMARK    1  A    between atoms: C_1  and  C_2
REMARK    2  A    between atoms: C_5  and  C_6
REMARK    3  A    between atoms: C_6  and  N_7
REMARK    4  A    between atoms: N_7  and  C_8
REMARK    5  A    between atoms: N_7  and  C_9
REMARK    6  A    between atoms: C_12  and  C_13
REMARK    7  A    between atoms: C_13  and  N_14
REMARK    8  A    between atoms: N_17  and  C_18
REMARK    9  A    between atoms: C_27  and  C_28
REMARK                            x       y       z     vdW  Elec       q    Type
REMARK                         _______ _______ _______ _____ _____    ______ ____
ROOT
ATOM      1  C   UNL     1       0.170  11.996  19.806  0.00  0.00    +0.030 A 
ATOM      2  C   UNL     1       0.884  11.086  19.015  0.00  0.00    -0.040 A 
ATOM      3  C   UNL     1       1.216   9.806  19.474  0.00  0.00    -0.055 A 
ATOM      4  C   UNL     1       0.849   9.381  20.758  0.00  0.00    -0.018 A 
ATOM      5  C   UNL     1       0.161  10.288  21.582  0.00  0.00    +0.043 A 
ATOM      6  C   UNL     1      -0.176  11.569  21.098  0.00  0.00    -0.028 A 
ATOM      7  H   UNL     1       1.231  11.376  18.025  0.00  0.00    +0.064 HD
ATOM      8  H   UNL     1       1.794   9.150  18.825  0.00  0.00    +0.062 HD
ATOM      9  H   UNL     1      -0.760  12.223  21.738  0.00  0.00    +0.064 HD
ENDROOT
BRANCH   5  10
ATOM     10  C   UNL     1      -0.229   9.927  22.975  0.00  0.00    +0.242 C 
ATOM     11  N   UNL     1      -1.448  10.375  23.404  0.00  0.00    -0.325 N 
ATOM     12  O   UNL     1       0.495   9.289  23.726  0.00  0.00    -0.270 OA
ATOM     13  H   UNL     1      -1.979  11.070  22.898  0.00  0.00    +0.145 HD
ATOM     14  H   UNL     1      -1.687  10.193  24.370  0.00  0.00    +0.145 HD
ENDBRANCH   5  10
BRANCH   4  15
ATOM     15  C   UNL     1       1.260   8.004  21.212  0.00  0.00    +0.039 C 
ATOM     16  H   UNL     1       1.579   8.017  22.259  0.00  0.00    +0.051 HD
ATOM     17  H   UNL     1       0.414   7.306  21.164  0.00  0.00    +0.051 HD
BRANCH  15  18
ATOM     18  N   UNL     1       2.342   7.489  20.404  0.00  0.00    -0.295 N 
ATOM     19  C   UNL     1       2.213   6.328  19.698  0.00  0.00    +0.300 C 
ATOM     20  O   UNL     1       1.206   5.633  19.685  0.00  0.00    -0.253 OA
ATOM     21  N   UNL     1       3.352   6.057  18.984  0.00  0.00    -0.293 N 
ATOM     22  H   UNL     1       3.277   7.757  20.684  0.00  0.00    +0.151 HD
ATOM     23  H   UNL     1       3.843   6.888  18.698  0.00  0.00    +0.151 HD
BRANCH  21  24
ATOM     24  C   UNL     1       3.343   4.959  18.044  0.00  0.00    +0.050 C 
ATOM     25  C   UNL     1       3.721   3.615  18.704  0.00  0.00    -0.026 C 
ATOM     26  C   UNL     1       4.351   2.757  17.602  0.00  0.00    -0.025 C 
ATOM     27  C   UNL     1       4.975   3.805  16.734  0.00  0.00    -0.042 A 
ATOM     28  C   UNL     1       5.930   3.628  15.748  0.00  0.00    -0.058 A 
ATOM     29  C   UNL     1       6.333   4.740  15.007  0.00  0.00    -0.061 A 
ATOM     30  C   UNL     1       5.768   6.001  15.248  0.00  0.00    -0.061 A 
ATOM     31  C   UNL     1       4.793   6.169  16.235  0.00  0.00    -0.057 A 
ATOM     32  C   UNL     1       4.409   5.064  16.983  0.00  0.00    -0.024 A 
ATOM     33  H   UNL     1       2.359   4.894  17.562  0.00  0.00    +0.055 HD
ATOM     34  H   UNL     1       2.860   3.121  19.169  0.00  0.00    +0.029 HD
ATOM     35  H   UNL     1       4.461   3.779  19.499  0.00  0.00    +0.029 HD
ATOM     36  H   UNL     1       3.584   2.213  17.041  0.00  0.00    +0.031 HD
ATOM     37  H   UNL     1       5.085   2.057  18.006  0.00  0.00    +0.031 HD
ATOM     38  H   UNL     1       6.355   2.648  15.549  0.00  0.00    +0.062 HD
ATOM     39  H   UNL     1       7.082   4.624  14.227  0.00  0.00    +0.062 HD
ATOM     40  H   UNL     1       6.084   6.853  14.651  0.00  0.00    +0.062 HD
ATOM     41  H   UNL     1       4.343   7.143  16.394  0.00  0.00    +0.062 HD
ENDBRANCH  21  24
ENDBRANCH  15  18
ENDBRANCH   4  15
BRANCH   1  42
ATOM     42  N   UNL     1      -0.142  13.268  19.318  0.00  0.00    -0.329 N 
BRANCH  42  43
ATOM     43  C   UNL     1      -0.445  13.427  17.897  0.00  0.00    +0.001 C 
ATOM     44  H   UNL     1      -0.312  14.468  17.585  0.00  0.00    +0.043 HD
ATOM     45  H   UNL     1      -1.467  13.106  17.661  0.00  0.00    +0.043 HD
ATOM     46  H   UNL     1       0.245  12.824  17.291  0.00  0.00    +0.043 HD
ENDBRANCH  42  43
BRANCH  42  47
ATOM     47  C   UNL     1       0.509  14.421  19.968  0.00  0.00    +0.037 C 
ATOM     48  H   UNL     1      -0.068  15.328  19.743  0.00  0.00    +0.051 HD
ATOM     49  H   UNL     1       0.488  14.354  21.061  0.00  0.00    +0.051 HD
BRANCH  47  53
ATOM     50  C   UNL     1       4.595  14.938  18.614  0.00  0.00    -0.050 A 
ATOM     51  C   UNL     1       4.329  14.488  19.911  0.00  0.00    -0.059 A 
ATOM     52  C   UNL     1       3.012  14.325  20.349  0.00  0.00    -0.057 A 
ATOM     53  C   UNL     1       1.936  14.622  19.501  0.00  0.00    -0.030 A 
ATOM     54  C   UNL     1       2.207  15.090  18.208  0.00  0.00    -0.057 A 
ATOM     55  C   UNL     1       3.524  15.250  17.771  0.00  0.00    -0.059 A 
ATOM     56  H   UNL     1       5.145  14.253  20.591  0.00  0.00    +0.062 HD
ATOM     57  H   UNL     1       2.829  13.958  21.356  0.00  0.00    +0.062 HD
ATOM     58  H   UNL     1       1.392  15.332  17.528  0.00  0.00    +0.062 HD
ATOM     59  H   UNL     1       3.709  15.613  16.763  0.00  0.00    +0.062 HD
BRANCH  50  60
ATOM     60  C   UNL     1       6.009  15.133  18.156  0.00  0.00    -0.040 C 
ATOM     61  H   UNL     1       6.033  15.801  17.289  0.00  0.00    +0.028 HD
ATOM     62  H   UNL     1       6.467  14.178  17.877  0.00  0.00    +0.028 HD
ATOM     63  H   UNL     1       6.621  15.565  18.955  0.00  0.00    +0.028 HD
ENDBRANCH  50  60
ENDBRANCH  47  53
ENDBRANCH  42  47
ENDBRANCH   1  42
TORSDOF 9
ENDMDL
MODEL 30
REMARK VINA RESULT:    -6.571      2.775      9.604
REMARK INTER + INTRA:         -10.501
REMARK INTER:                  -9.787
REMARK INTRA:                  -0.714
REMARK UNBOUND:                -0.856
REMARK  Name = 
REMARK  9 active torsions:
REMARK  status: ('A' for Active; 'I' for Inactive)
REMARK    1  A    between atoms: C_1  and  C_2
REMARK    2  A    between atoms: C_5  and  C_6
REMARK    3  A    between atoms: C_6  and  N_7
REMARK    4  A    between atoms: N_7  and  C_8
REMARK    5  A    between atoms: N_7  and  C_9
REMARK    6  A    between atoms: C_12  and  C_13
REMARK    7  A    between atoms: C_13  and  N_14
REMARK    8  A    between atoms: N_17  and  C_18
REMARK    9  A    between atoms: C_27  and  C_28
REMARK                            x       y       z     vdW  Elec       q    Type
REMARK                         _______ _______ _______ _____ _____    ______ ____
ROOT
ATOM      1  C   UNL     1       1.872  13.219  20.365  0.00  0.00    +0.030 A 
ATOM      2  C   UNL     1       1.854  13.092  18.970  0.00  0.00    -0.040 A 
ATOM      3  C   UNL     1       1.398  11.929  18.338  0.00  0.00    -0.055 A 
ATOM      4  C   UNL     1       0.941  10.834  19.083  0.00  0.00    -0.018 A 
ATOM      5  C   UNL     1       0.980  10.926  20.485  0.00  0.00    +0.043 A 
ATOM      6  C   UNL     1       1.432  12.110  21.103  0.00  0.00    -0.028 A 
ATOM      7  H   UNL     1       2.236  13.894  18.342  0.00  0.00    +0.064 HD
ATOM      8  H   UNL     1       1.430  11.877  17.251  0.00  0.00    +0.062 HD
ATOM      9  H   UNL     1       1.393  12.170  22.187  0.00  0.00    +0.064 HD
ENDROOT
BRANCH   5  10
ATOM     10  C   UNL     1       0.550   9.789  21.348  0.00  0.00    +0.242 C 
ATOM     11  N   UNL     1       1.541   9.104  21.994  0.00  0.00    -0.325 N 
ATOM     12  O   UNL     1      -0.618   9.447  21.467  0.00  0.00    -0.270 OA
ATOM     13  H   UNL     1       2.518   9.217  21.763  0.00  0.00    +0.145 HD
ATOM     14  H   UNL     1       1.262   8.289  22.524  0.00  0.00    +0.145 HD
ENDBRANCH   5  10
BRANCH   4  15
ATOM     15  C   UNL     1       0.490   9.596  18.351  0.00  0.00    +0.039 C 
ATOM     16  H   UNL     1      -0.032   8.911  19.027  0.00  0.00    +0.051 HD
ATOM     17  H   UNL     1      -0.232   9.847  17.562  0.00  0.00    +0.051 HD
BRANCH  15  18
ATOM     18  N   UNL     1       1.611   8.901  17.759  0.00  0.00    -0.295 N 
ATOM     19  C   UNL     1       2.323   7.972  18.461  0.00  0.00    +0.300 C 
ATOM     20  O   UNL     1       2.091   7.651  19.618  0.00  0.00    -0.253 OA
ATOM     21  N   UNL     1       3.314   7.426  17.688  0.00  0.00    -0.293 N 
ATOM     22  H   UNL     1       2.093   9.385  17.013  0.00  0.00    +0.151 HD
ATOM     23  H   UNL     1       3.079   7.395  16.710  0.00  0.00    +0.151 HD
BRANCH  21  24
ATOM     24  C   UNL     1       4.064   6.302  18.203  0.00  0.00    +0.050 C 
ATOM     25  C   UNL     1       5.359   6.041  17.403  0.00  0.00    -0.026 C 
ATOM     26  C   UNL     1       5.653   4.543  17.540  0.00  0.00    -0.025 C 
ATOM     27  C   UNL     1       4.271   3.982  17.669  0.00  0.00    -0.042 A 
ATOM     28  C   UNL     1       3.877   2.663  17.529  0.00  0.00    -0.058 A 
ATOM     29  C   UNL     1       2.537   2.343  17.755  0.00  0.00    -0.061 A 
ATOM     30  C   UNL     1       1.621   3.335  18.134  0.00  0.00    -0.061 A 
ATOM     31  C   UNL     1       2.029   4.663  18.288  0.00  0.00    -0.057 A 
ATOM     32  C   UNL     1       3.359   4.980  18.043  0.00  0.00    -0.024 A 
ATOM     33  H   UNL     1       4.289   6.465  19.266  0.00  0.00    +0.055 HD
ATOM     34  H   UNL     1       6.196   6.658  17.748  0.00  0.00    +0.029 HD
ATOM     35  H   UNL     1       5.203   6.281  16.343  0.00  0.00    +0.029 HD
ATOM     36  H   UNL     1       6.228   4.337  18.449  0.00  0.00    +0.031 HD
ATOM     37  H   UNL     1       6.182   4.154  16.667  0.00  0.00    +0.031 HD
ATOM     38  H   UNL     1       4.590   1.891  17.253  0.00  0.00    +0.062 HD
ATOM     39  H   UNL     1       2.205   1.313  17.651  0.00  0.00    +0.062 HD
ATOM     40  H   UNL     1       0.584   3.064  18.320  0.00  0.00    +0.062 HD
ATOM     41  H   UNL     1       1.318   5.416  18.609  0.00  0.00    +0.062 HD
ENDBRANCH  21  24
ENDBRANCH  15  18
ENDBRANCH   4  15
BRANCH   1  42
ATOM     42  N   UNL     1       2.339  14.393  20.964  0.00  0.00    -0.329 N 
BRANCH  42  43
ATOM     43  C   UNL     1       3.780  14.611  21.067  0.00  0.00    +0.001 C 
ATOM     44  H   UNL     1       4.332  13.700  20.810  0.00  0.00    +0.043 HD
ATOM     45  H   UNL     1       4.071  14.938  22.073  0.00  0.00    +0.043 HD
ATOM     46  H   UNL     1       4.100  15.385  20.357  0.00  0.00    +0.043 HD
ENDBRANCH  42  43
BRANCH  42  47
ATOM     47  C   UNL     1       1.524  14.971  22.049  0.00  0.00    +0.037 C 
ATOM     48  H   UNL     1       1.798  14.488  22.996  0.00  0.00    +0.051 HD
ATOM     49  H   UNL     1       1.739  16.032  22.216  0.00  0.00    +0.051 HD
BRANCH  47  53
ATOM     50  C   UNL     1      -2.740  14.498  21.422  0.00  0.00    -0.050 A 
ATOM     51  C   UNL     1      -2.136  14.014  22.587  0.00  0.00    -0.059 A 
ATOM     52  C   UNL     1      -0.762  14.164  22.788  0.00  0.00    -0.057 A 
ATOM     53  C   UNL     1       0.038  14.787  21.820  0.00  0.00    -0.030 A 
ATOM     54  C   UNL     1      -0.569  15.254  20.645  0.00  0.00    -0.057 A 
ATOM     55  C   UNL     1      -1.944  15.107  20.448  0.00  0.00    -0.059 A 
ATOM     56  H   UNL     1      -2.732  13.524  23.354  0.00  0.00    +0.062 HD
ATOM     57  H   UNL     1      -0.316  13.795  23.709  0.00  0.00    +0.062 HD
ATOM     58  H   UNL     1       0.027  15.740  19.874  0.00  0.00    +0.062 HD
ATOM     59  H   UNL     1      -2.391  15.478  19.529  0.00  0.00    +0.062 HD
BRANCH  50  60
ATOM     60  C   UNL     1      -4.212  14.316  21.202  0.00  0.00    -0.040 C 
ATOM     61  H   UNL     1      -4.385  13.744  20.285  0.00  0.00    +0.028 HD
ATOM     62  H   UNL     1      -4.719  15.283  21.114  0.00  0.00    +0.028 HD
ATOM     63  H   UNL     1      -4.669  13.785  22.044  0.00  0.00    +0.028 HD
ENDBRANCH  50  60
ENDBRANCH  47  53
ENDBRANCH  42  47
ENDBRANCH   1  42
TORSDOF 9
ENDMDL
MODEL 31
REMARK VINA RESULT:    -6.445      3.240      9.116
REMARK INTER + INTRA:         -10.315
REMARK INTER:                  -9.120
REMARK INTRA:                  -1.195
REMARK UNBOUND:                -0.856
REMARK  Name = 
REMARK  9 active torsions:
REMARK  status: ('A' for Active; 'I' for Inactive)
REMARK    1  A    between atoms: C_1  and  C_2
REMARK    2  A    between atoms: C_5  and  C_6
REMARK    3  A    between atoms: C_6  and  N_7
REMARK    4  A    between atoms: N_7  and  C_8
REMARK    5  A    between atoms: N_7  and  C_9
REMARK    6  A    between atoms: C_12  and  C_13
REMARK    7  A    between atoms: C_13  and  N_14
REMARK    8  A    between atoms: N_17  and  C_18
REMARK    9  A    between atoms: C_27  and  C_28
REMARK                            x       y       z     vdW  Elec       q    Type
REMARK                         _______ _______ _______ _____ _____    ______ ____
ROOT
ATOM      1  C   UNL     1      -0.148  12.319  20.518  0.00  0.00    +0.030 A 
ATOM      2  C   UNL     1       1.005  11.522  20.546  0.00  0.00    -0.040 A 
ATOM      3  C   UNL     1       1.217  10.494  19.620  0.00  0.00    -0.055 A 
ATOM      4  C   UNL     1       0.273  10.213  18.623  0.00  0.00    -0.018 A 
ATOM      5  C   UNL     1      -0.907  10.977  18.597  0.00  0.00    +0.043 A 
ATOM      6  C   UNL     1      -1.097  12.017  19.530  0.00  0.00    -0.028 A 
ATOM      7  H   UNL     1       1.753  11.668  21.323  0.00  0.00    +0.064 HD
ATOM      8  H   UNL     1       2.120   9.891  19.704  0.00  0.00    +0.062 HD
ATOM      9  H   UNL     1      -1.992  12.627  19.444  0.00  0.00    +0.064 HD
ENDROOT
BRANCH   5  10
ATOM     10  C   UNL     1      -1.978  10.713  17.593  0.00  0.00    +0.242 C 
ATOM     11  N   UNL     1      -2.846   9.696  17.879  0.00  0.00    -0.325 N 
ATOM     12  O   UNL     1      -2.081  11.340  16.548  0.00  0.00    -0.270 OA
ATOM     13  H   UNL     1      -2.672   9.027  18.617  0.00  0.00    +0.145 HD
ATOM     14  H   UNL     1      -3.529   9.467  17.171  0.00  0.00    +0.145 HD
ENDBRANCH   5  10
BRANCH   4  15
ATOM     15  C   UNL     1       0.538   9.074  17.673  0.00  0.00    +0.039 C 
ATOM     16  H   UNL     1      -0.100   8.215  17.904  0.00  0.00    +0.051 HD
ATOM     17  H   UNL     1       0.295   9.359  16.641  0.00  0.00    +0.051 HD
BRANCH  15  18
ATOM     18  N   UNL     1       1.920   8.655  17.732  0.00  0.00    -0.295 N 
ATOM     19  C   UNL     1       2.260   7.354  17.965  0.00  0.00    +0.300 C 
ATOM     20  O   UNL     1       1.456   6.449  18.142  0.00  0.00    -0.253 OA
ATOM     21  N   UNL     1       3.621   7.190  17.945  0.00  0.00    -0.293 N 
ATOM     22  H   UNL     1       2.590   9.363  18.004  0.00  0.00    +0.151 HD
ATOM     23  H   UNL     1       4.086   7.836  17.329  0.00  0.00    +0.151 HD
BRANCH  21  24
ATOM     24  C   UNL     1       4.166   5.852  18.003  0.00  0.00    +0.050 C 
ATOM     25  C   UNL     1       5.052   5.630  19.248  0.00  0.00    -0.026 C 
ATOM     26  C   UNL     1       6.072   4.553  18.861  0.00  0.00    -0.025 C 
ATOM     27  C   UNL     1       6.227   4.807  17.394  0.00  0.00    -0.042 A 
ATOM     28  C   UNL     1       7.227   4.346  16.557  0.00  0.00    -0.058 A 
ATOM     29  C   UNL     1       7.147   4.649  15.196  0.00  0.00    -0.061 A 
ATOM     30  C   UNL     1       6.066   5.388  14.694  0.00  0.00    -0.061 A 
ATOM     31  C   UNL     1       5.052   5.838  15.543  0.00  0.00    -0.057 A 
ATOM     32  C   UNL     1       5.146   5.551  16.898  0.00  0.00    -0.024 A 
ATOM     33  H   UNL     1       3.348   5.120  17.971  0.00  0.00    +0.055 HD
ATOM     34  H   UNL     1       4.469   5.347  20.132  0.00  0.00    +0.029 HD
ATOM     35  H   UNL     1       5.586   6.556  19.502  0.00  0.00    +0.029 HD
ATOM     36  H   UNL     1       5.667   3.550  19.029  0.00  0.00    +0.031 HD
ATOM     37  H   UNL     1       7.011   4.673  19.407  0.00  0.00    +0.031 HD
ATOM     38  H   UNL     1       8.055   3.758  16.943  0.00  0.00    +0.062 HD
ATOM     39  H   UNL     1       7.922   4.297  14.520  0.00  0.00    +0.062 HD
ATOM     40  H   UNL     1       6.013   5.603  13.629  0.00  0.00    +0.062 HD
ATOM     41  H   UNL     1       4.206   6.384  15.138  0.00  0.00    +0.062 HD
ENDBRANCH  21  24
ENDBRANCH  15  18
ENDBRANCH   4  15
BRANCH   1  42
ATOM     42  N   UNL     1      -0.330  13.335  21.461  0.00  0.00    -0.329 N 
BRANCH  42  43
ATOM     43  C   UNL     1      -1.406  13.208  22.442  0.00  0.00    +0.001 C 
ATOM     44  H   UNL     1      -2.356  13.561  22.026  0.00  0.00    +0.043 HD
ATOM     45  H   UNL     1      -1.184  13.762  23.362  0.00  0.00    +0.043 HD
ATOM     46  H   UNL     1      -1.552  12.153  22.711  0.00  0.00    +0.043 HD
ENDBRANCH  42  43
BRANCH  42  47
ATOM     47  C   UNL     1      -0.000  14.711  21.046  0.00  0.00    +0.037 C 
ATOM     48  H   UNL     1      -0.806  15.091  20.404  0.00  0.00    +0.051 HD
ATOM     49  H   UNL     1       0.024  15.410  21.888  0.00  0.00    +0.051 HD
BRANCH  47  53
ATOM     50  C   UNL     1       3.742  15.001  18.875  0.00  0.00    -0.050 A 
ATOM     51  C   UNL     1       2.521  15.044  18.193  0.00  0.00    -0.059 A 
ATOM     52  C   UNL     1       1.315  14.948  18.893  0.00  0.00    -0.057 A 
ATOM     53  C   UNL     1       1.308  14.791  20.286  0.00  0.00    -0.030 A 
ATOM     54  C   UNL     1       2.535  14.730  20.962  0.00  0.00    -0.057 A 
ATOM     55  C   UNL     1       3.739  14.830  20.262  0.00  0.00    -0.059 A 
ATOM     56  H   UNL     1       2.497  15.163  17.113  0.00  0.00    +0.062 HD
ATOM     57  H   UNL     1       0.378  15.001  18.344  0.00  0.00    +0.062 HD
ATOM     58  H   UNL     1       2.560  14.605  22.044  0.00  0.00    +0.062 HD
ATOM     59  H   UNL     1       4.677  14.781  20.809  0.00  0.00    +0.062 HD
BRANCH  50  60
ATOM     60  C   UNL     1       5.034  15.083  18.118  0.00  0.00    -0.040 C 
ATOM     61  H   UNL     1       5.394  14.077  17.883  0.00  0.00    +0.028 HD
ATOM     62  H   UNL     1       5.799  15.604  18.703  0.00  0.00    +0.028 HD
ATOM     63  H   UNL     1       4.902  15.641  17.185  0.00  0.00    +0.028 HD
ENDBRANCH  50  60
ENDBRANCH  47  53
ENDBRANCH  42  47
ENDBRANCH   1  42
TORSDOF 9
ENDMDL
MODEL 32
REMARK VINA RESULT:    -6.386      2.557      9.805
REMARK INTER + INTRA:         -10.229
REMARK INTER:                  -9.532
REMARK INTRA:                  -0.696
REMARK UNBOUND:                -0.856
REMARK  Name = 
REMARK  9 active torsions:
REMARK  status: ('A' for Active; 'I' for Inactive)
REMARK    1  A    between atoms: C_1  and  C_2
REMARK    2  A    between atoms: C_5  and  C_6
REMARK    3  A    between atoms: C_6  and  N_7
REMARK    4  A    between atoms: N_7  and  C_8
REMARK    5  A    between atoms: N_7  and  C_9
REMARK    6  A    between atoms: C_12  and  C_13
REMARK    7  A    between atoms: C_13  and  N_14
REMARK    8  A    between atoms: N_17  and  C_18
REMARK    9  A    between atoms: C_27  and  C_28
REMARK                            x       y       z     vdW  Elec       q    Type
REMARK                         _______ _______ _______ _____ _____    ______ ____
ROOT
ATOM      1  C   UNL     1       0.010  12.775  20.886  0.00  0.00    +0.030 A 
ATOM      2  C   UNL     1      -0.075  12.042  22.078  0.00  0.00    -0.040 A 
ATOM      3  C   UNL     1       0.132  10.658  22.113  0.00  0.00    -0.055 A 
ATOM      4  C   UNL     1       0.428   9.942  20.945  0.00  0.00    -0.018 A 
ATOM      5  C   UNL     1       0.486  10.651  19.733  0.00  0.00    +0.043 A 
ATOM      6  C   UNL     1       0.287  12.047  19.719  0.00  0.00    -0.028 A 
ATOM      7  H   UNL     1      -0.343  12.538  23.008  0.00  0.00    +0.064 HD
ATOM      8  H   UNL     1       0.029  10.137  23.063  0.00  0.00    +0.062 HD
ATOM      9  H   UNL     1       0.398  12.573  18.775  0.00  0.00    +0.064 HD
ENDROOT
BRANCH   5  10
ATOM     10  C   UNL     1       0.756   9.956  18.441  0.00  0.00    +0.242 C 
ATOM     11  N   UNL     1      -0.333   9.648  17.674  0.00  0.00    -0.325 N 
ATOM     12  O   UNL     1       1.880   9.641  18.076  0.00  0.00    -0.270 OA
ATOM     13  H   UNL     1      -1.278   9.700  18.029  0.00  0.00    +0.145 HD
ATOM     14  H   UNL     1      -0.163   9.115  16.833  0.00  0.00    +0.145 HD
ENDBRANCH   5  10
BRANCH   4  15
ATOM     15  C   UNL     1       0.611   8.448  21.036  0.00  0.00    +0.039 C 
ATOM     16  H   UNL     1       0.647   8.122  22.080  0.00  0.00    +0.051 HD
ATOM     17  H   UNL     1      -0.241   7.921  20.586  0.00  0.00    +0.051 HD
BRANCH  15  18
ATOM     18  N   UNL     1       1.826   8.030  20.376  0.00  0.00    -0.295 N 
ATOM     19  C   UNL     1       2.006   6.740  19.966  0.00  0.00    +0.300 C 
ATOM     20  O   UNL     1       1.186   5.845  20.115  0.00  0.00    -0.253 OA
ATOM     21  N   UNL     1       3.216   6.588  19.340  0.00  0.00    -0.293 N 
ATOM     22  H   UNL     1       2.657   8.567  20.587  0.00  0.00    +0.151 HD
ATOM     23  H   UNL     1       3.522   7.421  18.866  0.00  0.00    +0.151 HD
BRANCH  21  24
ATOM     24  C   UNL     1       3.512   5.332  18.687  0.00  0.00    +0.050 C 
ATOM     25  C   UNL     1       4.273   4.354  19.609  0.00  0.00    -0.026 C 
ATOM     26  C   UNL     1       5.107   3.458  18.687  0.00  0.00    -0.025 C 
ATOM     27  C   UNL     1       5.388   4.386  17.548  0.00  0.00    -0.042 A 
ATOM     28  C   UNL     1       6.338   4.241  16.552  0.00  0.00    -0.058 A 
ATOM     29  C   UNL     1       6.390   5.201  15.539  0.00  0.00    -0.061 A 
ATOM     30  C   UNL     1       5.487   6.274  15.527  0.00  0.00    -0.061 A 
ATOM     31  C   UNL     1       4.521   6.406  16.527  0.00  0.00    -0.057 A 
ATOM     32  C   UNL     1       4.485   5.460  17.543  0.00  0.00    -0.024 A 
ATOM     33  H   UNL     1       2.582   4.879  18.320  0.00  0.00    +0.055 HD
ATOM     34  H   UNL     1       3.599   3.772  20.249  0.00  0.00    +0.029 HD
ATOM     35  H   UNL     1       4.946   4.909  20.276  0.00  0.00    +0.029 HD
ATOM     36  H   UNL     1       4.523   2.600  18.338  0.00  0.00    +0.031 HD
ATOM     37  H   UNL     1       6.019   3.112  19.179  0.00  0.00    +0.031 HD
ATOM     38  H   UNL     1       7.026   3.400  16.552  0.00  0.00    +0.062 HD
ATOM     39  H   UNL     1       7.129   5.106  14.747  0.00  0.00    +0.062 HD
ATOM     40  H   UNL     1       5.534   7.004  14.722  0.00  0.00    +0.062 HD
ATOM     41  H   UNL     1       3.810   7.225  16.491  0.00  0.00    +0.062 HD
ENDBRANCH  21  24
ENDBRANCH  15  18
ENDBRANCH   4  15
BRANCH   1  42
ATOM     42  N   UNL     1      -0.207  14.156  20.887  0.00  0.00    -0.329 N 
BRANCH  42  43
ATOM     43  C   UNL     1       0.673  15.011  21.681  0.00  0.00    +0.001 C 
ATOM     44  H   UNL     1       1.569  14.464  21.995  0.00  0.00    +0.043 HD
ATOM     45  H   UNL     1       0.162  15.408  22.567  0.00  0.00    +0.043 HD
ATOM     46  H   UNL     1       1.017  15.864  21.081  0.00  0.00    +0.043 HD
ENDBRANCH  42  43
BRANCH  42  47
ATOM     47  C   UNL     1      -1.598  14.623  20.745  0.00  0.00    +0.037 C 
ATOM     48  H   UNL     1      -1.615  15.718  20.823  0.00  0.00    +0.051 HD
ATOM     49  H   UNL     1      -2.011  14.420  19.751  0.00  0.00    +0.051 HD
BRANCH  47  53
ATOM     50  C   UNL     1      -4.190  12.917  23.772  0.00  0.00    -0.050 A 
ATOM     51  C   UNL     1      -4.385  12.616  22.420  0.00  0.00    -0.059 A 
ATOM     52  C   UNL     1      -3.551  13.168  21.444  0.00  0.00    -0.057 A 
ATOM     53  C   UNL     1      -2.517  14.044  21.801  0.00  0.00    -0.030 A 
ATOM     54  C   UNL     1      -2.337  14.357  23.156  0.00  0.00    -0.057 A 
ATOM     55  C   UNL     1      -3.169  13.801  24.131  0.00  0.00    -0.059 A 
ATOM     56  H   UNL     1      -5.181  11.941  22.115  0.00  0.00    +0.062 HD
ATOM     57  H   UNL     1      -3.711  12.907  20.401  0.00  0.00    +0.062 HD
ATOM     58  H   UNL     1      -1.544  15.037  23.462  0.00  0.00    +0.062 HD
ATOM     59  H   UNL     1      -3.009  14.058  25.174  0.00  0.00    +0.062 HD
BRANCH  50  60
ATOM     60  C   UNL     1      -5.100  12.338  24.815  0.00  0.00    -0.040 C 
ATOM     61  H   UNL     1      -5.834  11.676  24.344  0.00  0.00    +0.028 HD
ATOM     62  H   UNL     1      -5.633  13.129  25.353  0.00  0.00    +0.028 HD
ATOM     63  H   UNL     1      -4.529  11.768  25.555  0.00  0.00    +0.028 HD
ENDBRANCH  50  60
ENDBRANCH  47  53
ENDBRANCH  42  47
ENDBRANCH   1  42
TORSDOF 9
ENDMDL
