MODEL 1
REMARK VINA RESULT:    -8.698      0.000      0.000
REMARK INTER + INTRA:         -11.062
REMARK INTER:                 -10.985
REMARK INTRA:                  -0.077
REMARK UNBOUND:                 0.178
REMARK  Name = 
REMARK  6 active torsions:
REMARK  status: ('A' for Active; 'I' for Inactive)
REMARK    1  A    between atoms: C_1  and  C_2
REMARK    2  A    between atoms: C_2  and  C_3
REMARK    3  A    between atoms: C_5  and  C_6
REMARK    4  A    between atoms: C_10  and  C_12
REMARK    5  A    between atoms: C_14  and  C_15
REMARK    6  A    between atoms: N_16  and  C_17
REMARK                            x       y       z     vdW  Elec       q    Type
REMARK                         _______ _______ _______ _____ _____    ______ ____
ROOT
ATOM      1  C   UNL     1       5.821   4.758  16.779  0.00  0.00    +0.024 C 
ATOM      2  C   UNL     1       4.722   3.762  17.179  0.00  0.00    -0.027 C 
ATOM      3  C   UNL     1       4.265   3.984  18.618  0.00  0.00    +0.016 C 
ATOM      4  N   UNL     1       3.881   5.375  18.823  0.00  0.00    -0.296 N 
ATOM      5  C   UNL     1       2.723   5.650  19.566  0.00  0.00    +0.267 C 
ATOM      6  O   UNL     1       2.154   4.764  20.211  0.00  0.00    -0.268 OA
ATOM      7  C   UNL     1       4.919   6.354  18.503  0.00  0.00    +0.016 C 
ATOM      8  C   UNL     1       5.368   6.203  17.053  0.00  0.00    -0.027 C 
ATOM      9  H   UNL     1       6.699   4.561  17.411  0.00  0.00    +0.038 HD
ATOM     10  H   UNL     1       3.860   3.877  16.507  0.00  0.00    +0.029 HD
ATOM     11  H   UNL     1       5.077   2.731  17.061  0.00  0.00    +0.029 HD
ATOM     12  H   UNL     1       3.430   3.310  18.838  0.00  0.00    +0.046 HD
ATOM     13  H   UNL     1       5.072   3.751  19.325  0.00  0.00    +0.046 HD
ATOM     14  H   UNL     1       4.625   7.382  18.714  0.00  0.00    +0.046 HD
ATOM     15  H   UNL     1       5.763   6.149  19.177  0.00  0.00    +0.046 HD
ATOM     16  H   UNL     1       6.187   6.901  16.844  0.00  0.00    +0.029 HD
ATOM     17  H   UNL     1       4.538   6.475  16.389  0.00  0.00    +0.029 HD
ENDROOT
BRANCH   1  20
ATOM     18  C   UNL     1       6.226   3.801  13.379  0.00  0.00    +0.125 A 
ATOM     19  N   UNL     1       5.509   3.765  14.485  0.00  0.00    -0.216 NA
ATOM     20  C   UNL     1       6.224   4.553  15.355  0.00  0.00    +0.154 A 
ATOM     21  N   UNL     1       7.344   5.088  14.838  0.00  0.00    -0.157 NA
ATOM     22  N   UNL     1       7.326   4.591  13.590  0.00  0.00    -0.262 N 
ATOM     23  H   UNL     1       8.083   4.826  12.953  0.00  0.00    +0.190 HD
BRANCH  18  24
ATOM     24  C   UNL     1       5.941   3.130  12.085  0.00  0.00    +0.004 C 
ATOM     25  H   UNL     1       6.315   2.095  12.097  0.00  0.00    +0.034 HD
ATOM     26  H   UNL     1       6.476   3.662  11.288  0.00  0.00    +0.034 HD
BRANCH  24  27
ATOM     27  C   UNL     1       4.448   3.117  11.775  0.00  0.00    -0.058 C 
ATOM     28  H   UNL     1       4.213   2.309  11.074  0.00  0.00    +0.023 HD
ATOM     29  H   UNL     1       3.855   2.959  12.681  0.00  0.00    +0.023 HD
ATOM     30  H   UNL     1       4.130   4.063  11.319  0.00  0.00    +0.023 HD
ENDBRANCH  24  27
ENDBRANCH  18  24
ENDBRANCH   1  20
BRANCH   5  31
ATOM     31  C   UNL     1       2.146   7.012  19.539  0.00  0.00    +0.148 A 
ATOM     32  C   UNL     1       2.281   7.937  18.478  0.00  0.00    -0.008 A 
ATOM     33  C   UNL     1       1.697   9.112  18.908  0.00  0.00    +0.043 A 
ATOM     34  N   UNL     1       1.170   8.838  20.167  0.00  0.00    -0.236 N 
ATOM     35  N   UNL     1       1.526   7.589  20.578  0.00  0.00    -0.161 NA
ATOM     36  H   UNL     1       2.795   7.772  17.539  0.00  0.00    +0.066 HD
BRANCH  34  37
ATOM     37  C   UNL     1       0.367   9.635  21.046  0.00  0.00    +0.066 A 
ATOM     38  C   UNL     1       0.194   9.203  22.378  0.00  0.00    -0.034 A 
ATOM     39  C   UNL     1      -0.575   9.947  23.277  0.00  0.00    -0.024 A 
ATOM     40  C   UNL     1      -1.183  11.118  22.849  0.00  0.00    +0.124 A 
ATOM     41  F   UNL     1      -1.916  11.836  23.710  0.00  0.00    -0.205 F 
ATOM     42  C   UNL     1      -1.045  11.553  21.537  0.00  0.00    -0.024 A 
ATOM     43  C   UNL     1      -0.274  10.811  20.631  0.00  0.00    -0.034 A 
ATOM     44  H   UNL     1       0.670   8.292  22.742  0.00  0.00    +0.064 HD
ATOM     45  H   UNL     1      -0.697   9.618  24.304  0.00  0.00    +0.065 HD
ATOM     46  H   UNL     1      -1.544  12.464  21.221  0.00  0.00    +0.065 HD
ATOM     47  H   UNL     1      -0.234  11.170  19.611  0.00  0.00    +0.064 HD
ENDBRANCH  34  37
BRANCH  33  48
ATOM     48  C   UNL     1       1.697  10.420  18.206  0.00  0.00    -0.022 C 
ATOM     49  H   UNL     1       1.583  11.241  18.926  0.00  0.00    +0.029 HD
ATOM     50  H   UNL     1       2.645  10.582  17.682  0.00  0.00    +0.029 HD
ATOM     51  H   UNL     1       0.862  10.502  17.505  0.00  0.00    +0.029 HD
ENDBRANCH  33  48
ENDBRANCH   5  31
TORSDOF 6
ENDMDL
MODEL 2
REMARK VINA RESULT:    -7.790      1.804      2.752
REMARK INTER + INTRA:          -9.889
REMARK INTER:                  -9.609
REMARK INTRA:                  -0.280
REMARK UNBOUND:                 0.178
REMARK  Name = 
REMARK  6 active torsions:
REMARK  status: ('A' for Active; 'I' for Inactive)
REMARK    1  A    between atoms: C_1  and  C_2
REMARK    2  A    between atoms: C_2  and  C_3
REMARK    3  A    between atoms: C_5  and  C_6
REMARK    4  A    between atoms: C_10  and  C_12
REMARK    5  A    between atoms: C_14  and  C_15
REMARK    6  A    between atoms: N_16  and  C_17
REMARK                            x       y       z     vdW  Elec       q    Type
REMARK                         _______ _______ _______ _____ _____    ______ ____
ROOT
ATOM      1  C   UNL     1       5.517   4.446  17.216  0.00  0.00    +0.024 C 
ATOM      2  C   UNL     1       4.194   3.684  17.045  0.00  0.00    -0.027 C 
ATOM      3  C   UNL     1       3.473   3.512  18.379  0.00  0.00    +0.016 C 
ATOM      4  N   UNL     1       3.311   4.799  19.042  0.00  0.00    -0.296 N 
ATOM      5  C   UNL     1       2.085   5.087  19.660  0.00  0.00    +0.267 C 
ATOM      6  O   UNL     1       1.234   4.208  19.830  0.00  0.00    -0.268 OA
ATOM      7  C   UNL     1       4.554   5.534  19.271  0.00  0.00    +0.016 C 
ATOM      8  C   UNL     1       5.283   5.776  17.954  0.00  0.00    -0.027 C 
ATOM      9  H   UNL     1       6.180   3.832  17.843  0.00  0.00    +0.038 HD
ATOM     10  H   UNL     1       3.541   4.233  16.352  0.00  0.00    +0.029 HD
ATOM     11  H   UNL     1       4.374   2.700  16.594  0.00  0.00    +0.029 HD
ATOM     12  H   UNL     1       2.502   3.036  18.203  0.00  0.00    +0.046 HD
ATOM     13  H   UNL     1       4.044   2.858  19.050  0.00  0.00    +0.046 HD
ATOM     14  H   UNL     1       4.411   6.468  19.814  0.00  0.00    +0.046 HD
ATOM     15  H   UNL     1       5.174   4.907  19.928  0.00  0.00    +0.046 HD
ATOM     16  H   UNL     1       6.240   6.275  18.146  0.00  0.00    +0.029 HD
ATOM     17  H   UNL     1       4.687   6.457  17.332  0.00  0.00    +0.029 HD
ENDROOT
BRANCH   1  20
ATOM     18  C   UNL     1       6.690   4.360  13.861  0.00  0.00    +0.125 A 
ATOM     19  N   UNL     1       5.828   3.941  14.768  0.00  0.00    -0.216 NA
ATOM     20  C   UNL     1       6.186   4.642  15.895  0.00  0.00    +0.154 A 
ATOM     21  N   UNL     1       7.220   5.486  15.728  0.00  0.00    -0.157 NA
ATOM     22  N   UNL     1       7.524   5.283  14.435  0.00  0.00    -0.262 N 
ATOM     23  H   UNL     1       8.301   5.794  14.023  0.00  0.00    +0.190 HD
BRANCH  18  24
ATOM     24  C   UNL     1       6.787   3.947  12.438  0.00  0.00    +0.004 C 
ATOM     25  H   UNL     1       7.694   3.347  12.272  0.00  0.00    +0.034 HD
ATOM     26  H   UNL     1       6.874   4.848  11.816  0.00  0.00    +0.034 HD
BRANCH  24  27
ATOM     27  C   UNL     1       5.569   3.141  12.000  0.00  0.00    -0.058 C 
ATOM     28  H   UNL     1       5.812   2.530  11.125  0.00  0.00    +0.023 HD
ATOM     29  H   UNL     1       5.230   2.471  12.796  0.00  0.00    +0.023 HD
ATOM     30  H   UNL     1       4.735   3.801  11.729  0.00  0.00    +0.023 HD
ENDBRANCH  24  27
ENDBRANCH  18  24
ENDBRANCH   1  20
BRANCH   5  31
ATOM     31  C   UNL     1       1.785   6.476  20.072  0.00  0.00    +0.148 A 
ATOM     32  C   UNL     1       1.253   6.862  21.324  0.00  0.00    -0.008 A 
ATOM     33  C   UNL     1       1.020   8.221  21.247  0.00  0.00    +0.043 A 
ATOM     34  N   UNL     1       1.483   8.617  19.995  0.00  0.00    -0.236 N 
ATOM     35  N   UNL     1       1.861   7.537  19.257  0.00  0.00    -0.161 NA
ATOM     36  H   UNL     1       1.019   6.208  22.155  0.00  0.00    +0.066 HD
BRANCH  34  37
ATOM     37  C   UNL     1       1.600   9.916  19.403  0.00  0.00    +0.066 A 
ATOM     38  C   UNL     1       0.939  10.999  20.019  0.00  0.00    -0.034 A 
ATOM     39  C   UNL     1       1.025  12.288  19.486  0.00  0.00    -0.024 A 
ATOM     40  C   UNL     1       1.761  12.499  18.328  0.00  0.00    +0.124 A 
ATOM     41  F   UNL     1       1.850  13.734  17.817  0.00  0.00    -0.205 F 
ATOM     42  C   UNL     1       2.403  11.445  17.691  0.00  0.00    -0.024 A 
ATOM     43  C   UNL     1       2.320  10.151  18.223  0.00  0.00    -0.034 A 
ATOM     44  H   UNL     1       0.363  10.861  20.935  0.00  0.00    +0.064 HD
ATOM     45  H   UNL     1       0.525  13.121  19.969  0.00  0.00    +0.065 HD
ATOM     46  H   UNL     1       2.959  11.633  16.777  0.00  0.00    +0.065 HD
ATOM     47  H   UNL     1       2.802   9.358  17.664  0.00  0.00    +0.064 HD
ENDBRANCH  34  37
BRANCH  33  48
ATOM     48  C   UNL     1       0.345   9.072  22.259  0.00  0.00    -0.022 C 
ATOM     49  H   UNL     1       1.064   9.760  22.722  0.00  0.00    +0.029 HD
ATOM     50  H   UNL     1      -0.435   9.685  21.797  0.00  0.00    +0.029 HD
ATOM     51  H   UNL     1      -0.079   8.473  23.071  0.00  0.00    +0.029 HD
ENDBRANCH  33  48
ENDBRANCH   5  31
TORSDOF 6
ENDMDL
MODEL 3
REMARK VINA RESULT:    -7.553      3.777      9.242
REMARK INTER + INTRA:          -9.583
REMARK INTER:                  -9.357
REMARK INTRA:                  -0.226
REMARK UNBOUND:                 0.178
REMARK  Name = 
REMARK  6 active torsions:
REMARK  status: ('A' for Active; 'I' for Inactive)
REMARK    1  A    between atoms: C_1  and  C_2
REMARK    2  A    between atoms: C_2  and  C_3
REMARK    3  A    between atoms: C_5  and  C_6
REMARK    4  A    between atoms: C_10  and  C_12
REMARK    5  A    between atoms: C_14  and  C_15
REMARK    6  A    between atoms: N_16  and  C_17
REMARK                            x       y       z     vdW  Elec       q    Type
REMARK                         _______ _______ _______ _____ _____    ______ ____
ROOT
ATOM      1  C   UNL     1       1.189   9.285  19.278  0.00  0.00    +0.024 C 
ATOM      2  C   UNL     1       1.304   8.525  20.608  0.00  0.00    -0.027 C 
ATOM      3  C   UNL     1       1.314   7.015  20.389  0.00  0.00    +0.016 C 
ATOM      4  N   UNL     1       2.343   6.645  19.426  0.00  0.00    -0.296 N 
ATOM      5  C   UNL     1       3.131   5.514  19.687  0.00  0.00    +0.267 C 
ATOM      6  O   UNL     1       2.835   4.724  20.589  0.00  0.00    -0.268 OA
ATOM      7  C   UNL     1       2.239   7.308  18.127  0.00  0.00    +0.016 C 
ATOM      8  C   UNL     1       2.280   8.824  18.295  0.00  0.00    -0.027 C 
ATOM      9  H   UNL     1       0.215   9.036  18.831  0.00  0.00    +0.038 HD
ATOM     10  H   UNL     1       2.231   8.819  21.120  0.00  0.00    +0.029 HD
ATOM     11  H   UNL     1       0.477   8.795  21.276  0.00  0.00    +0.029 HD
ATOM     12  H   UNL     1       1.475   6.514  21.349  0.00  0.00    +0.046 HD
ATOM     13  H   UNL     1       0.348   6.671  19.996  0.00  0.00    +0.046 HD
ATOM     14  H   UNL     1       2.989   6.976  17.410  0.00  0.00    +0.046 HD
ATOM     15  H   UNL     1       1.272   7.008  17.698  0.00  0.00    +0.046 HD
ATOM     16  H   UNL     1       2.141   9.309  17.322  0.00  0.00    +0.029 HD
ATOM     17  H   UNL     1       3.272   9.118  18.660  0.00  0.00    +0.029 HD
ENDROOT
BRANCH   1  20
ATOM     18  C   UNL     1       1.612  12.814  19.186  0.00  0.00    +0.125 A 
ATOM     19  N   UNL     1       1.691  11.650  18.570  0.00  0.00    -0.216 NA
ATOM     20  C   UNL     1       1.224  10.761  19.509  0.00  0.00    +0.154 A 
ATOM     21  N   UNL     1       0.847  11.318  20.673  0.00  0.00    -0.157 NA
ATOM     22  N   UNL     1       1.108  12.616  20.445  0.00  0.00    -0.262 N 
ATOM     23  H   UNL     1       0.927  13.294  21.181  0.00  0.00    +0.190 HD
BRANCH  18  24
ATOM     24  C   UNL     1       1.980  14.152  18.657  0.00  0.00    +0.004 C 
ATOM     25  H   UNL     1       1.783  14.931  19.408  0.00  0.00    +0.034 HD
ATOM     26  H   UNL     1       1.349  14.371  17.786  0.00  0.00    +0.034 HD
BRANCH  24  27
ATOM     27  C   UNL     1       3.448  14.212  18.251  0.00  0.00    -0.058 C 
ATOM     28  H   UNL     1       3.822  15.238  18.328  0.00  0.00    +0.023 HD
ATOM     29  H   UNL     1       4.065  13.580  18.896  0.00  0.00    +0.023 HD
ATOM     30  H   UNL     1       3.586  13.880  17.213  0.00  0.00    +0.023 HD
ENDBRANCH  24  27
ENDBRANCH  18  24
ENDBRANCH   1  20
BRANCH   5  31
ATOM     31  C   UNL     1       4.363   5.287  18.900  0.00  0.00    +0.148 A 
ATOM     32  C   UNL     1       5.677   5.262  19.424  0.00  0.00    -0.008 A 
ATOM     33  C   UNL     1       6.526   5.142  18.342  0.00  0.00    +0.043 A 
ATOM     34  N   UNL     1       5.706   5.025  17.224  0.00  0.00    -0.236 N 
ATOM     35  N   UNL     1       4.399   5.205  17.562  0.00  0.00    -0.161 NA
ATOM     36  H   UNL     1       5.959   5.375  20.463  0.00  0.00    +0.066 HD
BRANCH  34  37
ATOM     37  C   UNL     1       6.019   4.771  15.849  0.00  0.00    +0.066 A 
ATOM     38  C   UNL     1       5.119   3.999  15.084  0.00  0.00    -0.034 A 
ATOM     39  C   UNL     1       5.375   3.727  13.738  0.00  0.00    -0.024 A 
ATOM     40  C   UNL     1       6.534   4.213  13.151  0.00  0.00    +0.124 A 
ATOM     41  F   UNL     1       6.779   3.958  11.859  0.00  0.00    -0.205 F 
ATOM     42  C   UNL     1       7.445   4.958  13.888  0.00  0.00    -0.024 A 
ATOM     43  C   UNL     1       7.194   5.234  15.239  0.00  0.00    -0.034 A 
ATOM     44  H   UNL     1       4.196   3.614  15.519  0.00  0.00    +0.064 HD
ATOM     45  H   UNL     1       4.674   3.142  13.150  0.00  0.00    +0.065 HD
ATOM     46  H   UNL     1       8.354   5.313  13.412  0.00  0.00    +0.065 HD
ATOM     47  H   UNL     1       7.957   5.781  15.779  0.00  0.00    +0.064 HD
ENDBRANCH  34  37
BRANCH  33  48
ATOM     48  C   UNL     1       8.009   5.202  18.359  0.00  0.00    -0.022 C 
ATOM     49  H   UNL     1       8.356   5.895  19.136  0.00  0.00    +0.029 HD
ATOM     50  H   UNL     1       8.438   4.221  18.590  0.00  0.00    +0.029 HD
ATOM     51  H   UNL     1       8.409   5.572  17.410  0.00  0.00    +0.029 HD
ENDBRANCH  33  48
ENDBRANCH   5  31
TORSDOF 6
ENDMDL
MODEL 4
REMARK VINA RESULT:    -7.316      4.058      8.745
REMARK INTER + INTRA:          -9.276
REMARK INTER:                  -9.248
REMARK INTRA:                  -0.029
REMARK UNBOUND:                 0.178
REMARK  Name = 
REMARK  6 active torsions:
REMARK  status: ('A' for Active; 'I' for Inactive)
REMARK    1  A    between atoms: C_1  and  C_2
REMARK    2  A    between atoms: C_2  and  C_3
REMARK    3  A    between atoms: C_5  and  C_6
REMARK    4  A    between atoms: C_10  and  C_12
REMARK    5  A    between atoms: C_14  and  C_15
REMARK    6  A    between atoms: N_16  and  C_17
REMARK                            x       y       z     vdW  Elec       q    Type
REMARK                         _______ _______ _______ _____ _____    ______ ____
ROOT
ATOM      1  C   UNL     1       1.267  12.171  18.949  0.00  0.00    +0.024 C 
ATOM      2  C   UNL     1       1.226  11.995  20.475  0.00  0.00    -0.027 C 
ATOM      3  C   UNL     1       0.371  10.796  20.875  0.00  0.00    +0.016 C 
ATOM      4  N   UNL     1       0.811   9.598  20.172  0.00  0.00    -0.296 N 
ATOM      5  C   UNL     1       0.895   8.392  20.885  0.00  0.00    +0.267 C 
ATOM      6  O   UNL     1       0.413   8.286  22.017  0.00  0.00    -0.268 OA
ATOM      7  C   UNL     1       0.814   9.707  18.713  0.00  0.00    +0.016 C 
ATOM      8  C   UNL     1       1.702  10.863  18.266  0.00  0.00    -0.027 C 
ATOM      9  H   UNL     1       0.246  12.398  18.609  0.00  0.00    +0.038 HD
ATOM     10  H   UNL     1       2.246  11.851  20.856  0.00  0.00    +0.029 HD
ATOM     11  H   UNL     1       0.836  12.901  20.955  0.00  0.00    +0.029 HD
ATOM     12  H   UNL     1       0.431  10.658  21.960  0.00  0.00    +0.046 HD
ATOM     13  H   UNL     1      -0.684  10.965  20.622  0.00  0.00    +0.046 HD
ATOM     14  H   UNL     1       1.097   8.782  18.211  0.00  0.00    +0.046 HD
ATOM     15  H   UNL     1      -0.225   9.897  18.409  0.00  0.00    +0.046 HD
ATOM     16  H   UNL     1       1.650  10.971  17.176  0.00  0.00    +0.029 HD
ATOM     17  H   UNL     1       2.746  10.632  18.514  0.00  0.00    +0.029 HD
ENDROOT
BRANCH   1  20
ATOM     18  C   UNL     1       3.884  14.421  18.094  0.00  0.00    +0.125 A 
ATOM     19  N   UNL     1       3.484  13.183  18.313  0.00  0.00    -0.216 NA
ATOM     20  C   UNL     1       2.142  13.323  18.576  0.00  0.00    +0.154 A 
ATOM     21  N   UNL     1       1.686  14.586  18.517  0.00  0.00    -0.157 NA
ATOM     22  N   UNL     1       2.809  15.261  18.218  0.00  0.00    -0.262 N 
ATOM     23  H   UNL     1       2.767  16.273  18.120  0.00  0.00    +0.190 HD
BRANCH  18  24
ATOM     24  C   UNL     1       5.251  14.891  17.757  0.00  0.00    +0.004 C 
ATOM     25  H   UNL     1       5.205  15.765  17.091  0.00  0.00    +0.034 HD
ATOM     26  H   UNL     1       5.773  14.093  17.212  0.00  0.00    +0.034 HD
BRANCH  24  27
ATOM     27  C   UNL     1       6.045  15.258  19.006  0.00  0.00    -0.058 C 
ATOM     28  H   UNL     1       6.968  14.671  19.057  0.00  0.00    +0.023 HD
ATOM     29  H   UNL     1       6.320  16.318  19.004  0.00  0.00    +0.023 HD
ATOM     30  H   UNL     1       5.466  15.056  19.916  0.00  0.00    +0.023 HD
ENDBRANCH  24  27
ENDBRANCH  18  24
ENDBRANCH   1  20
BRANCH   5  31
ATOM     31  C   UNL     1       1.613   7.243  20.292  0.00  0.00    +0.148 A 
ATOM     32  C   UNL     1       1.599   5.921  20.793  0.00  0.00    -0.008 A 
ATOM     33  C   UNL     1       2.486   5.200  20.018  0.00  0.00    +0.043 A 
ATOM     34  N   UNL     1       2.943   6.082  19.042  0.00  0.00    -0.236 N 
ATOM     35  N   UNL     1       2.477   7.340  19.271  0.00  0.00    -0.161 NA
ATOM     36  H   UNL     1       1.047   5.563  21.652  0.00  0.00    +0.066 HD
BRANCH  34  37
ATOM     37  C   UNL     1       3.792   5.871  17.907  0.00  0.00    +0.066 A 
ATOM     38  C   UNL     1       3.911   4.564  17.388  0.00  0.00    -0.034 A 
ATOM     39  C   UNL     1       4.720   4.306  16.279  0.00  0.00    -0.024 A 
ATOM     40  C   UNL     1       5.424   5.346  15.690  0.00  0.00    +0.124 A 
ATOM     41  F   UNL     1       6.197   5.102  14.624  0.00  0.00    -0.205 F 
ATOM     42  C   UNL     1       5.340   6.637  16.195  0.00  0.00    -0.024 A 
ATOM     43  C   UNL     1       4.529   6.902  17.307  0.00  0.00    -0.034 A 
ATOM     44  H   UNL     1       3.360   3.731  17.827  0.00  0.00    +0.064 HD
ATOM     45  H   UNL     1       4.801   3.301  15.876  0.00  0.00    +0.065 HD
ATOM     46  H   UNL     1       5.913   7.432  15.727  0.00  0.00    +0.065 HD
ATOM     47  H   UNL     1       4.532   7.916  17.687  0.00  0.00    +0.064 HD
ENDBRANCH  34  37
BRANCH  33  48
ATOM     48  C   UNL     1       2.921   3.797  20.228  0.00  0.00    -0.022 C 
ATOM     49  H   UNL     1       3.501   3.442  19.366  0.00  0.00    +0.029 HD
ATOM     50  H   UNL     1       3.570   3.716  21.107  0.00  0.00    +0.029 HD
ATOM     51  H   UNL     1       2.067   3.120  20.329  0.00  0.00    +0.029 HD
ENDBRANCH  33  48
ENDBRANCH   5  31
TORSDOF 6
ENDMDL
MODEL 5
REMARK VINA RESULT:    -7.001      1.382      1.722
REMARK INTER + INTRA:          -8.869
REMARK INTER:                  -8.741
REMARK INTRA:                  -0.129
REMARK UNBOUND:                 0.178
REMARK  Name = 
REMARK  6 active torsions:
REMARK  status: ('A' for Active; 'I' for Inactive)
REMARK    1  A    between atoms: C_1  and  C_2
REMARK    2  A    between atoms: C_2  and  C_3
REMARK    3  A    between atoms: C_5  and  C_6
REMARK    4  A    between atoms: C_10  and  C_12
REMARK    5  A    between atoms: C_14  and  C_15
REMARK    6  A    between atoms: N_16  and  C_17
REMARK                            x       y       z     vdW  Elec       q    Type
REMARK                         _______ _______ _______ _____ _____    ______ ____
ROOT
ATOM      1  C   UNL     1       5.556   5.192  16.593  0.00  0.00    +0.024 C 
ATOM      2  C   UNL     1       4.349   4.348  17.029  0.00  0.00    -0.027 C 
ATOM      3  C   UNL     1       3.832   4.779  18.399  0.00  0.00    +0.016 C 
ATOM      4  N   UNL     1       3.566   6.212  18.417  0.00  0.00    -0.296 N 
ATOM      5  C   UNL     1       2.397   6.670  19.043  0.00  0.00    +0.267 C 
ATOM      6  O   UNL     1       1.713   5.920  19.746  0.00  0.00    -0.268 OA
ATOM      7  C   UNL     1       4.706   7.054  18.058  0.00  0.00    +0.016 C 
ATOM      8  C   UNL     1       5.222   6.692  16.669  0.00  0.00    -0.027 C 
ATOM      9  H   UNL     1       6.374   4.999  17.302  0.00  0.00    +0.038 HD
ATOM     10  H   UNL     1       3.541   4.453  16.292  0.00  0.00    +0.029 HD
ATOM     11  H   UNL     1       4.614   3.284  17.054  0.00  0.00    +0.029 HD
ATOM     12  H   UNL     1       2.928   4.209  18.638  0.00  0.00    +0.046 HD
ATOM     13  H   UNL     1       4.572   4.566  19.181  0.00  0.00    +0.046 HD
ATOM     14  H   UNL     1       4.496   8.121  18.129  0.00  0.00    +0.046 HD
ATOM     15  H   UNL     1       5.488   6.861  18.806  0.00  0.00    +0.046 HD
ATOM     16  H   UNL     1       6.112   7.289  16.437  0.00  0.00    +0.029 HD
ATOM     17  H   UNL     1       4.459   6.952  15.923  0.00  0.00    +0.029 HD
ENDROOT
BRANCH   1  20
ATOM     18  C   UNL     1       6.010   3.900  13.312  0.00  0.00    +0.125 A 
ATOM     19  N   UNL     1       5.211   4.125  14.338  0.00  0.00    -0.216 NA
ATOM     20  C   UNL     1       6.020   4.784  15.233  0.00  0.00    +0.154 A 
ATOM     21  N   UNL     1       7.278   4.991  14.808  0.00  0.00    -0.157 NA
ATOM     22  N   UNL     1       7.247   4.417  13.593  0.00  0.00    -0.262 N 
ATOM     23  H   UNL     1       8.092   4.411  13.027  0.00  0.00    +0.190 HD
BRANCH  18  24
ATOM     24  C   UNL     1       5.682   3.218  12.035  0.00  0.00    +0.004 C 
ATOM     25  H   UNL     1       6.052   2.181  12.046  0.00  0.00    +0.034 HD
ATOM     26  H   UNL     1       6.196   3.738  11.216  0.00  0.00    +0.034 HD
BRANCH  24  27
ATOM     27  C   UNL     1       4.181   3.207  11.770  0.00  0.00    -0.058 C 
ATOM     28  H   UNL     1       3.790   2.187  11.839  0.00  0.00    +0.023 HD
ATOM     29  H   UNL     1       3.645   3.823  12.499  0.00  0.00    +0.023 HD
ATOM     30  H   UNL     1       3.953   3.589  10.766  0.00  0.00    +0.023 HD
ENDBRANCH  24  27
ENDBRANCH  18  24
ENDBRANCH   1  20
BRANCH   5  31
ATOM     31  C   UNL     1       1.950   8.063  18.820  0.00  0.00    +0.148 A 
ATOM     32  C   UNL     1       2.660   9.045  18.092  0.00  0.00    -0.008 A 
ATOM     33  C   UNL     1       1.952  10.222  18.230  0.00  0.00    +0.043 A 
ATOM     34  N   UNL     1       0.815   9.899  18.965  0.00  0.00    -0.236 N 
ATOM     35  N   UNL     1       0.868   8.608  19.395  0.00  0.00    -0.161 NA
ATOM     36  H   UNL     1       3.604   8.910  17.579  0.00  0.00    +0.066 HD
BRANCH  34  37
ATOM     37  C   UNL     1      -0.328  10.685  19.324  0.00  0.00    +0.066 A 
ATOM     38  C   UNL     1      -0.348  11.307  20.590  0.00  0.00    -0.034 A 
ATOM     39  C   UNL     1      -1.436  12.089  20.987  0.00  0.00    -0.024 A 
ATOM     40  C   UNL     1      -2.514  12.243  20.128  0.00  0.00    +0.124 A 
ATOM     41  F   UNL     1      -3.556  12.996  20.503  0.00  0.00    -0.205 F 
ATOM     42  C   UNL     1      -2.528  11.624  18.885  0.00  0.00    -0.024 A 
ATOM     43  C   UNL     1      -1.439  10.839  18.482  0.00  0.00    -0.034 A 
ATOM     44  H   UNL     1       0.492  11.209  21.279  0.00  0.00    +0.064 HD
ATOM     45  H   UNL     1      -1.442  12.575  21.957  0.00  0.00    +0.065 HD
ATOM     46  H   UNL     1      -3.391  11.746  18.237  0.00  0.00    +0.065 HD
ATOM     47  H   UNL     1      -1.519  10.343  17.523  0.00  0.00    +0.064 HD
ENDBRANCH  34  37
BRANCH  33  48
ATOM     48  C   UNL     1       2.357  11.570  17.758  0.00  0.00    -0.022 C 
ATOM     49  H   UNL     1       1.832  12.348  18.326  0.00  0.00    +0.029 HD
ATOM     50  H   UNL     1       3.430  11.730  17.909  0.00  0.00    +0.029 HD
ATOM     51  H   UNL     1       2.099  11.724  16.706  0.00  0.00    +0.029 HD
ENDBRANCH  33  48
ENDBRANCH   5  31
TORSDOF 6
ENDMDL
MODEL 6
REMARK VINA RESULT:    -6.983      4.089     10.595
REMARK INTER + INTRA:          -8.847
REMARK INTER:                  -8.941
REMARK INTRA:                   0.094
REMARK UNBOUND:                 0.178
REMARK  Name = 
REMARK  6 active torsions:
REMARK  status: ('A' for Active; 'I' for Inactive)
REMARK    1  A    between atoms: C_1  and  C_2
REMARK    2  A    between atoms: C_2  and  C_3
REMARK    3  A    between atoms: C_5  and  C_6
REMARK    4  A    between atoms: C_10  and  C_12
REMARK    5  A    between atoms: C_14  and  C_15
REMARK    6  A    between atoms: N_16  and  C_17
REMARK                            x       y       z     vdW  Elec       q    Type
REMARK                         _______ _______ _______ _____ _____    ______ ____
ROOT
ATOM      1  C   UNL     1      -1.033  12.480  20.922  0.00  0.00    +0.024 C 
ATOM      2  C   UNL     1      -0.850  12.811  19.433  0.00  0.00    -0.027 C 
ATOM      3  C   UNL     1       0.598  12.620  18.992  0.00  0.00    +0.016 C 
ATOM      4  N   UNL     1       1.067  11.286  19.344  0.00  0.00    -0.296 N 
ATOM      5  C   UNL     1       1.834  10.575  18.408  0.00  0.00    +0.267 C 
ATOM      6  O   UNL     1       2.286  11.129  17.401  0.00  0.00    -0.268 OA
ATOM      7  C   UNL     1       0.959  10.949  20.762  0.00  0.00    +0.016 C 
ATOM      8  C   UNL     1      -0.486  11.075  21.233  0.00  0.00    -0.027 C 
ATOM      9  H   UNL     1      -0.440  13.201  21.502  0.00  0.00    +0.038 HD
ATOM     10  H   UNL     1      -1.498  12.161  18.829  0.00  0.00    +0.029 HD
ATOM     11  H   UNL     1      -1.164  13.843  19.229  0.00  0.00    +0.029 HD
ATOM     12  H   UNL     1       0.671  12.790  17.913  0.00  0.00    +0.046 HD
ATOM     13  H   UNL     1       1.256  13.347  19.485  0.00  0.00    +0.046 HD
ATOM     14  H   UNL     1       1.364   9.967  21.006  0.00  0.00    +0.046 HD
ATOM     15  H   UNL     1       1.590  11.667  21.305  0.00  0.00    +0.046 HD
ATOM     16  H   UNL     1      -0.544  10.878  22.310  0.00  0.00    +0.029 HD
ATOM     17  H   UNL     1      -1.095  10.309  20.735  0.00  0.00    +0.029 HD
ENDROOT
BRANCH   1  20
ATOM     18  C   UNL     1      -4.172  12.832  22.553  0.00  0.00    +0.125 A 
ATOM     19  N   UNL     1      -2.855  12.810  22.629  0.00  0.00    -0.216 NA
ATOM     20  C   UNL     1      -2.464  12.631  21.323  0.00  0.00    +0.154 A 
ATOM     21  N   UNL     1      -3.473  12.555  20.439  0.00  0.00    -0.157 NA
ATOM     22  N   UNL     1      -4.543  12.677  21.243  0.00  0.00    -0.262 N 
ATOM     23  H   UNL     1      -5.474  12.642  20.837  0.00  0.00    +0.190 HD
BRANCH  18  24
ATOM     24  C   UNL     1      -5.146  13.002  23.661  0.00  0.00    +0.004 C 
ATOM     25  H   UNL     1      -6.119  12.567  23.389  0.00  0.00    +0.034 HD
ATOM     26  H   UNL     1      -5.303  14.075  23.829  0.00  0.00    +0.034 HD
BRANCH  24  27
ATOM     27  C   UNL     1      -4.653  12.351  24.949  0.00  0.00    -0.058 C 
ATOM     28  H   UNL     1      -5.493  11.918  25.502  0.00  0.00    +0.023 HD
ATOM     29  H   UNL     1      -3.938  11.549  24.741  0.00  0.00    +0.023 HD
ATOM     30  H   UNL     1      -4.163  13.086  25.601  0.00  0.00    +0.023 HD
ENDBRANCH  24  27
ENDBRANCH  18  24
ENDBRANCH   1  20
BRANCH   5  31
ATOM     31  C   UNL     1       2.067   9.128  18.605  0.00  0.00    +0.148 A 
ATOM     32  C   UNL     1       1.552   8.354  19.671  0.00  0.00    -0.008 A 
ATOM     33  C   UNL     1       2.103   7.094  19.540  0.00  0.00    +0.043 A 
ATOM     34  N   UNL     1       2.861   7.129  18.373  0.00  0.00    -0.236 N 
ATOM     35  N   UNL     1       2.906   8.391  17.864  0.00  0.00    -0.161 NA
ATOM     36  H   UNL     1       0.903   8.700  20.465  0.00  0.00    +0.066 HD
BRANCH  34  37
ATOM     37  C   UNL     1       3.570   6.094  17.680  0.00  0.00    +0.066 A 
ATOM     38  C   UNL     1       4.716   6.445  16.935  0.00  0.00    -0.034 A 
ATOM     39  C   UNL     1       5.447   5.474  16.246  0.00  0.00    -0.024 A 
ATOM     40  C   UNL     1       5.031   4.151  16.286  0.00  0.00    +0.124 A 
ATOM     41  F   UNL     1       5.732   3.217  15.631  0.00  0.00    -0.205 F 
ATOM     42  C   UNL     1       3.895   3.784  16.995  0.00  0.00    -0.024 A 
ATOM     43  C   UNL     1       3.159   4.754  17.689  0.00  0.00    -0.034 A 
ATOM     44  H   UNL     1       5.069   7.477  16.896  0.00  0.00    +0.064 HD
ATOM     45  H   UNL     1       6.334   5.746  15.683  0.00  0.00    +0.065 HD
ATOM     46  H   UNL     1       3.580   2.745  16.999  0.00  0.00    +0.065 HD
ATOM     47  H   UNL     1       2.257   4.423  18.190  0.00  0.00    +0.064 HD
ENDBRANCH  34  37
BRANCH  33  48
ATOM     48  C   UNL     1       1.974   5.959  20.488  0.00  0.00    -0.022 C 
ATOM     49  H   UNL     1       2.613   6.119  21.366  0.00  0.00    +0.029 HD
ATOM     50  H   UNL     1       0.945   5.868  20.851  0.00  0.00    +0.029 HD
ATOM     51  H   UNL     1       2.297   5.016  20.035  0.00  0.00    +0.029 HD
ENDBRANCH  33  48
ENDBRANCH   5  31
TORSDOF 6
ENDMDL
MODEL 7
REMARK VINA RESULT:    -6.846      3.596      5.327
REMARK INTER + INTRA:          -8.669
REMARK INTER:                  -8.150
REMARK INTRA:                  -0.519
REMARK UNBOUND:                 0.178
REMARK  Name = 
REMARK  6 active torsions:
REMARK  status: ('A' for Active; 'I' for Inactive)
REMARK    1  A    between atoms: C_1  and  C_2
REMARK    2  A    between atoms: C_2  and  C_3
REMARK    3  A    between atoms: C_5  and  C_6
REMARK    4  A    between atoms: C_10  and  C_12
REMARK    5  A    between atoms: C_14  and  C_15
REMARK    6  A    between atoms: N_16  and  C_17
REMARK                            x       y       z     vdW  Elec       q    Type
REMARK                         _______ _______ _______ _____ _____    ______ ____
ROOT
ATOM      1  C   UNL     1       3.026   6.633  19.096  0.00  0.00    +0.024 C 
ATOM      2  C   UNL     1       2.203   6.162  20.305  0.00  0.00    -0.027 C 
ATOM      3  C   UNL     1       1.894   7.317  21.254  0.00  0.00    +0.016 C 
ATOM      4  N   UNL     1       1.272   8.419  20.532  0.00  0.00    -0.296 N 
ATOM      5  C   UNL     1       0.184   9.080  21.122  0.00  0.00    +0.267 C 
ATOM      6  O   UNL     1      -0.114   8.887  22.305  0.00  0.00    -0.268 OA
ATOM      7  C   UNL     1       2.048   8.932  19.404  0.00  0.00    +0.016 C 
ATOM      8  C   UNL     1       2.334   7.819  18.401  0.00  0.00    -0.027 C 
ATOM      9  H   UNL     1       3.997   6.989  19.469  0.00  0.00    +0.038 HD
ATOM     10  H   UNL     1       1.259   5.721  19.958  0.00  0.00    +0.029 HD
ATOM     11  H   UNL     1       2.738   5.373  20.848  0.00  0.00    +0.029 HD
ATOM     12  H   UNL     1       1.244   6.957  22.058  0.00  0.00    +0.046 HD
ATOM     13  H   UNL     1       2.813   7.697  21.719  0.00  0.00    +0.046 HD
ATOM     14  H   UNL     1       1.585   9.788  18.914  0.00  0.00    +0.046 HD
ATOM     15  H   UNL     1       2.993   9.310  19.818  0.00  0.00    +0.046 HD
ATOM     16  H   UNL     1       2.966   8.203  17.591  0.00  0.00    +0.029 HD
ATOM     17  H   UNL     1       1.389   7.495  17.944  0.00  0.00    +0.029 HD
ENDROOT
BRANCH   1  20
ATOM     18  C   UNL     1       4.240   4.298  16.707  0.00  0.00    +0.125 A 
ATOM     19  N   UNL     1       4.447   5.373  17.442  0.00  0.00    -0.216 NA
ATOM     20  C   UNL     1       3.281   5.498  18.159  0.00  0.00    +0.154 A 
ATOM     21  N   UNL     1       2.365   4.545  17.914  0.00  0.00    -0.157 NA
ATOM     22  N   UNL     1       2.994   3.802  16.988  0.00  0.00    -0.262 N 
ATOM     23  H   UNL     1       2.519   2.992  16.597  0.00  0.00    +0.190 HD
BRANCH  18  24
ATOM     24  C   UNL     1       5.165   3.671  15.728  0.00  0.00    +0.004 C 
ATOM     25  H   UNL     1       4.651   2.876  15.168  0.00  0.00    +0.034 HD
ATOM     26  H   UNL     1       5.992   3.202  16.276  0.00  0.00    +0.034 HD
BRANCH  24  27
ATOM     27  C   UNL     1       5.721   4.694  14.744  0.00  0.00    -0.058 C 
ATOM     28  H   UNL     1       6.009   4.204  13.808  0.00  0.00    +0.023 HD
ATOM     29  H   UNL     1       4.978   5.462  14.506  0.00  0.00    +0.023 HD
ATOM     30  H   UNL     1       6.610   5.192  15.151  0.00  0.00    +0.023 HD
ENDBRANCH  24  27
ENDBRANCH  18  24
ENDBRANCH   1  20
BRANCH   5  31
ATOM     31  C   UNL     1      -0.650   9.986  20.303  0.00  0.00    +0.148 A 
ATOM     32  C   UNL     1      -1.013  11.307  20.654  0.00  0.00    -0.008 A 
ATOM     33  C   UNL     1      -1.883  11.746  19.675  0.00  0.00    +0.043 A 
ATOM     34  N   UNL     1      -1.955  10.717  18.740  0.00  0.00    -0.236 N 
ATOM     35  N   UNL     1      -1.275   9.621  19.175  0.00  0.00    -0.161 NA
ATOM     36  H   UNL     1      -0.715  11.842  21.547  0.00  0.00    +0.066 HD
BRANCH  34  37
ATOM     37  C   UNL     1      -2.612  10.646  17.469  0.00  0.00    +0.066 A 
ATOM     38  C   UNL     1      -2.039   9.847  16.458  0.00  0.00    -0.034 A 
ATOM     39  C   UNL     1      -2.642   9.738  15.202  0.00  0.00    -0.024 A 
ATOM     40  C   UNL     1      -3.814  10.435  14.946  0.00  0.00    +0.124 A 
ATOM     41  F   UNL     1      -4.398  10.329  13.745  0.00  0.00    -0.205 F 
ATOM     42  C   UNL     1      -4.387  11.245  15.918  0.00  0.00    -0.024 A 
ATOM     43  C   UNL     1      -3.786  11.357  17.179  0.00  0.00    -0.034 A 
ATOM     44  H   UNL     1      -1.124   9.281  16.638  0.00  0.00    +0.064 HD
ATOM     45  H   UNL     1      -2.204   9.114  14.431  0.00  0.00    +0.065 HD
ATOM     46  H   UNL     1      -5.295  11.794  15.688  0.00  0.00    +0.065 HD
ATOM     47  H   UNL     1      -4.249  12.035  17.886  0.00  0.00    +0.064 HD
ENDBRANCH  34  37
BRANCH  33  48
ATOM     48  C   UNL     1      -2.643  13.021  19.662  0.00  0.00    -0.022 C 
ATOM     49  H   UNL     1      -2.217  13.729  20.384  0.00  0.00    +0.029 HD
ATOM     50  H   UNL     1      -2.593  13.496  18.677  0.00  0.00    +0.029 HD
ATOM     51  H   UNL     1      -3.688  12.870  19.952  0.00  0.00    +0.029 HD
ENDBRANCH  33  48
ENDBRANCH   5  31
TORSDOF 6
ENDMDL
MODEL 8
REMARK VINA RESULT:    -6.829      3.771      5.825
REMARK INTER + INTRA:          -8.647
REMARK INTER:                  -8.336
REMARK INTRA:                  -0.311
REMARK UNBOUND:                 0.178
REMARK  Name = 
REMARK  6 active torsions:
REMARK  status: ('A' for Active; 'I' for Inactive)
REMARK    1  A    between atoms: C_1  and  C_2
REMARK    2  A    between atoms: C_2  and  C_3
REMARK    3  A    between atoms: C_5  and  C_6
REMARK    4  A    between atoms: C_10  and  C_12
REMARK    5  A    between atoms: C_14  and  C_15
REMARK    6  A    between atoms: N_16  and  C_17
REMARK                            x       y       z     vdW  Elec       q    Type
REMARK                         _______ _______ _______ _____ _____    ______ ____
ROOT
ATOM      1  C   UNL     1       2.802   7.004  19.193  0.00  0.00    +0.024 C 
ATOM      2  C   UNL     1       2.133   6.709  20.544  0.00  0.00    -0.027 C 
ATOM      3  C   UNL     1       1.888   7.990  21.337  0.00  0.00    +0.016 C 
ATOM      4  N   UNL     1       1.153   8.956  20.532  0.00  0.00    -0.296 N 
ATOM      5  C   UNL     1       0.113   9.680  21.135  0.00  0.00    +0.267 C 
ATOM      6  O   UNL     1      -0.048   9.666  22.359  0.00  0.00    -0.268 OA
ATOM      7  C   UNL     1       1.783   9.304  19.259  0.00  0.00    +0.016 C 
ATOM      8  C   UNL     1       1.997   8.056  18.409  0.00  0.00    -0.027 C 
ATOM      9  H   UNL     1       3.795   7.431  19.396  0.00  0.00    +0.038 HD
ATOM     10  H   UNL     1       1.173   6.203  20.376  0.00  0.00    +0.029 HD
ATOM     11  H   UNL     1       2.751   6.023  21.136  0.00  0.00    +0.029 HD
ATOM     12  H   UNL     1       1.342   7.746  22.254  0.00  0.00    +0.046 HD
ATOM     13  H   UNL     1       2.838   8.454  21.633  0.00  0.00    +0.046 HD
ATOM     14  H   UNL     1       1.240  10.066  18.700  0.00  0.00    +0.046 HD
ATOM     15  H   UNL     1       2.754   9.759  19.502  0.00  0.00    +0.046 HD
ATOM     16  H   UNL     1       2.523   8.322  17.485  0.00  0.00    +0.029 HD
ATOM     17  H   UNL     1       1.021   7.648  18.116  0.00  0.00    +0.029 HD
ENDROOT
BRANCH   1  20
ATOM     18  C   UNL     1       2.846   3.709  17.859  0.00  0.00    +0.125 A 
ATOM     19  N   UNL     1       2.361   4.566  18.737  0.00  0.00    -0.216 NA
ATOM     20  C   UNL     1       2.994   5.743  18.414  0.00  0.00    +0.154 A 
ATOM     21  N   UNL     1       3.838   5.661  17.371  0.00  0.00    -0.157 NA
ATOM     22  N   UNL     1       3.731   4.362  17.043  0.00  0.00    -0.262 N 
ATOM     23  H   UNL     1       4.284   4.000  16.270  0.00  0.00    +0.190 HD
BRANCH  18  24
ATOM     24  C   UNL     1       2.521   2.266  17.720  0.00  0.00    +0.004 C 
ATOM     25  H   UNL     1       2.505   1.976  16.658  0.00  0.00    +0.034 HD
ATOM     26  H   UNL     1       1.515   2.092  18.122  0.00  0.00    +0.034 HD
BRANCH  24  27
ATOM     27  C   UNL     1       3.525   1.389  18.460  0.00  0.00    -0.058 C 
ATOM     28  H   UNL     1       3.088   0.407  18.671  0.00  0.00    +0.023 HD
ATOM     29  H   UNL     1       4.431   1.233  17.866  0.00  0.00    +0.023 HD
ATOM     30  H   UNL     1       3.816   1.842  19.417  0.00  0.00    +0.023 HD
ENDBRANCH  24  27
ENDBRANCH  18  24
ENDBRANCH   1  20
BRANCH   5  31
ATOM     31  C   UNL     1      -0.837  10.434  20.287  0.00  0.00    +0.148 A 
ATOM     32  C   UNL     1      -1.447  11.662  20.633  0.00  0.00    -0.008 A 
ATOM     33  C   UNL     1      -2.341  11.953  19.621  0.00  0.00    +0.043 A 
ATOM     34  N   UNL     1      -2.188  10.943  18.676  0.00  0.00    -0.236 N 
ATOM     35  N   UNL     1      -1.339   9.980  19.130  0.00  0.00    -0.161 NA
ATOM     36  H   UNL     1      -1.287  12.228  21.542  0.00  0.00    +0.066 HD
BRANCH  34  37
ATOM     37  C   UNL     1      -2.768  10.774  17.377  0.00  0.00    +0.066 A 
ATOM     38  C   UNL     1      -2.132   9.909  16.461  0.00  0.00    -0.034 A 
ATOM     39  C   UNL     1      -2.660   9.705  15.184  0.00  0.00    -0.024 A 
ATOM     40  C   UNL     1      -3.818  10.371  14.809  0.00  0.00    +0.124 A 
ATOM     41  F   UNL     1      -4.329  10.174  13.588  0.00  0.00    -0.205 F 
ATOM     42  C   UNL     1      -4.451  11.244  15.685  0.00  0.00    -0.024 A 
ATOM     43  C   UNL     1      -3.926  11.452  16.968  0.00  0.00    -0.034 A 
ATOM     44  H   UNL     1      -1.227   9.366  16.735  0.00  0.00    +0.064 HD
ATOM     45  H   UNL     1      -2.174   9.030  14.487  0.00  0.00    +0.065 HD
ATOM     46  H   UNL     1      -5.347  11.767  15.363  0.00  0.00    +0.065 HD
ATOM     47  H   UNL     1      -4.433  12.174  17.595  0.00  0.00    +0.064 HD
ENDBRANCH  34  37
BRANCH  33  48
ATOM     48  C   UNL     1      -3.318  13.069  19.585  0.00  0.00    -0.022 C 
ATOM     49  H   UNL     1      -2.956  13.875  18.934  0.00  0.00    +0.029 HD
ATOM     50  H   UNL     1      -4.279  12.735  19.179  0.00  0.00    +0.029 HD
ATOM     51  H   UNL     1      -3.463  13.511  20.576  0.00  0.00    +0.029 HD
ENDBRANCH  33  48
ENDBRANCH   5  31
TORSDOF 6
ENDMDL
MODEL 9
REMARK VINA RESULT:    -6.531      3.784      8.987
REMARK INTER + INTRA:          -8.262
REMARK INTER:                  -7.468
REMARK INTRA:                  -0.794
REMARK UNBOUND:                 0.178
REMARK  Name = 
REMARK  6 active torsions:
REMARK  status: ('A' for Active; 'I' for Inactive)
REMARK    1  A    between atoms: C_1  and  C_2
REMARK    2  A    between atoms: C_2  and  C_3
REMARK    3  A    between atoms: C_5  and  C_6
REMARK    4  A    between atoms: C_10  and  C_12
REMARK    5  A    between atoms: C_14  and  C_15
REMARK    6  A    between atoms: N_16  and  C_17
REMARK                            x       y       z     vdW  Elec       q    Type
REMARK                         _______ _______ _______ _____ _____    ______ ____
ROOT
ATOM      1  C   UNL     1       1.159   9.825  19.106  0.00  0.00    +0.024 C 
ATOM      2  C   UNL     1       1.619   9.460  20.525  0.00  0.00    -0.027 C 
ATOM      3  C   UNL     1       1.167   8.054  20.914  0.00  0.00    +0.016 C 
ATOM      4  N   UNL     1       1.588   7.087  19.908  0.00  0.00    -0.296 N 
ATOM      5  C   UNL     1       2.110   5.857  20.336  0.00  0.00    +0.267 C 
ATOM      6  O   UNL     1       2.025   5.504  21.517  0.00  0.00    -0.268 OA
ATOM      7  C   UNL     1       1.126   7.371  18.550  0.00  0.00    +0.016 C 
ATOM      8  C   UNL     1       1.602   8.748  18.100  0.00  0.00    -0.027 C 
ATOM      9  H   UNL     1       0.059   9.847  19.104  0.00  0.00    +0.038 HD
ATOM     10  H   UNL     1       2.715   9.513  20.582  0.00  0.00    +0.029 HD
ATOM     11  H   UNL     1       1.231  10.185  21.252  0.00  0.00    +0.029 HD
ATOM     12  H   UNL     1       1.580   7.804  21.896  0.00  0.00    +0.046 HD
ATOM     13  H   UNL     1       0.074   8.003  20.992  0.00  0.00    +0.046 HD
ATOM     14  H   UNL     1       1.410   6.606  17.828  0.00  0.00    +0.046 HD
ATOM     15  H   UNL     1       0.028   7.349  18.580  0.00  0.00    +0.046 HD
ATOM     16  H   UNL     1       1.201   8.972  17.105  0.00  0.00    +0.029 HD
ATOM     17  H   UNL     1       2.696   8.738  18.008  0.00  0.00    +0.029 HD
ENDROOT
BRANCH   1  20
ATOM     18  C   UNL     1       1.815  13.293  18.676  0.00  0.00    +0.125 A 
ATOM     19  N   UNL     1       1.194  12.333  19.336  0.00  0.00    -0.216 NA
ATOM     20  C   UNL     1       1.646  11.186  18.728  0.00  0.00    +0.154 A 
ATOM     21  N   UNL     1       2.528  11.386  17.733  0.00  0.00    -0.157 NA
ATOM     22  N   UNL     1       2.612  12.727  17.716  0.00  0.00    -0.262 N 
ATOM     23  H   UNL     1       3.216  13.176  17.033  0.00  0.00    +0.190 HD
BRANCH  18  24
ATOM     24  C   UNL     1       1.718  14.759  18.895  0.00  0.00    +0.004 C 
ATOM     25  H   UNL     1       2.320  15.300  18.150  0.00  0.00    +0.034 HD
ATOM     26  H   UNL     1       2.132  14.995  19.883  0.00  0.00    +0.034 HD
BRANCH  24  27
ATOM     27  C   UNL     1       0.275  15.245  18.818  0.00  0.00    -0.058 C 
ATOM     28  H   UNL     1       0.115  16.073  19.516  0.00  0.00    +0.023 HD
ATOM     29  H   UNL     1       0.029  15.601  17.812  0.00  0.00    +0.023 HD
ATOM     30  H   UNL     1      -0.428  14.443  19.079  0.00  0.00    +0.023 HD
ENDBRANCH  24  27
ENDBRANCH  18  24
ENDBRANCH   1  20
BRANCH   5  31
ATOM     31  C   UNL     1       2.815   4.988  19.369  0.00  0.00    +0.148 A 
ATOM     32  C   UNL     1       2.626   3.594  19.230  0.00  0.00    -0.008 A 
ATOM     33  C   UNL     1       3.557   3.164  18.305  0.00  0.00    +0.043 A 
ATOM     34  N   UNL     1       4.217   4.308  17.868  0.00  0.00    -0.236 N 
ATOM     35  N   UNL     1       3.823   5.397  18.584  0.00  0.00    -0.161 NA
ATOM     36  H   UNL     1       1.928   2.979  19.785  0.00  0.00    +0.066 HD
BRANCH  34  37
ATOM     37  C   UNL     1       5.202   4.493  16.844  0.00  0.00    +0.066 A 
ATOM     38  C   UNL     1       4.801   4.386  15.496  0.00  0.00    -0.034 A 
ATOM     39  C   UNL     1       5.720   4.564  14.459  0.00  0.00    -0.024 A 
ATOM     40  C   UNL     1       7.046   4.836  14.762  0.00  0.00    +0.124 A 
ATOM     41  F   UNL     1       7.929   5.011  13.770  0.00  0.00    -0.205 F 
ATOM     42  C   UNL     1       7.470   4.925  16.081  0.00  0.00    -0.024 A 
ATOM     43  C   UNL     1       6.552   4.749  17.125  0.00  0.00    -0.034 A 
ATOM     44  H   UNL     1       3.762   4.183  15.231  0.00  0.00    +0.064 HD
ATOM     45  H   UNL     1       5.405   4.492  13.423  0.00  0.00    +0.065 HD
ATOM     46  H   UNL     1       8.517   5.123  16.294  0.00  0.00    +0.065 HD
ATOM     47  H   UNL     1       6.942   4.786  18.135  0.00  0.00    +0.064 HD
ENDBRANCH  34  37
BRANCH  33  48
ATOM     48  C   UNL     1       3.846   1.761  17.914  0.00  0.00    -0.022 C 
ATOM     49  H   UNL     1       4.473   1.736  17.014  0.00  0.00    +0.029 HD
ATOM     50  H   UNL     1       4.397   1.241  18.705  0.00  0.00    +0.029 HD
ATOM     51  H   UNL     1       2.931   1.213  17.672  0.00  0.00    +0.029 HD
ENDBRANCH  33  48
ENDBRANCH   5  31
TORSDOF 6
ENDMDL
MODEL 10
REMARK VINA RESULT:    -6.453      2.692      4.601
REMARK INTER + INTRA:          -8.161
REMARK INTER:                  -7.843
REMARK INTRA:                  -0.319
REMARK UNBOUND:                 0.178
REMARK  Name = 
REMARK  6 active torsions:
REMARK  status: ('A' for Active; 'I' for Inactive)
REMARK    1  A    between atoms: C_1  and  C_2
REMARK    2  A    between atoms: C_2  and  C_3
REMARK    3  A    between atoms: C_5  and  C_6
REMARK    4  A    between atoms: C_10  and  C_12
REMARK    5  A    between atoms: C_14  and  C_15
REMARK    6  A    between atoms: N_16  and  C_17
REMARK                            x       y       z     vdW  Elec       q    Type
REMARK                         _______ _______ _______ _____ _____    ______ ____
ROOT
ATOM      1  C   UNL     1       3.091   6.613  18.307  0.00  0.00    +0.024 C 
ATOM      2  C   UNL     1       3.385   7.969  17.649  0.00  0.00    -0.027 C 
ATOM      3  C   UNL     1       2.115   8.800  17.490  0.00  0.00    +0.016 C 
ATOM      4  N   UNL     1       1.421   8.920  18.765  0.00  0.00    -0.296 N 
ATOM      5  C   UNL     1       0.884  10.167  19.123  0.00  0.00    +0.267 C 
ATOM      6  O   UNL     1       0.808  11.087  18.304  0.00  0.00    -0.268 OA
ATOM      7  C   UNL     1       1.075   7.649  19.401  0.00  0.00    +0.016 C 
ATOM      8  C   UNL     1       2.326   6.807  19.628  0.00  0.00    -0.027 C 
ATOM      9  H   UNL     1       2.439   6.044  17.628  0.00  0.00    +0.038 HD
ATOM     10  H   UNL     1       4.104   8.528  18.264  0.00  0.00    +0.029 HD
ATOM     11  H   UNL     1       3.856   7.825  16.669  0.00  0.00    +0.029 HD
ATOM     12  H   UNL     1       2.378   9.785  17.091  0.00  0.00    +0.046 HD
ATOM     13  H   UNL     1       1.426   8.329  16.776  0.00  0.00    +0.046 HD
ATOM     14  H   UNL     1       0.511   7.767  20.326  0.00  0.00    +0.046 HD
ATOM     15  H   UNL     1       0.396   7.127  18.711  0.00  0.00    +0.046 HD
ATOM     16  H   UNL     1       2.047   5.835  20.050  0.00  0.00    +0.029 HD
ATOM     17  H   UNL     1       2.965   7.306  20.369  0.00  0.00    +0.029 HD
ENDROOT
BRANCH   1  20
ATOM     18  C   UNL     1       6.240   4.980  18.075  0.00  0.00    +0.125 A 
ATOM     19  N   UNL     1       5.364   5.823  17.564  0.00  0.00    -0.216 NA
ATOM     20  C   UNL     1       4.352   5.833  18.493  0.00  0.00    +0.154 A 
ATOM     21  N   UNL     1       4.563   5.048  19.564  0.00  0.00    -0.157 NA
ATOM     22  N   UNL     1       5.761   4.514  19.271  0.00  0.00    -0.262 N 
ATOM     23  H   UNL     1       6.178   3.850  19.919  0.00  0.00    +0.190 HD
BRANCH  18  24
ATOM     24  C   UNL     1       7.549   4.569  17.507  0.00  0.00    +0.004 C 
ATOM     25  H   UNL     1       7.807   3.549  17.831  0.00  0.00    +0.034 HD
ATOM     26  H   UNL     1       8.326   5.241  17.892  0.00  0.00    +0.034 HD
BRANCH  24  27
ATOM     27  C   UNL     1       7.542   4.619  15.983  0.00  0.00    -0.058 C 
ATOM     28  H   UNL     1       6.722   5.252  15.627  0.00  0.00    +0.023 HD
ATOM     29  H   UNL     1       8.478   5.032  15.594  0.00  0.00    +0.023 HD
ATOM     30  H   UNL     1       7.405   3.618  15.554  0.00  0.00    +0.023 HD
ENDBRANCH  24  27
ENDBRANCH  18  24
ENDBRANCH   1  20
BRANCH   5  31
ATOM     31  C   UNL     1       0.446  10.398  20.517  0.00  0.00    +0.148 A 
ATOM     32  C   UNL     1       0.808   9.606  21.631  0.00  0.00    -0.008 A 
ATOM     33  C   UNL     1       0.094  10.096  22.707  0.00  0.00    +0.043 A 
ATOM     34  N   UNL     1      -0.608  11.199  22.228  0.00  0.00    -0.236 N 
ATOM     35  N   UNL     1      -0.458  11.319  20.881  0.00  0.00    -0.161 NA
ATOM     36  H   UNL     1       1.469   8.748  21.626  0.00  0.00    +0.066 HD
BRANCH  34  37
ATOM     37  C   UNL     1      -1.426  12.160  22.906  0.00  0.00    +0.066 A 
ATOM     38  C   UNL     1      -0.901  13.449  23.136  0.00  0.00    -0.034 A 
ATOM     39  C   UNL     1      -1.659  14.425  23.787  0.00  0.00    -0.024 A 
ATOM     40  C   UNL     1      -2.939  14.117  24.223  0.00  0.00    +0.124 A 
ATOM     41  F   UNL     1      -3.671  15.052  24.843  0.00  0.00    -0.205 F 
ATOM     42  C   UNL     1      -3.471  12.849  24.027  0.00  0.00    -0.024 A 
ATOM     43  C   UNL     1      -2.715  11.866  23.374  0.00  0.00    -0.034 A 
ATOM     44  H   UNL     1       0.099  13.720  22.794  0.00  0.00    +0.064 HD
ATOM     45  H   UNL     1      -1.255  15.419  23.952  0.00  0.00    +0.065 HD
ATOM     46  H   UNL     1      -4.469  12.626  24.392  0.00  0.00    +0.065 HD
ATOM     47  H   UNL     1      -3.159  10.882  23.286  0.00  0.00    +0.064 HD
ENDBRANCH  34  37
BRANCH  33  48
ATOM     48  C   UNL     1       0.028   9.520  24.074  0.00  0.00    -0.022 C 
ATOM     49  H   UNL     1       0.234  10.292  24.825  0.00  0.00    +0.029 HD
ATOM     50  H   UNL     1      -0.971   9.125  24.284  0.00  0.00    +0.029 HD
ATOM     51  H   UNL     1       0.779   8.737  24.218  0.00  0.00    +0.029 HD
ENDBRANCH  33  48
ENDBRANCH   5  31
TORSDOF 6
ENDMDL
MODEL 11
REMARK VINA RESULT:    -6.429      5.783      8.919
REMARK INTER + INTRA:          -8.131
REMARK INTER:                  -7.255
REMARK INTRA:                  -0.876
REMARK UNBOUND:                 0.178
REMARK  Name = 
REMARK  6 active torsions:
REMARK  status: ('A' for Active; 'I' for Inactive)
REMARK    1  A    between atoms: C_1  and  C_2
REMARK    2  A    between atoms: C_2  and  C_3
REMARK    3  A    between atoms: C_5  and  C_6
REMARK    4  A    between atoms: C_10  and  C_12
REMARK    5  A    between atoms: C_14  and  C_15
REMARK    6  A    between atoms: N_16  and  C_17
REMARK                            x       y       z     vdW  Elec       q    Type
REMARK                         _______ _______ _______ _____ _____    ______ ____
ROOT
ATOM      1  C   UNL     1       4.928  15.254  18.860  0.00  0.00    +0.024 C 
ATOM      2  C   UNL     1       4.570  15.257  20.354  0.00  0.00    -0.027 C 
ATOM      3  C   UNL     1       3.059  15.262  20.566  0.00  0.00    +0.016 C 
ATOM      4  N   UNL     1       2.436  14.170  19.830  0.00  0.00    -0.296 N 
ATOM      5  C   UNL     1       1.423  13.429  20.458  0.00  0.00    +0.267 C 
ATOM      6  O   UNL     1       0.917  13.810  21.518  0.00  0.00    -0.268 OA
ATOM      7  C   UNL     1       2.709  14.161  18.394  0.00  0.00    +0.016 C 
ATOM      8  C   UNL     1       4.211  14.101  18.135  0.00  0.00    -0.027 C 
ATOM      9  H   UNL     1       4.563  16.196  18.425  0.00  0.00    +0.038 HD
ATOM     10  H   UNL     1       4.996  14.366  20.836  0.00  0.00    +0.029 HD
ATOM     11  H   UNL     1       5.015  16.127  20.853  0.00  0.00    +0.029 HD
ATOM     12  H   UNL     1       2.846  15.186  21.638  0.00  0.00    +0.046 HD
ATOM     13  H   UNL     1       2.617  16.202  20.209  0.00  0.00    +0.046 HD
ATOM     14  H   UNL     1       2.190  13.365  17.859  0.00  0.00    +0.046 HD
ATOM     15  H   UNL     1       2.300  15.097  17.990  0.00  0.00    +0.046 HD
ATOM     16  H   UNL     1       4.404  14.154  17.057  0.00  0.00    +0.029 HD
ATOM     17  H   UNL     1       4.597  13.133  18.482  0.00  0.00    +0.029 HD
ENDROOT
BRANCH   1  20
ATOM     18  C   UNL     1       8.471  15.209  19.138  0.00  0.00    +0.125 A 
ATOM     19  N   UNL     1       7.291  15.186  19.727  0.00  0.00    -0.216 NA
ATOM     20  C   UNL     1       6.409  15.205  18.673  0.00  0.00    +0.154 A 
ATOM     21  N   UNL     1       6.984  15.224  17.458  0.00  0.00    -0.157 NA
ATOM     22  N   UNL     1       8.289  15.233  17.780  0.00  0.00    -0.262 N 
ATOM     23  H   UNL     1       8.981  15.261  17.037  0.00  0.00    +0.190 HD
BRANCH  18  24
ATOM     24  C   UNL     1       9.811  15.200  19.780  0.00  0.00    +0.004 C 
ATOM     25  H   UNL     1      10.090  16.215  20.102  0.00  0.00    +0.034 HD
ATOM     26  H   UNL     1      10.553  14.877  19.039  0.00  0.00    +0.034 HD
BRANCH  24  27
ATOM     27  C   UNL     1       9.853  14.266  20.984  0.00  0.00    -0.058 C 
ATOM     28  H   UNL     1      10.233  14.797  21.863  0.00  0.00    +0.023 HD
ATOM     29  H   UNL     1       8.856  13.885  21.226  0.00  0.00    +0.023 HD
ATOM     30  H   UNL     1      10.511  13.409  20.797  0.00  0.00    +0.023 HD
ENDBRANCH  24  27
ENDBRANCH  18  24
ENDBRANCH   1  20
BRANCH   5  31
ATOM     31  C   UNL     1       0.987  12.145  19.866  0.00  0.00    +0.148 A 
ATOM     32  C   UNL     1      -0.206  11.943  19.134  0.00  0.00    -0.008 A 
ATOM     33  C   UNL     1      -0.279  10.589  18.871  0.00  0.00    +0.043 A 
ATOM     34  N   UNL     1       0.893  10.038  19.381  0.00  0.00    -0.236 N 
ATOM     35  N   UNL     1       1.611  10.974  20.061  0.00  0.00    -0.161 NA
ATOM     36  H   UNL     1      -0.944  12.695  18.884  0.00  0.00    +0.066 HD
BRANCH  34  37
ATOM     37  C   UNL     1       1.415   8.706  19.309  0.00  0.00    +0.066 A 
ATOM     38  C   UNL     1       1.317   7.881  20.450  0.00  0.00    -0.034 A 
ATOM     39  C   UNL     1       1.806   6.572  20.431  0.00  0.00    -0.024 A 
ATOM     40  C   UNL     1       2.405   6.084  19.279  0.00  0.00    +0.124 A 
ATOM     41  F   UNL     1       2.869   4.828  19.256  0.00  0.00    -0.205 F 
ATOM     42  C   UNL     1       2.532   6.883  18.150  0.00  0.00    -0.024 A 
ATOM     43  C   UNL     1       2.043   8.197  18.164  0.00  0.00    -0.034 A 
ATOM     44  H   UNL     1       0.842   8.238  21.365  0.00  0.00    +0.064 HD
ATOM     45  H   UNL     1       1.718   5.938  21.307  0.00  0.00    +0.065 HD
ATOM     46  H   UNL     1       3.019   6.484  17.265  0.00  0.00    +0.065 HD
ATOM     47  H   UNL     1       2.206   8.791  17.273  0.00  0.00    +0.064 HD
ENDBRANCH  34  37
BRANCH  33  48
ATOM     48  C   UNL     1      -1.409   9.860  18.243  0.00  0.00    -0.022 C 
ATOM     49  H   UNL     1      -2.243  10.545  18.043  0.00  0.00    +0.029 HD
ATOM     50  H   UNL     1      -1.110   9.429  17.282  0.00  0.00    +0.029 HD
ATOM     51  H   UNL     1      -1.799   9.077  18.900  0.00  0.00    +0.029 HD
ENDBRANCH  33  48
ENDBRANCH   5  31
TORSDOF 6
ENDMDL
MODEL 12
REMARK VINA RESULT:    -6.215      5.646      9.224
REMARK INTER + INTRA:          -7.853
REMARK INTER:                  -6.976
REMARK INTRA:                  -0.878
REMARK UNBOUND:                 0.178
REMARK  Name = 
REMARK  6 active torsions:
REMARK  status: ('A' for Active; 'I' for Inactive)
REMARK    1  A    between atoms: C_1  and  C_2
REMARK    2  A    between atoms: C_2  and  C_3
REMARK    3  A    between atoms: C_5  and  C_6
REMARK    4  A    between atoms: C_10  and  C_12
REMARK    5  A    between atoms: C_14  and  C_15
REMARK    6  A    between atoms: N_16  and  C_17
REMARK                            x       y       z     vdW  Elec       q    Type
REMARK                         _______ _______ _______ _____ _____    ______ ____
ROOT
ATOM      1  C   UNL     1       4.532  15.267  20.852  0.00  0.00    +0.024 C 
ATOM      2  C   UNL     1       3.758  15.140  22.173  0.00  0.00    -0.027 C 
ATOM      3  C   UNL     1       2.250  15.188  21.943  0.00  0.00    +0.016 C 
ATOM      4  N   UNL     1       1.853  14.200  20.948  0.00  0.00    -0.296 N 
ATOM      5  C   UNL     1       0.693  13.444  21.178  0.00  0.00    +0.267 C 
ATOM      6  O   UNL     1      -0.093  13.742  22.082  0.00  0.00    -0.268 OA
ATOM      7  C   UNL     1       2.530  14.319  19.657  0.00  0.00    +0.016 C 
ATOM      8  C   UNL     1       4.042  14.221  19.836  0.00  0.00    -0.027 C 
ATOM      9  H   UNL     1       4.320  16.261  20.433  0.00  0.00    +0.038 HD
ATOM     10  H   UNL     1       4.016  14.190  22.660  0.00  0.00    +0.029 HD
ATOM     11  H   UNL     1       4.050  15.938  22.866  0.00  0.00    +0.029 HD
ATOM     12  H   UNL     1       1.735  15.017  22.894  0.00  0.00    +0.046 HD
ATOM     13  H   UNL     1       1.942  16.176  21.575  0.00  0.00    +0.046 HD
ATOM     14  H   UNL     1       2.178  13.601  18.916  0.00  0.00    +0.046 HD
ATOM     15  H   UNL     1       2.267  15.306  19.254  0.00  0.00    +0.046 HD
ATOM     16  H   UNL     1       4.539  14.370  18.870  0.00  0.00    +0.029 HD
ATOM     17  H   UNL     1       4.300  13.209  20.175  0.00  0.00    +0.029 HD
ENDROOT
BRANCH   1  20
ATOM     18  C   UNL     1       8.064  14.887  20.719  0.00  0.00    +0.125 A 
ATOM     19  N   UNL     1       6.912  14.969  20.083  0.00  0.00    -0.216 NA
ATOM     20  C   UNL     1       6.004  15.174  21.094  0.00  0.00    +0.154 A 
ATOM     21  N   UNL     1       6.538  15.237  22.326  0.00  0.00    -0.157 NA
ATOM     22  N   UNL     1       7.842  15.045  22.062  0.00  0.00    -0.262 N 
ATOM     23  H   UNL     1       8.505  15.030  22.832  0.00  0.00    +0.190 HD
BRANCH  18  24
ATOM     24  C   UNL     1       9.413  14.670  20.137  0.00  0.00    +0.004 C 
ATOM     25  H   UNL     1       9.957  13.898  20.702  0.00  0.00    +0.034 HD
ATOM     26  H   UNL     1       9.987  15.602  20.222  0.00  0.00    +0.034 HD
BRANCH  24  27
ATOM     27  C   UNL     1       9.335  14.252  18.673  0.00  0.00    -0.058 C 
ATOM     28  H   UNL     1       8.828  15.024  18.084  0.00  0.00    +0.023 HD
ATOM     29  H   UNL     1      10.332  14.106  18.247  0.00  0.00    +0.023 HD
ATOM     30  H   UNL     1       8.772  13.316  18.558  0.00  0.00    +0.023 HD
ENDBRANCH  24  27
ENDBRANCH  18  24
ENDBRANCH   1  20
BRANCH   5  31
ATOM     31  C   UNL     1       0.431  12.243  20.354  0.00  0.00    +0.148 A 
ATOM     32  C   UNL     1      -0.727  12.021  19.574  0.00  0.00    -0.008 A 
ATOM     33  C   UNL     1      -0.618  10.741  19.069  0.00  0.00    +0.043 A 
ATOM     34  N   UNL     1       0.620  10.267  19.494  0.00  0.00    -0.236 N 
ATOM     35  N   UNL     1       1.208  11.151  20.347  0.00  0.00    -0.161 NA
ATOM     36  H   UNL     1      -1.561  12.701  19.450  0.00  0.00    +0.066 HD
BRANCH  34  37
ATOM     37  C   UNL     1       1.317   9.052  19.192  0.00  0.00    +0.066 A 
ATOM     38  C   UNL     1       1.453   8.083  20.209  0.00  0.00    -0.034 A 
ATOM     39  C   UNL     1       2.118   6.879  19.965  0.00  0.00    -0.024 A 
ATOM     40  C   UNL     1       2.661   6.641  18.711  0.00  0.00    +0.124 A 
ATOM     41  F   UNL     1       3.295   5.485  18.473  0.00  0.00    -0.205 F 
ATOM     42  C   UNL     1       2.559   7.588  17.700  0.00  0.00    -0.024 A 
ATOM     43  C   UNL     1       1.892   8.797  17.939  0.00  0.00    -0.034 A 
ATOM     44  H   UNL     1       1.026   8.242  21.200  0.00  0.00    +0.064 HD
ATOM     45  H   UNL     1       2.211   6.131  20.746  0.00  0.00    +0.065 HD
ATOM     46  H   UNL     1       3.006   7.386  16.732  0.00  0.00    +0.065 HD
ATOM     47  H   UNL     1       1.878   9.519  17.132  0.00  0.00    +0.064 HD
ENDBRANCH  34  37
BRANCH  33  48
ATOM     48  C   UNL     1      -1.642   9.995  18.296  0.00  0.00    -0.022 C 
ATOM     49  H   UNL     1      -2.325  10.691  17.792  0.00  0.00    +0.029 HD
ATOM     50  H   UNL     1      -1.175   9.382  17.518  0.00  0.00    +0.029 HD
ATOM     51  H   UNL     1      -2.261   9.368  18.946  0.00  0.00    +0.029 HD
ENDBRANCH  33  48
ENDBRANCH   5  31
TORSDOF 6
ENDMDL
MODEL 13
REMARK VINA RESULT:    -6.032      4.353      6.067
REMARK INTER + INTRA:          -7.618
REMARK INTER:                  -7.674
REMARK INTRA:                   0.056
REMARK UNBOUND:                 0.178
REMARK  Name = 
REMARK  6 active torsions:
REMARK  status: ('A' for Active; 'I' for Inactive)
REMARK    1  A    between atoms: C_1  and  C_2
REMARK    2  A    between atoms: C_2  and  C_3
REMARK    3  A    between atoms: C_5  and  C_6
REMARK    4  A    between atoms: C_10  and  C_12
REMARK    5  A    between atoms: C_14  and  C_15
REMARK    6  A    between atoms: N_16  and  C_17
REMARK                            x       y       z     vdW  Elec       q    Type
REMARK                         _______ _______ _______ _____ _____    ______ ____
ROOT
ATOM      1  C   UNL     1       1.792   7.685  18.868  0.00  0.00    +0.024 C 
ATOM      2  C   UNL     1       2.896   8.468  18.143  0.00  0.00    -0.027 C 
ATOM      3  C   UNL     1       2.354   9.750  17.518  0.00  0.00    +0.016 C 
ATOM      4  N   UNL     1       1.648  10.545  18.514  0.00  0.00    -0.296 N 
ATOM      5  C   UNL     1       1.850  11.933  18.532  0.00  0.00    +0.267 C 
ATOM      6  O   UNL     1       2.436  12.504  17.607  0.00  0.00    -0.268 OA
ATOM      7  C   UNL     1       0.553   9.852  19.192  0.00  0.00    +0.016 C 
ATOM      8  C   UNL     1       1.062   8.589  19.878  0.00  0.00    -0.027 C 
ATOM      9  H   UNL     1       1.055   7.368  18.116  0.00  0.00    +0.038 HD
ATOM     10  H   UNL     1       3.692   8.725  18.856  0.00  0.00    +0.029 HD
ATOM     11  H   UNL     1       3.359   7.847  17.366  0.00  0.00    +0.029 HD
ATOM     12  H   UNL     1       3.183  10.315  17.080  0.00  0.00    +0.046 HD
ATOM     13  H   UNL     1       1.648   9.522  16.709  0.00  0.00    +0.046 HD
ATOM     14  H   UNL     1       0.009  10.484  19.894  0.00  0.00    +0.046 HD
ATOM     15  H   UNL     1      -0.178   9.584  18.415  0.00  0.00    +0.046 HD
ATOM     16  H   UNL     1       0.223   8.048  20.331  0.00  0.00    +0.029 HD
ATOM     17  H   UNL     1       1.739   8.871  20.695  0.00  0.00    +0.029 HD
ENDROOT
BRANCH   1  20
ATOM     18  C   UNL     1       2.504   4.772  20.777  0.00  0.00    +0.125 A 
ATOM     19  N   UNL     1       1.643   5.704  20.417  0.00  0.00    -0.216 NA
ATOM     20  C   UNL     1       2.350   6.457  19.509  0.00  0.00    +0.154 A 
ATOM     21  N   UNL     1       3.604   6.029  19.279  0.00  0.00    -0.157 NA
ATOM     22  N   UNL     1       3.678   4.967  20.098  0.00  0.00    -0.262 N 
ATOM     23  H   UNL     1       4.545   4.437  20.144  0.00  0.00    +0.190 HD
BRANCH  18  24
ATOM     24  C   UNL     1       2.296   3.664  21.744  0.00  0.00    +0.004 C 
ATOM     25  H   UNL     1       1.957   4.057  22.714  0.00  0.00    +0.034 HD
ATOM     26  H   UNL     1       3.257   3.160  21.913  0.00  0.00    +0.034 HD
BRANCH  24  27
ATOM     27  C   UNL     1       1.275   2.654  21.232  0.00  0.00    -0.058 C 
ATOM     28  H   UNL     1       0.306   2.814  21.717  0.00  0.00    +0.023 HD
ATOM     29  H   UNL     1       1.129   2.750  20.151  0.00  0.00    +0.023 HD
ATOM     30  H   UNL     1       1.593   1.626  21.445  0.00  0.00    +0.023 HD
ENDBRANCH  24  27
ENDBRANCH  18  24
ENDBRANCH   1  20
BRANCH   5  31
ATOM     31  C   UNL     1       1.395  12.721  19.699  0.00  0.00    +0.148 A 
ATOM     32  C   UNL     1       2.045  13.863  20.220  0.00  0.00    -0.008 A 
ATOM     33  C   UNL     1       1.361  14.213  21.367  0.00  0.00    +0.043 A 
ATOM     34  N   UNL     1       0.292  13.326  21.459  0.00  0.00    -0.236 N 
ATOM     35  N   UNL     1       0.373  12.370  20.493  0.00  0.00    -0.161 NA
ATOM     36  H   UNL     1       2.938  14.332  19.827  0.00  0.00    +0.066 HD
BRANCH  34  37
ATOM     37  C   UNL     1      -0.809  13.271  22.375  0.00  0.00    +0.066 A 
ATOM     38  C   UNL     1      -1.494  12.047  22.531  0.00  0.00    -0.034 A 
ATOM     39  C   UNL     1      -2.570  11.938  23.415  0.00  0.00    -0.024 A 
ATOM     40  C   UNL     1      -2.976  13.050  24.138  0.00  0.00    +0.124 A 
ATOM     41  F   UNL     1      -4.003  12.947  24.990  0.00  0.00    -0.205 F 
ATOM     42  C   UNL     1      -2.330  14.270  23.986  0.00  0.00    -0.024 A 
ATOM     43  C   UNL     1      -1.250  14.386  23.101  0.00  0.00    -0.034 A 
ATOM     44  H   UNL     1      -1.189  11.156  21.981  0.00  0.00    +0.064 HD
ATOM     45  H   UNL     1      -3.088  10.992  23.540  0.00  0.00    +0.065 HD
ATOM     46  H   UNL     1      -2.676  15.131  24.551  0.00  0.00    +0.065 HD
ATOM     47  H   UNL     1      -0.810  15.369  22.988  0.00  0.00    +0.064 HD
ENDBRANCH  34  37
BRANCH  33  48
ATOM     48  C   UNL     1       1.733  15.267  22.344  0.00  0.00    -0.022 C 
ATOM     49  H   UNL     1       2.235  14.824  23.214  0.00  0.00    +0.029 HD
ATOM     50  H   UNL     1       2.433  15.982  21.899  0.00  0.00    +0.029 HD
ATOM     51  H   UNL     1       0.853  15.791  22.727  0.00  0.00    +0.029 HD
ENDBRANCH  33  48
ENDBRANCH   5  31
TORSDOF 6
ENDMDL
MODEL 14
REMARK VINA RESULT:    -6.009      4.238     10.620
REMARK INTER + INTRA:          -7.588
REMARK INTER:                  -6.912
REMARK INTRA:                  -0.676
REMARK UNBOUND:                 0.178
REMARK  Name = 
REMARK  6 active torsions:
REMARK  status: ('A' for Active; 'I' for Inactive)
REMARK    1  A    between atoms: C_1  and  C_2
REMARK    2  A    between atoms: C_2  and  C_3
REMARK    3  A    between atoms: C_5  and  C_6
REMARK    4  A    between atoms: C_10  and  C_12
REMARK    5  A    between atoms: C_14  and  C_15
REMARK    6  A    between atoms: N_16  and  C_17
REMARK                            x       y       z     vdW  Elec       q    Type
REMARK                         _______ _______ _______ _____ _____    ______ ____
ROOT
ATOM      1  C   UNL     1      -0.524  13.235  20.975  0.00  0.00    +0.024 C 
ATOM      2  C   UNL     1      -1.646  12.724  20.059  0.00  0.00    -0.027 C 
ATOM      3  C   UNL     1      -1.093  12.203  18.735  0.00  0.00    +0.016 C 
ATOM      4  N   UNL     1      -0.051  11.213  18.972  0.00  0.00    -0.296 N 
ATOM      5  C   UNL     1      -0.034  10.053  18.181  0.00  0.00    +0.267 C 
ATOM      6  O   UNL     1      -0.742   9.958  17.174  0.00  0.00    -0.268 OA
ATOM      7  C   UNL     1       1.063  11.676  19.797  0.00  0.00    +0.016 C 
ATOM      8  C   UNL     1       0.560  12.157  21.155  0.00  0.00    -0.027 C 
ATOM      9  H   UNL     1      -0.053  14.097  20.481  0.00  0.00    +0.038 HD
ATOM     10  H   UNL     1      -2.192  11.915  20.563  0.00  0.00    +0.029 HD
ATOM     11  H   UNL     1      -2.375  13.521  19.865  0.00  0.00    +0.029 HD
ATOM     12  H   UNL     1      -1.912  11.779  18.146  0.00  0.00    +0.046 HD
ATOM     13  H   UNL     1      -0.653  13.019  18.148  0.00  0.00    +0.046 HD
ATOM     14  H   UNL     1       1.852  10.933  19.916  0.00  0.00    +0.046 HD
ATOM     15  H   UNL     1       1.529  12.512  19.257  0.00  0.00    +0.046 HD
ATOM     16  H   UNL     1       1.396  12.556  21.740  0.00  0.00    +0.029 HD
ATOM     17  H   UNL     1       0.158  11.301  21.713  0.00  0.00    +0.029 HD
ENDROOT
BRANCH   1  20
ATOM     18  C   UNL     1      -2.413  13.920  23.907  0.00  0.00    +0.125 A 
ATOM     19  N   UNL     1      -2.255  13.215  22.804  0.00  0.00    -0.216 NA
ATOM     20  C   UNL     1      -1.080  13.700  22.281  0.00  0.00    +0.154 A 
ATOM     21  N   UNL     1      -0.493  14.662  23.014  0.00  0.00    -0.157 NA
ATOM     22  N   UNL     1      -1.360  14.787  24.033  0.00  0.00    -0.262 N 
ATOM     23  H   UNL     1      -1.173  15.474  24.759  0.00  0.00    +0.190 HD
BRANCH  18  24
ATOM     24  C   UNL     1      -3.517  13.830  24.896  0.00  0.00    +0.004 C 
ATOM     25  H   UNL     1      -4.166  14.717  24.831  0.00  0.00    +0.034 HD
ATOM     26  H   UNL     1      -3.085  13.815  25.905  0.00  0.00    +0.034 HD
BRANCH  24  27
ATOM     27  C   UNL     1      -4.362  12.579  24.685  0.00  0.00    -0.058 C 
ATOM     28  H   UNL     1      -5.344  12.699  25.155  0.00  0.00    +0.023 HD
ATOM     29  H   UNL     1      -4.521  12.382  23.620  0.00  0.00    +0.023 HD
ATOM     30  H   UNL     1      -3.882  11.697  25.129  0.00  0.00    +0.023 HD
ENDBRANCH  24  27
ENDBRANCH  18  24
ENDBRANCH   1  20
BRANCH   5  31
ATOM     31  C   UNL     1       0.808   8.907  18.587  0.00  0.00    +0.148 A 
ATOM     32  C   UNL     1       0.856   8.344  19.883  0.00  0.00    -0.008 A 
ATOM     33  C   UNL     1       1.848   7.383  19.855  0.00  0.00    +0.043 A 
ATOM     34  N   UNL     1       2.307   7.348  18.541  0.00  0.00    -0.236 N 
ATOM     35  N   UNL     1       1.734   8.337  17.802  0.00  0.00    -0.161 NA
ATOM     36  H   UNL     1       0.272   8.650  20.741  0.00  0.00    +0.066 HD
BRANCH  34  37
ATOM     37  C   UNL     1       3.248   6.480  17.897  0.00  0.00    +0.066 A 
ATOM     38  C   UNL     1       2.961   5.101  17.835  0.00  0.00    -0.034 A 
ATOM     39  C   UNL     1       3.842   4.213  17.213  0.00  0.00    -0.024 A 
ATOM     40  C   UNL     1       5.019   4.695  16.661  0.00  0.00    +0.124 A 
ATOM     41  F   UNL     1       5.864   3.847  16.059  0.00  0.00    -0.205 F 
ATOM     42  C   UNL     1       5.335   6.046  16.726  0.00  0.00    -0.024 A 
ATOM     43  C   UNL     1       4.454   6.941  17.349  0.00  0.00    -0.034 A 
ATOM     44  H   UNL     1       2.037   4.698  18.253  0.00  0.00    +0.064 HD
ATOM     45  H   UNL     1       3.612   3.154  17.158  0.00  0.00    +0.065 HD
ATOM     46  H   UNL     1       6.270   6.397  16.301  0.00  0.00    +0.065 HD
ATOM     47  H   UNL     1       4.768   7.975  17.412  0.00  0.00    +0.064 HD
ENDBRANCH  34  37
BRANCH  33  48
ATOM     48  C   UNL     1       2.370   6.603  21.005  0.00  0.00    -0.022 C 
ATOM     49  H   UNL     1       1.993   7.015  21.950  0.00  0.00    +0.029 HD
ATOM     50  H   UNL     1       2.037   5.561  20.954  0.00  0.00    +0.029 HD
ATOM     51  H   UNL     1       3.462   6.646  21.059  0.00  0.00    +0.029 HD
ENDBRANCH  33  48
ENDBRANCH   5  31
TORSDOF 6
ENDMDL
MODEL 15
REMARK VINA RESULT:    -6.009      6.950      8.751
REMARK INTER + INTRA:          -7.587
REMARK INTER:                  -7.085
REMARK INTRA:                  -0.502
REMARK UNBOUND:                 0.178
REMARK  Name = 
REMARK  6 active torsions:
REMARK  status: ('A' for Active; 'I' for Inactive)
REMARK    1  A    between atoms: C_1  and  C_2
REMARK    2  A    between atoms: C_2  and  C_3
REMARK    3  A    between atoms: C_5  and  C_6
REMARK    4  A    between atoms: C_10  and  C_12
REMARK    5  A    between atoms: C_14  and  C_15
REMARK    6  A    between atoms: N_16  and  C_17
REMARK                            x       y       z     vdW  Elec       q    Type
REMARK                         _______ _______ _______ _____ _____    ______ ____
ROOT
ATOM      1  C   UNL     1       4.808  14.884  19.013  0.00  0.00    +0.024 C 
ATOM      2  C   UNL     1       4.631  14.982  20.535  0.00  0.00    -0.027 C 
ATOM      3  C   UNL     1       3.180  15.267  20.913  0.00  0.00    +0.016 C 
ATOM      4  N   UNL     1       2.291  14.292  20.294  0.00  0.00    -0.296 N 
ATOM      5  C   UNL     1       1.241  13.761  21.059  0.00  0.00    +0.267 C 
ATOM      6  O   UNL     1       0.938  14.248  22.152  0.00  0.00    -0.268 OA
ATOM      7  C   UNL     1       2.390  14.206  18.838  0.00  0.00    +0.016 C 
ATOM      8  C   UNL     1       3.817  13.867  18.418  0.00  0.00    -0.027 C 
ATOM      9  H   UNL     1       4.569  15.868  18.583  0.00  0.00    +0.038 HD
ATOM     10  H   UNL     1       4.944  14.038  21.003  0.00  0.00    +0.029 HD
ATOM     11  H   UNL     1       5.279  15.766  20.947  0.00  0.00    +0.029 HD
ATOM     12  H   UNL     1       3.083  15.251  22.003  0.00  0.00    +0.046 HD
ATOM     13  H   UNL     1       2.876  16.264  20.569  0.00  0.00    +0.046 HD
ATOM     14  H   UNL     1       1.679  13.508  18.396  0.00  0.00    +0.046 HD
ATOM     15  H   UNL     1       2.111  15.193  18.444  0.00  0.00    +0.046 HD
ATOM     16  H   UNL     1       3.891  13.864  17.324  0.00  0.00    +0.029 HD
ATOM     17  H   UNL     1       4.061  12.853  18.759  0.00  0.00    +0.029 HD
ENDROOT
BRANCH   1  20
ATOM     18  C   UNL     1       8.306  14.268  18.886  0.00  0.00    +0.125 A 
ATOM     19  N   UNL     1       7.228  14.515  19.604  0.00  0.00    -0.216 NA
ATOM     20  C   UNL     1       6.225  14.562  18.666  0.00  0.00    +0.154 A 
ATOM     21  N   UNL     1       6.626  14.343  17.402  0.00  0.00    -0.157 NA
ATOM     22  N   UNL     1       7.948  14.167  17.568  0.00  0.00    -0.262 N 
ATOM     23  H   UNL     1       8.530  13.990  16.753  0.00  0.00    +0.190 HD
BRANCH  18  24
ATOM     24  C   UNL     1       9.703  14.105  19.365  0.00  0.00    +0.004 C 
ATOM     25  H   UNL     1      10.272  15.035  19.217  0.00  0.00    +0.034 HD
ATOM     26  H   UNL     1      10.191  13.325  18.768  0.00  0.00    +0.034 HD
BRANCH  24  27
ATOM     27  C   UNL     1       9.751  13.722  20.841  0.00  0.00    -0.058 C 
ATOM     28  H   UNL     1      10.676  14.088  21.298  0.00  0.00    +0.023 HD
ATOM     29  H   UNL     1       8.910  14.155  21.391  0.00  0.00    +0.023 HD
ATOM     30  H   UNL     1       9.719  12.632  20.967  0.00  0.00    +0.023 HD
ENDBRANCH  24  27
ENDBRANCH  18  24
ENDBRANCH   1  20
BRANCH   5  31
ATOM     31  C   UNL     1       0.517  12.567  20.571  0.00  0.00    +0.148 A 
ATOM     32  C   UNL     1       0.644  11.260  21.096  0.00  0.00    -0.008 A 
ATOM     33  C   UNL     1      -0.109  10.437  20.282  0.00  0.00    +0.043 A 
ATOM     34  N   UNL     1      -0.715  11.274  19.350  0.00  0.00    -0.236 N 
ATOM     35  N   UNL     1      -0.259  12.550  19.478  0.00  0.00    -0.161 NA
ATOM     36  H   UNL     1       1.259  10.959  21.935  0.00  0.00    +0.066 HD
BRANCH  34  37
ATOM     37  C   UNL     1      -1.683  11.001  18.330  0.00  0.00    +0.066 A 
ATOM     38  C   UNL     1      -1.359  10.061  17.328  0.00  0.00    -0.034 A 
ATOM     39  C   UNL     1      -2.269   9.754  16.313  0.00  0.00    -0.024 A 
ATOM     40  C   UNL     1      -3.501  10.391  16.286  0.00  0.00    +0.124 A 
ATOM     41  F   UNL     1      -4.378  10.094  15.318  0.00  0.00    -0.205 F 
ATOM     42  C   UNL     1      -3.836  11.334  17.249  0.00  0.00    -0.024 A 
ATOM     43  C   UNL     1      -2.927  11.645  18.269  0.00  0.00    -0.034 A 
ATOM     44  H   UNL     1      -0.401   9.540  17.333  0.00  0.00    +0.064 HD
ATOM     45  H   UNL     1      -2.020   9.023  15.551  0.00  0.00    +0.065 HD
ATOM     46  H   UNL     1      -4.800  11.831  17.197  0.00  0.00    +0.065 HD
ATOM     47  H   UNL     1      -3.219  12.419  18.969  0.00  0.00    +0.064 HD
ENDBRANCH  34  37
BRANCH  33  48
ATOM     48  C   UNL     1      -0.192   8.956  20.341  0.00  0.00    -0.022 C 
ATOM     49  H   UNL     1      -0.317   8.620  21.378  0.00  0.00    +0.029 HD
ATOM     50  H   UNL     1      -1.058   8.591  19.778  0.00  0.00    +0.029 HD
ATOM     51  H   UNL     1       0.723   8.485  19.968  0.00  0.00    +0.029 HD
ENDBRANCH  33  48
ENDBRANCH   5  31
TORSDOF 6
ENDMDL
MODEL 16
REMARK VINA RESULT:    -5.997      3.832      9.635
REMARK INTER + INTRA:          -7.572
REMARK INTER:                  -6.903
REMARK INTRA:                  -0.669
REMARK UNBOUND:                 0.178
REMARK  Name = 
REMARK  6 active torsions:
REMARK  status: ('A' for Active; 'I' for Inactive)
REMARK    1  A    between atoms: C_1  and  C_2
REMARK    2  A    between atoms: C_2  and  C_3
REMARK    3  A    between atoms: C_5  and  C_6
REMARK    4  A    between atoms: C_10  and  C_12
REMARK    5  A    between atoms: C_14  and  C_15
REMARK    6  A    between atoms: N_16  and  C_17
REMARK                            x       y       z     vdW  Elec       q    Type
REMARK                         _______ _______ _______ _____ _____    ______ ____
ROOT
ATOM      1  C   UNL     1       0.019  11.415  21.397  0.00  0.00    +0.024 C 
ATOM      2  C   UNL     1      -0.304  11.690  19.921  0.00  0.00    -0.027 C 
ATOM      3  C   UNL     1       0.941  11.577  19.046  0.00  0.00    +0.016 C 
ATOM      4  N   UNL     1       1.600  10.295  19.259  0.00  0.00    -0.296 N 
ATOM      5  C   UNL     1       2.086   9.596  18.143  0.00  0.00    +0.267 C 
ATOM      6  O   UNL     1       2.151  10.133  17.033  0.00  0.00    -0.268 OA
ATOM      7  C   UNL     1       1.973  10.017  20.646  0.00  0.00    +0.016 C 
ATOM      8  C   UNL     1       0.745  10.066  21.549  0.00  0.00    -0.027 C 
ATOM      9  H   UNL     1       0.706  12.201  21.743  0.00  0.00    +0.038 HD
ATOM     10  H   UNL     1      -1.056  10.970  19.569  0.00  0.00    +0.029 HD
ATOM     11  H   UNL     1      -0.746  12.688  19.805  0.00  0.00    +0.029 HD
ATOM     12  H   UNL     1       0.655  11.702  17.997  0.00  0.00    +0.046 HD
ATOM     13  H   UNL     1       1.662  12.369  19.288  0.00  0.00    +0.046 HD
ATOM     14  H   UNL     1       2.509   9.077  20.769  0.00  0.00    +0.046 HD
ATOM     15  H   UNL     1       2.684  10.800  20.943  0.00  0.00    +0.046 HD
ATOM     16  H   UNL     1       1.046   9.915  22.593  0.00  0.00    +0.029 HD
ATOM     17  H   UNL     1       0.072   9.239  21.288  0.00  0.00    +0.029 HD
ENDROOT
BRANCH   1  20
ATOM     18  C   UNL     1      -3.059  12.192  22.998  0.00  0.00    +0.125 A 
ATOM     19  N   UNL     1      -2.195  12.435  22.030  0.00  0.00    -0.216 NA
ATOM     20  C   UNL     1      -1.219  11.488  22.230  0.00  0.00    +0.154 A 
ATOM     21  N   UNL     1      -1.442  10.660  23.266  0.00  0.00    -0.157 NA
ATOM     22  N   UNL     1      -2.608  11.131  23.738  0.00  0.00    -0.262 N 
ATOM     23  H   UNL     1      -3.025  10.691  24.555  0.00  0.00    +0.190 HD
BRANCH  18  24
ATOM     24  C   UNL     1      -4.330  12.904  23.284  0.00  0.00    +0.004 C 
ATOM     25  H   UNL     1      -5.074  12.696  22.500  0.00  0.00    +0.034 HD
ATOM     26  H   UNL     1      -4.138  13.984  23.274  0.00  0.00    +0.034 HD
BRANCH  24  27
ATOM     27  C   UNL     1      -4.908  12.501  24.637  0.00  0.00    -0.058 C 
ATOM     28  H   UNL     1      -5.866  11.988  24.503  0.00  0.00    +0.023 HD
ATOM     29  H   UNL     1      -4.235  11.824  25.171  0.00  0.00    +0.023 HD
ATOM     30  H   UNL     1      -5.083  13.381  25.270  0.00  0.00    +0.023 HD
ENDBRANCH  24  27
ENDBRANCH  18  24
ENDBRANCH   1  20
BRANCH   5  31
ATOM     31  C   UNL     1       2.481   8.178  18.288  0.00  0.00    +0.148 A 
ATOM     32  C   UNL     1       3.492   7.529  17.542  0.00  0.00    -0.008 A 
ATOM     33  C   UNL     1       3.453   6.198  17.907  0.00  0.00    +0.043 A 
ATOM     34  N   UNL     1       2.484   6.103  18.902  0.00  0.00    -0.236 N 
ATOM     35  N   UNL     1       1.838   7.291  19.062  0.00  0.00    -0.161 NA
ATOM     36  H   UNL     1       4.128   7.979  16.790  0.00  0.00    +0.066 HD
BRANCH  34  37
ATOM     37  C   UNL     1       2.083   5.000  19.723  0.00  0.00    +0.066 A 
ATOM     38  C   UNL     1       2.643   4.881  21.012  0.00  0.00    -0.034 A 
ATOM     39  C   UNL     1       2.282   3.827  21.856  0.00  0.00    -0.024 A 
ATOM     40  C   UNL     1       1.371   2.880  21.413  0.00  0.00    +0.124 A 
ATOM     41  F   UNL     1       1.019   1.872  22.221  0.00  0.00    -0.205 F 
ATOM     42  C   UNL     1       0.821   2.963  20.140  0.00  0.00    -0.024 A 
ATOM     43  C   UNL     1       1.179   4.019  19.290  0.00  0.00    -0.034 A 
ATOM     44  H   UNL     1       3.354   5.618  21.388  0.00  0.00    +0.064 HD
ATOM     45  H   UNL     1       2.707   3.746  22.851  0.00  0.00    +0.065 HD
ATOM     46  H   UNL     1       0.123   2.201  19.809  0.00  0.00    +0.065 HD
ATOM     47  H   UNL     1       0.756   4.013  18.293  0.00  0.00    +0.064 HD
ENDBRANCH  34  37
BRANCH  33  48
ATOM     48  C   UNL     1       4.230   5.084  17.308  0.00  0.00    -0.022 C 
ATOM     49  H   UNL     1       3.608   4.183  17.226  0.00  0.00    +0.029 HD
ATOM     50  H   UNL     1       4.562   5.338  16.296  0.00  0.00    +0.029 HD
ATOM     51  H   UNL     1       5.090   4.812  17.928  0.00  0.00    +0.029 HD
ENDBRANCH  33  48
ENDBRANCH   5  31
TORSDOF 6
ENDMDL
MODEL 17
REMARK VINA RESULT:    -5.855      4.346     10.341
REMARK INTER + INTRA:          -7.389
REMARK INTER:                  -7.348
REMARK INTRA:                  -0.041
REMARK UNBOUND:                 0.178
REMARK  Name = 
REMARK  6 active torsions:
REMARK  status: ('A' for Active; 'I' for Inactive)
REMARK    1  A    between atoms: C_1  and  C_2
REMARK    2  A    between atoms: C_2  and  C_3
REMARK    3  A    between atoms: C_5  and  C_6
REMARK    4  A    between atoms: C_10  and  C_12
REMARK    5  A    between atoms: C_14  and  C_15
REMARK    6  A    between atoms: N_16  and  C_17
REMARK                            x       y       z     vdW  Elec       q    Type
REMARK                         _______ _______ _______ _____ _____    ______ ____
ROOT
ATOM      1  C   UNL     1      -0.959  12.121  20.588  0.00  0.00    +0.024 C 
ATOM      2  C   UNL     1      -0.824  12.082  19.059  0.00  0.00    -0.027 C 
ATOM      3  C   UNL     1       0.592  11.704  18.633  0.00  0.00    +0.016 C 
ATOM      4  N   UNL     1       1.005  10.464  19.277  0.00  0.00    -0.296 N 
ATOM      5  C   UNL     1       1.693   9.508  18.514  0.00  0.00    +0.267 C 
ATOM      6  O   UNL     1       2.128   9.780  17.391  0.00  0.00    -0.268 OA
ATOM      7  C   UNL     1       0.941  10.478  20.738  0.00  0.00    +0.016 C 
ATOM      8  C   UNL     1      -0.474  10.799  21.208  0.00  0.00    -0.027 C 
ATOM      9  H   UNL     1      -0.305  12.922  20.963  0.00  0.00    +0.038 HD
ATOM     10  H   UNL     1      -1.531  11.348  18.647  0.00  0.00    +0.029 HD
ATOM     11  H   UNL     1      -1.092  13.053  18.625  0.00  0.00    +0.029 HD
ATOM     12  H   UNL     1       0.626  11.611  17.542  0.00  0.00    +0.046 HD
ATOM     13  H   UNL     1       1.307  12.485  18.919  0.00  0.00    +0.046 HD
ATOM     14  H   UNL     1       1.304   9.558  21.196  0.00  0.00    +0.046 HD
ATOM     15  H   UNL     1       1.632  11.263  21.075  0.00  0.00    +0.046 HD
ATOM     16  H   UNL     1      -0.494  10.865  22.303  0.00  0.00    +0.029 HD
ATOM     17  H   UNL     1      -1.143   9.976  20.925  0.00  0.00    +0.029 HD
ENDROOT
BRANCH   1  20
ATOM     18  C   UNL     1      -4.056  12.776  22.206  0.00  0.00    +0.125 A 
ATOM     19  N   UNL     1      -2.762  12.537  22.297  0.00  0.00    -0.216 NA
ATOM     20  C   UNL     1      -2.361  12.450  20.985  0.00  0.00    +0.154 A 
ATOM     21  N   UNL     1      -3.341  12.637  20.084  0.00  0.00    -0.157 NA
ATOM     22  N   UNL     1      -4.404  12.834  20.882  0.00  0.00    -0.262 N 
ATOM     23  H   UNL     1      -5.316  12.994  20.462  0.00  0.00    +0.190 HD
BRANCH  18  24
ATOM     24  C   UNL     1      -5.027  12.969  23.313  0.00  0.00    +0.004 C 
ATOM     25  H   UNL     1      -5.966  12.434  23.100  0.00  0.00    +0.034 HD
ATOM     26  H   UNL     1      -5.269  14.037  23.386  0.00  0.00    +0.034 HD
BRANCH  24  27
ATOM     27  C   UNL     1      -4.468  12.481  24.645  0.00  0.00    -0.058 C 
ATOM     28  H   UNL     1      -5.080  11.662  25.038  0.00  0.00    +0.023 HD
ATOM     29  H   UNL     1      -3.444  12.112  24.534  0.00  0.00    +0.023 HD
ATOM     30  H   UNL     1      -4.463  13.287  25.391  0.00  0.00    +0.023 HD
ENDBRANCH  24  27
ENDBRANCH  18  24
ENDBRANCH   1  20
BRANCH   5  31
ATOM     31  C   UNL     1       1.857   8.136  19.043  0.00  0.00    +0.148 A 
ATOM     32  C   UNL     1       1.607   7.736  20.376  0.00  0.00    -0.008 A 
ATOM     33  C   UNL     1       1.998   6.415  20.467  0.00  0.00    +0.043 A 
ATOM     34  N   UNL     1       2.395   6.045  19.185  0.00  0.00    -0.236 N 
ATOM     35  N   UNL     1       2.391   7.120  18.350  0.00  0.00    -0.161 NA
ATOM     36  H   UNL     1       1.239   8.363  21.179  0.00  0.00    +0.066 HD
BRANCH  34  37
ATOM     37  C   UNL     1       2.795   4.776  18.654  0.00  0.00    +0.066 A 
ATOM     38  C   UNL     1       4.016   4.219  19.087  0.00  0.00    -0.034 A 
ATOM     39  C   UNL     1       4.450   2.982  18.604  0.00  0.00    -0.024 A 
ATOM     40  C   UNL     1       3.673   2.300  17.678  0.00  0.00    +0.124 A 
ATOM     41  F   UNL     1       4.083   1.112  17.217  0.00  0.00    -0.205 F 
ATOM     42  C   UNL     1       2.477   2.837  17.221  0.00  0.00    -0.024 A 
ATOM     43  C   UNL     1       2.037   4.078  17.702  0.00  0.00    -0.034 A 
ATOM     44  H   UNL     1       4.640   4.730  19.821  0.00  0.00    +0.064 HD
ATOM     45  H   UNL     1       5.385   2.551  18.948  0.00  0.00    +0.065 HD
ATOM     46  H   UNL     1       1.894   2.293  16.483  0.00  0.00    +0.065 HD
ATOM     47  H   UNL     1       1.121   4.472  17.281  0.00  0.00    +0.064 HD
ENDBRANCH  34  37
BRANCH  33  48
ATOM     48  C   UNL     1       2.055   5.583  21.695  0.00  0.00    -0.022 C 
ATOM     49  H   UNL     1       1.886   4.526  21.450  0.00  0.00    +0.029 HD
ATOM     50  H   UNL     1       3.041   5.649  22.167  0.00  0.00    +0.029 HD
ATOM     51  H   UNL     1       1.277   5.865  22.411  0.00  0.00    +0.029 HD
ENDBRANCH  33  48
ENDBRANCH   5  31
TORSDOF 6
ENDMDL
MODEL 18
REMARK VINA RESULT:    -5.811      3.269      4.834
REMARK INTER + INTRA:          -7.332
REMARK INTER:                  -6.807
REMARK INTRA:                  -0.525
REMARK UNBOUND:                 0.178
REMARK  Name = 
REMARK  6 active torsions:
REMARK  status: ('A' for Active; 'I' for Inactive)
REMARK    1  A    between atoms: C_1  and  C_2
REMARK    2  A    between atoms: C_2  and  C_3
REMARK    3  A    between atoms: C_5  and  C_6
REMARK    4  A    between atoms: C_10  and  C_12
REMARK    5  A    between atoms: C_14  and  C_15
REMARK    6  A    between atoms: N_16  and  C_17
REMARK                            x       y       z     vdW  Elec       q    Type
REMARK                         _______ _______ _______ _____ _____    ______ ____
ROOT
ATOM      1  C   UNL     1       3.156   6.072  17.892  0.00  0.00    +0.024 C 
ATOM      2  C   UNL     1       4.049   7.300  17.664  0.00  0.00    -0.027 C 
ATOM      3  C   UNL     1       3.233   8.508  17.211  0.00  0.00    +0.016 C 
ATOM      4  N   UNL     1       2.137   8.760  18.137  0.00  0.00    -0.296 N 
ATOM      5  C   UNL     1       1.859  10.085  18.504  0.00  0.00    +0.267 C 
ATOM      6  O   UNL     1       2.378  11.034  17.908  0.00  0.00    -0.268 OA
ATOM      7  C   UNL     1       1.231   7.630  18.341  0.00  0.00    +0.016 C 
ATOM      8  C   UNL     1       2.000   6.414  18.849  0.00  0.00    -0.027 C 
ATOM      9  H   UNL     1       2.714   5.793  16.925  0.00  0.00    +0.038 HD
ATOM     10  H   UNL     1       4.573   7.552  18.597  0.00  0.00    +0.029 HD
ATOM     11  H   UNL     1       4.823   7.078  16.919  0.00  0.00    +0.029 HD
ATOM     12  H   UNL     1       3.892   9.379  17.135  0.00  0.00    +0.046 HD
ATOM     13  H   UNL     1       2.800   8.335  16.217  0.00  0.00    +0.046 HD
ATOM     14  H   UNL     1       0.392   7.861  18.997  0.00  0.00    +0.046 HD
ATOM     15  H   UNL     1       0.783   7.405  17.364  0.00  0.00    +0.046 HD
ATOM     16  H   UNL     1       1.320   5.558  18.941  0.00  0.00    +0.029 HD
ATOM     17  H   UNL     1       2.386   6.626  19.854  0.00  0.00    +0.029 HD
ENDROOT
BRANCH   1  20
ATOM     18  C   UNL     1       4.512   3.192  19.475  0.00  0.00    +0.125 A 
ATOM     19  N   UNL     1       3.479   3.986  19.266  0.00  0.00    -0.216 NA
ATOM     20  C   UNL     1       3.966   4.914  18.377  0.00  0.00    +0.154 A 
ATOM     21  N   UNL     1       5.247   4.727  18.013  0.00  0.00    -0.157 NA
ATOM     22  N   UNL     1       5.571   3.635  18.727  0.00  0.00    -0.262 N 
ATOM     23  H   UNL     1       6.514   3.261  18.658  0.00  0.00    +0.190 HD
BRANCH  18  24
ATOM     24  C   UNL     1       4.579   1.995  20.353  0.00  0.00    +0.004 C 
ATOM     25  H   UNL     1       5.516   1.993  20.930  0.00  0.00    +0.034 HD
ATOM     26  H   UNL     1       4.582   1.097  19.722  0.00  0.00    +0.034 HD
BRANCH  24  27
ATOM     27  C   UNL     1       3.400   1.938  21.318  0.00  0.00    -0.058 C 
ATOM     28  H   UNL     1       2.463   2.127  20.784  0.00  0.00    +0.023 HD
ATOM     29  H   UNL     1       3.324   0.956  21.794  0.00  0.00    +0.023 HD
ATOM     30  H   UNL     1       3.498   2.694  22.107  0.00  0.00    +0.023 HD
ENDBRANCH  24  27
ENDBRANCH  18  24
ENDBRANCH   1  20
BRANCH   5  31
ATOM     31  C   UNL     1       0.968  10.351  19.654  0.00  0.00    +0.148 A 
ATOM     32  C   UNL     1       1.035   9.703  20.909  0.00  0.00    -0.008 A 
ATOM     33  C   UNL     1      -0.042  10.161  21.643  0.00  0.00    +0.043 A 
ATOM     34  N   UNL     1      -0.671  11.111  20.844  0.00  0.00    -0.236 N 
ATOM     35  N   UNL     1      -0.105  11.154  19.607  0.00  0.00    -0.161 NA
ATOM     36  H   UNL     1       1.755   8.953  21.210  0.00  0.00    +0.066 HD
BRANCH  34  37
ATOM     37  C   UNL     1      -1.771  11.989  21.116  0.00  0.00    +0.066 A 
ATOM     38  C   UNL     1      -2.702  12.241  20.086  0.00  0.00    -0.034 A 
ATOM     39  C   UNL     1      -3.795  13.084  20.300  0.00  0.00    -0.024 A 
ATOM     40  C   UNL     1      -3.957  13.690  21.537  0.00  0.00    +0.124 A 
ATOM     41  F   UNL     1      -5.007  14.495  21.747  0.00  0.00    -0.205 F 
ATOM     42  C   UNL     1      -3.043  13.475  22.560  0.00  0.00    -0.024 A 
ATOM     43  C   UNL     1      -1.945  12.629  22.351  0.00  0.00    -0.034 A 
ATOM     44  H   UNL     1      -2.602  11.769  19.108  0.00  0.00    +0.064 HD
ATOM     45  H   UNL     1      -4.515  13.266  19.509  0.00  0.00    +0.065 HD
ATOM     46  H   UNL     1      -3.182  13.973  23.515  0.00  0.00    +0.065 HD
ATOM     47  H   UNL     1      -1.239  12.529  23.166  0.00  0.00    +0.064 HD
ENDBRANCH  34  37
BRANCH  33  48
ATOM     48  C   UNL     1      -0.483   9.682  22.977  0.00  0.00    -0.022 C 
ATOM     49  H   UNL     1       0.334   9.769  23.705  0.00  0.00    +0.029 HD
ATOM     50  H   UNL     1      -1.315  10.285  23.354  0.00  0.00    +0.029 HD
ATOM     51  H   UNL     1      -0.766   8.625  22.953  0.00  0.00    +0.029 HD
ENDBRANCH  33  48
ENDBRANCH   5  31
TORSDOF 6
ENDMDL
MODEL 19
REMARK VINA RESULT:    -5.707      7.029      9.279
REMARK INTER + INTRA:          -7.197
REMARK INTER:                  -6.614
REMARK INTRA:                  -0.583
REMARK UNBOUND:                 0.178
REMARK  Name = 
REMARK  6 active torsions:
REMARK  status: ('A' for Active; 'I' for Inactive)
REMARK    1  A    between atoms: C_1  and  C_2
REMARK    2  A    between atoms: C_2  and  C_3
REMARK    3  A    between atoms: C_5  and  C_6
REMARK    4  A    between atoms: C_10  and  C_12
REMARK    5  A    between atoms: C_14  and  C_15
REMARK    6  A    between atoms: N_16  and  C_17
REMARK                            x       y       z     vdW  Elec       q    Type
REMARK                         _______ _______ _______ _____ _____    ______ ____
ROOT
ATOM      1  C   UNL     1       4.380  15.153  20.512  0.00  0.00    +0.024 C 
ATOM      2  C   UNL     1       3.849  15.111  21.953  0.00  0.00    -0.027 C 
ATOM      3  C   UNL     1       2.331  15.267  21.993  0.00  0.00    +0.016 C 
ATOM      4  N   UNL     1       1.695  14.290  21.119  0.00  0.00    -0.296 N 
ATOM      5  C   UNL     1       0.545  13.628  21.576  0.00  0.00    +0.267 C 
ATOM      6  O   UNL     1      -0.044  14.002  22.595  0.00  0.00    -0.268 OA
ATOM      7  C   UNL     1       2.135  14.332  19.725  0.00  0.00    +0.016 C 
ATOM      8  C   UNL     1       3.644  14.125  19.635  0.00  0.00    -0.027 C 
ATOM      9  H   UNL     1       4.166  16.151  20.104  0.00  0.00    +0.038 HD
ATOM     10  H   UNL     1       4.123  14.154  22.419  0.00  0.00    +0.029 HD
ATOM     11  H   UNL     1       4.316  15.900  22.556  0.00  0.00    +0.029 HD
ATOM     12  H   UNL     1       1.985  15.154  23.025  0.00  0.00    +0.046 HD
ATOM     13  H   UNL     1       2.032  16.267  21.652  0.00  0.00    +0.046 HD
ATOM     14  H   UNL     1       1.607  13.627  19.083  0.00  0.00    +0.046 HD
ATOM     15  H   UNL     1       1.873  15.328  19.341  0.00  0.00    +0.046 HD
ATOM     16  H   UNL     1       3.969  14.217  18.592  0.00  0.00    +0.029 HD
ATOM     17  H   UNL     1       3.887  13.104  19.956  0.00  0.00    +0.029 HD
ENDROOT
BRANCH   1  20
ATOM     18  C   UNL     1       7.820  14.541  21.170  0.00  0.00    +0.125 A 
ATOM     19  N   UNL     1       6.568  14.514  21.584  0.00  0.00    -0.216 NA
ATOM     20  C   UNL     1       5.861  14.955  20.491  0.00  0.00    +0.154 A 
ATOM     21  N   UNL     1       6.612  15.242  19.414  0.00  0.00    -0.157 NA
ATOM     22  N   UNL     1       7.848  14.979  19.872  0.00  0.00    -0.262 N 
ATOM     23  H   UNL     1       8.644  15.123  19.256  0.00  0.00    +0.190 HD
BRANCH  18  24
ATOM     24  C   UNL     1       9.040  14.165  21.928  0.00  0.00    +0.004 C 
ATOM     25  H   UNL     1       9.068  14.687  22.897  0.00  0.00    +0.034 HD
ATOM     26  H   UNL     1       9.921  14.485  21.359  0.00  0.00    +0.034 HD
BRANCH  24  27
ATOM     27  C   UNL     1       9.110  12.661  22.172  0.00  0.00    -0.058 C 
ATOM     28  H   UNL     1       8.210  12.318  22.694  0.00  0.00    +0.023 HD
ATOM     29  H   UNL     1       9.183  12.109  21.230  0.00  0.00    +0.023 HD
ATOM     30  H   UNL     1       9.978  12.400  22.791  0.00  0.00    +0.023 HD
ENDBRANCH  24  27
ENDBRANCH  18  24
ENDBRANCH   1  20
BRANCH   5  31
ATOM     31  C   UNL     1       0.056  12.433  20.853  0.00  0.00    +0.148 A 
ATOM     32  C   UNL     1       0.419  11.097  21.140  0.00  0.00    -0.008 A 
ATOM     33  C   UNL     1      -0.164  10.316  20.162  0.00  0.00    +0.043 A 
ATOM     34  N   UNL     1      -0.909  11.186  19.372  0.00  0.00    -0.236 N 
ATOM     35  N   UNL     1      -0.697  12.478  19.745  0.00  0.00    -0.161 NA
ATOM     36  H   UNL     1       1.074  10.763  21.935  0.00  0.00    +0.066 HD
BRANCH  34  37
ATOM     37  C   UNL     1      -1.804  10.935  18.282  0.00  0.00    +0.066 A 
ATOM     38  C   UNL     1      -3.053  11.591  18.270  0.00  0.00    -0.034 A 
ATOM     39  C   UNL     1      -3.960  11.386  17.227  0.00  0.00    -0.024 A 
ATOM     40  C   UNL     1      -3.630  10.517  16.198  0.00  0.00    +0.124 A 
ATOM     41  F   UNL     1      -4.495  10.322  15.194  0.00  0.00    -0.205 F 
ATOM     42  C   UNL     1      -2.416   9.843  16.197  0.00  0.00    -0.024 A 
ATOM     43  C   UNL     1      -1.502  10.046  17.240  0.00  0.00    -0.034 A 
ATOM     44  H   UNL     1      -3.331  12.287  19.062  0.00  0.00    +0.064 HD
ATOM     45  H   UNL     1      -4.915  11.901  17.216  0.00  0.00    +0.065 HD
ATOM     46  H   UNL     1      -2.187   9.155  15.389  0.00  0.00    +0.065 HD
ATOM     47  H   UNL     1      -0.589   9.464  17.215  0.00  0.00    +0.064 HD
ENDBRANCH  34  37
BRANCH  33  48
ATOM     48  C   UNL     1       0.027   8.859  19.950  0.00  0.00    -0.022 C 
ATOM     49  H   UNL     1       0.467   8.396  20.843  0.00  0.00    +0.029 HD
ATOM     50  H   UNL     1      -0.931   8.361  19.770  0.00  0.00    +0.029 HD
ATOM     51  H   UNL     1       0.716   8.658  19.124  0.00  0.00    +0.029 HD
ENDBRANCH  33  48
ENDBRANCH   5  31
TORSDOF 6
ENDMDL
