MODEL 1
REMARK VINA RESULT:    -8.245      0.000      0.000
REMARK INTER + INTRA:         -11.622
REMARK INTER:                 -11.065
REMARK INTRA:                  -0.557
REMARK UNBOUND:                -0.484
REMARK  Name = 
REMARK  7 active torsions:
REMARK  status: ('A' for Active; 'I' for Inactive)
REMARK    1  A    between atoms: C_1  and  C_2
REMARK    2  A    between atoms: C_2  and  C_3
REMARK    3  A    between atoms: C_2  and  C_4
REMARK    4  A    between atoms: C_15  and  C_16
REMARK    5  A    between atoms: N_18  and  C_19
REMARK    6  A    between atoms: C_19  and  C_20
REMARK    7  A    between atoms: C_24  and  C_25
REMARK                            x       y       z     vdW  Elec       q    Type
REMARK                         _______ _______ _______ _____ _____    ______ ____
ROOT
ATOM      1  C   UNL     1       6.013   4.341  14.243  0.00  0.00    -0.044 A 
ATOM      2  C   UNL     1       7.263   4.807  14.670  0.00  0.00    -0.055 A 
ATOM      3  C   UNL     1       7.533   4.946  16.029  0.00  0.00    -0.019 A 
ATOM      4  C   UNL     1       6.558   4.622  16.978  0.00  0.00    +0.124 A 
ATOM      5  C   UNL     1       5.294   4.126  16.600  0.00  0.00    +0.002 A 
ATOM      6  C   UNL     1       5.049   4.012  15.216  0.00  0.00    -0.051 A 
ATOM      7  C   UNL     1       4.285   3.724  17.681  0.00  0.00    +0.014 C 
ATOM      8  C   UNL     1       4.935   3.623  19.048  0.00  0.00    -0.008 C 
ATOM      9  C   UNL     1       5.858   4.817  19.225  0.00  0.00    +0.090 C 
ATOM     10  O   UNL     1       6.945   4.780  18.290  0.00  0.00    -0.492 OA
ATOM     11  C   UNL     1       3.169   2.738  17.394  0.00  0.00    -0.030 C 
ATOM     12  C   UNL     1       2.839   4.208  17.546  0.00  0.00    +0.046 C 
ATOM     13  H   UNL     1       8.040   5.058  13.951  0.00  0.00    +0.062 HD
ATOM     14  H   UNL     1       8.508   5.306  16.356  0.00  0.00    +0.065 HD
ATOM     15  H   UNL     1       4.082   3.651  14.879  0.00  0.00    +0.062 HD
ATOM     16  H   UNL     1       5.512   2.695  19.092  0.00  0.00    +0.031 HD
ATOM     17  H   UNL     1       4.201   3.586  19.859  0.00  0.00    +0.031 HD
ATOM     18  H   UNL     1       6.296   4.797  20.229  0.00  0.00    +0.070 HD
ATOM     19  H   UNL     1       5.329   5.769  19.120  0.00  0.00    +0.070 HD
ATOM     20  H   UNL     1       3.093   2.289  16.412  0.00  0.00    +0.028 HD
ATOM     21  H   UNL     1       2.884   2.054  18.189  0.00  0.00    +0.028 HD
ATOM     22  H   UNL     1       2.595   4.755  16.639  0.00  0.00    +0.040 HD
ENDROOT
BRANCH  12  23
ATOM     23  C   UNL     1       2.061   4.695  18.713  0.00  0.00    +0.217 C 
ATOM     24  O   UNL     1       1.160   4.023  19.191  0.00  0.00    -0.275 OA
ATOM     25  N   UNL     1       2.487   5.905  19.193  0.00  0.00    -0.311 N 
ATOM     26  H   UNL     1       3.334   6.300  18.810  0.00  0.00    +0.149 HD
BRANCH  25  27
ATOM     27  C   UNL     1       1.972   6.447  20.426  0.00  0.00    +0.037 C 
ATOM     28  H   UNL     1       2.750   6.405  21.191  0.00  0.00    +0.051 HD
ATOM     29  H   UNL     1       1.149   5.807  20.760  0.00  0.00    +0.051 HD
BRANCH  27  30
ATOM     30  C   UNL     1       1.482   7.861  20.240  0.00  0.00    -0.030 A 
ATOM     31  C   UNL     1       1.676   8.533  19.027  0.00  0.00    -0.057 A 
ATOM     32  C   UNL     1       1.275   9.867  18.885  0.00  0.00    -0.061 A 
ATOM     33  C   UNL     1       0.659  10.532  19.943  0.00  0.00    -0.050 A 
ATOM     34  C   UNL     1       0.436   9.868  21.154  0.00  0.00    +0.037 A 
ATOM     35  C   UNL     1       0.868   8.544  21.306  0.00  0.00    -0.045 A 
ATOM     36  H   UNL     1       2.163   8.027  18.193  0.00  0.00    +0.062 HD
ATOM     37  H   UNL     1       1.451  10.391  17.953  0.00  0.00    +0.062 HD
ATOM     38  H   UNL     1       0.350  11.570  19.828  0.00  0.00    +0.063 HD
ATOM     39  H   UNL     1       0.769   8.041  22.263  0.00  0.00    +0.063 HD
BRANCH  34  40
ATOM     40  C   UNL     1      -0.244  10.618  22.257  0.00  0.00    +0.242 C 
ATOM     41  N   UNL     1      -0.561   9.929  23.399  0.00  0.00    -0.325 N 
ATOM     42  O   UNL     1      -0.543  11.801  22.146  0.00  0.00    -0.270 OA
ATOM     43  H   UNL     1      -0.460   8.926  23.487  0.00  0.00    +0.145 HD
ATOM     44  H   UNL     1      -1.112  10.415  24.097  0.00  0.00    +0.145 HD
ENDBRANCH  34  40
ENDBRANCH  27  30
ENDBRANCH  25  27
ENDBRANCH  12  23
BRANCH   1  45
ATOM     45  C   UNL     1       5.684   4.170  12.770  0.00  0.00    -0.022 C 
ATOM     46  H   UNL     1       5.427   5.154  12.351  0.00  0.00    +0.034 HD
BRANCH  45  47
ATOM     47  C   UNL     1       6.881   3.648  11.972  0.00  0.00    -0.059 C 
ATOM     48  H   UNL     1       7.253   2.692  12.363  0.00  0.00    +0.024 HD
ATOM     49  H   UNL     1       6.606   3.493  10.920  0.00  0.00    +0.024 HD
ATOM     50  H   UNL     1       7.711   4.364  11.996  0.00  0.00    +0.024 HD
ENDBRANCH  45  47
BRANCH  45  51
ATOM     51  C   UNL     1       4.462   3.266  12.572  0.00  0.00    -0.059 C 
ATOM     52  H   UNL     1       4.711   2.219  12.778  0.00  0.00    +0.024 HD
ATOM     53  H   UNL     1       4.075   3.322  11.549  0.00  0.00    +0.024 HD
ATOM     54  H   UNL     1       3.653   3.558  13.251  0.00  0.00    +0.024 HD
ENDBRANCH  45  51
ENDBRANCH   1  45
TORSDOF 7
ENDMDL
MODEL 2
REMARK VINA RESULT:    -7.660      1.561      1.982
REMARK INTER + INTRA:         -10.831
REMARK INTER:                 -10.189
REMARK INTRA:                  -0.643
REMARK UNBOUND:                -0.484
REMARK  Name = 
REMARK  7 active torsions:
REMARK  status: ('A' for Active; 'I' for Inactive)
REMARK    1  A    between atoms: C_1  and  C_2
REMARK    2  A    between atoms: C_2  and  C_3
REMARK    3  A    between atoms: C_2  and  C_4
REMARK    4  A    between atoms: C_15  and  C_16
REMARK    5  A    between atoms: N_18  and  C_19
REMARK    6  A    between atoms: C_19  and  C_20
REMARK    7  A    between atoms: C_24  and  C_25
REMARK                            x       y       z     vdW  Elec       q    Type
REMARK                         _______ _______ _______ _____ _____    ______ ____
ROOT
ATOM      1  C   UNL     1       5.989   4.496  14.547  0.00  0.00    -0.044 A 
ATOM      2  C   UNL     1       7.218   4.924  15.064  0.00  0.00    -0.055 A 
ATOM      3  C   UNL     1       7.431   4.949  16.440  0.00  0.00    -0.019 A 
ATOM      4  C   UNL     1       6.419   4.545  17.316  0.00  0.00    +0.124 A 
ATOM      5  C   UNL     1       5.174   4.081  16.846  0.00  0.00    +0.002 A 
ATOM      6  C   UNL     1       4.987   4.085  15.448  0.00  0.00    -0.051 A 
ATOM      7  C   UNL     1       4.123   3.589  17.846  0.00  0.00    +0.014 C 
ATOM      8  C   UNL     1       4.716   3.373  19.225  0.00  0.00    -0.008 C 
ATOM      9  C   UNL     1       5.626   4.548  19.541  0.00  0.00    +0.090 C 
ATOM     10  O   UNL     1       6.751   4.591  18.652  0.00  0.00    -0.492 OA
ATOM     11  C   UNL     1       3.024   2.630  17.431  0.00  0.00    -0.030 C 
ATOM     12  C   UNL     1       2.682   4.082  17.692  0.00  0.00    +0.046 C 
ATOM     13  H   UNL     1       8.023   5.236  14.402  0.00  0.00    +0.062 HD
ATOM     14  H   UNL     1       8.390   5.280  16.836  0.00  0.00    +0.065 HD
ATOM     15  H   UNL     1       4.036   3.752  15.042  0.00  0.00    +0.062 HD
ATOM     16  H   UNL     1       5.295   2.445  19.215  0.00  0.00    +0.031 HD
ATOM     17  H   UNL     1       3.949   3.267  19.999  0.00  0.00    +0.031 HD
ATOM     18  H   UNL     1       6.022   4.445  20.557  0.00  0.00    +0.070 HD
ATOM     19  H   UNL     1       5.098   5.506  19.494  0.00  0.00    +0.070 HD
ATOM     20  H   UNL     1       2.990   2.265  16.412  0.00  0.00    +0.028 HD
ATOM     21  H   UNL     1       2.709   1.881  18.152  0.00  0.00    +0.028 HD
ATOM     22  H   UNL     1       2.473   4.703  16.825  0.00  0.00    +0.040 HD
ENDROOT
BRANCH  12  23
ATOM     23  C   UNL     1       1.854   4.468  18.863  0.00  0.00    +0.217 C 
ATOM     24  O   UNL     1       0.932   3.761  19.240  0.00  0.00    -0.275 OA
ATOM     25  N   UNL     1       2.260   5.628  19.466  0.00  0.00    -0.311 N 
ATOM     26  H   UNL     1       3.122   6.052  19.156  0.00  0.00    +0.149 HD
BRANCH  25  27
ATOM     27  C   UNL     1       1.692   6.062  20.719  0.00  0.00    +0.037 C 
ATOM     28  H   UNL     1       2.438   5.956  21.508  0.00  0.00    +0.051 HD
ATOM     29  H   UNL     1       0.859   5.395  20.962  0.00  0.00    +0.051 HD
BRANCH  27  30
ATOM     30  C   UNL     1       1.203   7.487  20.634  0.00  0.00    -0.030 A 
ATOM     31  C   UNL     1       0.286   7.987  21.566  0.00  0.00    -0.057 A 
ATOM     32  C   UNL     1      -0.210   9.289  21.442  0.00  0.00    -0.061 A 
ATOM     33  C   UNL     1       0.221  10.109  20.401  0.00  0.00    -0.050 A 
ATOM     34  C   UNL     1       1.155   9.634  19.475  0.00  0.00    +0.037 A 
ATOM     35  C   UNL     1       1.626   8.319  19.580  0.00  0.00    -0.045 A 
ATOM     36  H   UNL     1      -0.065   7.354  22.382  0.00  0.00    +0.062 HD
ATOM     37  H   UNL     1      -0.940   9.663  22.150  0.00  0.00    +0.062 HD
ATOM     38  H   UNL     1      -0.170  11.122  20.308  0.00  0.00    +0.063 HD
ATOM     39  H   UNL     1       2.293   7.913  18.827  0.00  0.00    +0.063 HD
BRANCH  34  40
ATOM     40  C   UNL     1       1.601  10.557  18.383  0.00  0.00    +0.242 C 
ATOM     41  N   UNL     1       2.220  10.004  17.292  0.00  0.00    -0.325 N 
ATOM     42  O   UNL     1       1.454  11.770  18.462  0.00  0.00    -0.270 OA
ATOM     43  H   UNL     1       2.486   9.029  17.240  0.00  0.00    +0.145 HD
ATOM     44  H   UNL     1       2.612  10.641  16.607  0.00  0.00    +0.145 HD
ENDBRANCH  34  40
ENDBRANCH  27  30
ENDBRANCH  25  27
ENDBRANCH  12  23
BRANCH   1  45
ATOM     45  C   UNL     1       5.721   4.450  13.052  0.00  0.00    -0.022 C 
ATOM     46  H   UNL     1       5.182   5.364  12.764  0.00  0.00    +0.034 HD
BRANCH  45  47
ATOM     47  C   UNL     1       7.018   4.425  12.239  0.00  0.00    -0.059 C 
ATOM     48  H   UNL     1       7.907   4.359  12.880  0.00  0.00    +0.024 HD
ATOM     49  H   UNL     1       7.031   3.561  11.561  0.00  0.00    +0.024 HD
ATOM     50  H   UNL     1       7.115   5.328  11.627  0.00  0.00    +0.024 HD
ENDBRANCH  45  47
BRANCH  45  51
ATOM     51  C   UNL     1       4.824   3.264  12.682  0.00  0.00    -0.059 C 
ATOM     52  H   UNL     1       3.798   3.594  12.484  0.00  0.00    +0.024 HD
ATOM     53  H   UNL     1       4.785   2.516  13.483  0.00  0.00    +0.024 HD
ATOM     54  H   UNL     1       5.197   2.766  11.779  0.00  0.00    +0.024 HD
ENDBRANCH  45  51
ENDBRANCH   1  45
TORSDOF 7
ENDMDL
MODEL 3
REMARK VINA RESULT:    -7.489      2.939      9.009
REMARK INTER + INTRA:         -10.600
REMARK INTER:                 -10.189
REMARK INTRA:                  -0.411
REMARK UNBOUND:                -0.484
REMARK  Name = 
REMARK  7 active torsions:
REMARK  status: ('A' for Active; 'I' for Inactive)
REMARK    1  A    between atoms: C_1  and  C_2
REMARK    2  A    between atoms: C_2  and  C_3
REMARK    3  A    between atoms: C_2  and  C_4
REMARK    4  A    between atoms: C_15  and  C_16
REMARK    5  A    between atoms: N_18  and  C_19
REMARK    6  A    between atoms: C_19  and  C_20
REMARK    7  A    between atoms: C_24  and  C_25
REMARK                            x       y       z     vdW  Elec       q    Type
REMARK                         _______ _______ _______ _____ _____    ______ ____
ROOT
ATOM      1  C   UNL     1      -2.239  11.007  17.560  0.00  0.00    -0.044 A 
ATOM      2  C   UNL     1      -2.785  11.690  18.654  0.00  0.00    -0.055 A 
ATOM      3  C   UNL     1      -2.119  11.704  19.877  0.00  0.00    -0.019 A 
ATOM      4  C   UNL     1      -0.899  11.035  20.022  0.00  0.00    +0.124 A 
ATOM      5  C   UNL     1      -0.296  10.355  18.945  0.00  0.00    +0.002 A 
ATOM      6  C   UNL     1      -1.005  10.348  17.726  0.00  0.00    -0.051 A 
ATOM      7  C   UNL     1       1.073   9.694  19.140  0.00  0.00    +0.014 C 
ATOM      8  C   UNL     1       1.743  10.153  20.421  0.00  0.00    -0.008 C 
ATOM      9  C   UNL     1       0.700  10.164  21.526  0.00  0.00    +0.090 C 
ATOM     10  O   UNL     1      -0.323  11.136  21.269  0.00  0.00    -0.492 OA
ATOM     11  C   UNL     1       1.991   9.416  17.966  0.00  0.00    -0.030 C 
ATOM     12  C   UNL     1       1.271   8.263  18.634  0.00  0.00    +0.046 C 
ATOM     13  H   UNL     1      -3.729  12.224  18.564  0.00  0.00    +0.062 HD
ATOM     14  H   UNL     1      -2.547  12.239  20.723  0.00  0.00    +0.065 HD
ATOM     15  H   UNL     1      -0.585   9.820  16.875  0.00  0.00    +0.062 HD
ATOM     16  H   UNL     1       2.134  11.163  20.268  0.00  0.00    +0.031 HD
ATOM     17  H   UNL     1       2.589   9.519  20.702  0.00  0.00    +0.031 HD
ATOM     18  H   UNL     1       1.173  10.437  22.475  0.00  0.00    +0.070 HD
ATOM     19  H   UNL     1       0.234   9.183  21.665  0.00  0.00    +0.070 HD
ATOM     20  H   UNL     1       1.687   9.708  16.968  0.00  0.00    +0.028 HD
ATOM     21  H   UNL     1       3.060   9.526  18.124  0.00  0.00    +0.028 HD
ATOM     22  H   UNL     1       0.438   7.822  18.093  0.00  0.00    +0.040 HD
ENDROOT
BRANCH  12  23
ATOM     23  C   UNL     1       2.023   7.250  19.416  0.00  0.00    +0.217 C 
ATOM     24  O   UNL     1       1.697   6.972  20.560  0.00  0.00    -0.275 OA
ATOM     25  N   UNL     1       3.042   6.660  18.718  0.00  0.00    -0.311 N 
ATOM     26  H   UNL     1       3.128   6.863  17.733  0.00  0.00    +0.149 HD
BRANCH  25  27
ATOM     27  C   UNL     1       3.763   5.530  19.252  0.00  0.00    +0.037 C 
ATOM     28  H   UNL     1       3.132   4.641  19.194  0.00  0.00    +0.051 HD
ATOM     29  H   UNL     1       3.960   5.724  20.311  0.00  0.00    +0.051 HD
BRANCH  27  30
ATOM     30  C   UNL     1       5.062   5.312  18.517  0.00  0.00    -0.030 A 
ATOM     31  C   UNL     1       6.282   5.304  19.203  0.00  0.00    -0.057 A 
ATOM     32  C   UNL     1       7.486   5.165  18.505  0.00  0.00    -0.061 A 
ATOM     33  C   UNL     1       7.481   5.011  17.120  0.00  0.00    -0.050 A 
ATOM     34  C   UNL     1       6.271   4.993  16.421  0.00  0.00    +0.037 A 
ATOM     35  C   UNL     1       5.067   5.166  17.117  0.00  0.00    -0.045 A 
ATOM     36  H   UNL     1       6.301   5.430  20.286  0.00  0.00    +0.062 HD
ATOM     37  H   UNL     1       8.430   5.186  19.038  0.00  0.00    +0.062 HD
ATOM     38  H   UNL     1       8.422   4.905  16.580  0.00  0.00    +0.063 HD
ATOM     39  H   UNL     1       4.126   5.228  16.580  0.00  0.00    +0.063 HD
BRANCH  34  40
ATOM     40  C   UNL     1       6.314   4.809  14.935  0.00  0.00    +0.242 C 
ATOM     41  N   UNL     1       7.445   5.211  14.273  0.00  0.00    -0.325 N 
ATOM     42  O   UNL     1       5.365   4.346  14.313  0.00  0.00    -0.270 OA
ATOM     43  H   UNL     1       8.196   5.722  14.720  0.00  0.00    +0.145 HD
ATOM     44  H   UNL     1       7.426   5.182  13.260  0.00  0.00    +0.145 HD
ENDBRANCH  34  40
ENDBRANCH  27  30
ENDBRANCH  25  27
ENDBRANCH  12  23
BRANCH   1  45
ATOM     45  C   UNL     1      -2.933  10.975  16.209  0.00  0.00    -0.022 C 
ATOM     46  H   UNL     1      -2.468  11.728  15.558  0.00  0.00    +0.034 HD
BRANCH  45  47
ATOM     47  C   UNL     1      -2.765   9.622  15.511  0.00  0.00    -0.059 C 
ATOM     48  H   UNL     1      -2.548   8.814  16.222  0.00  0.00    +0.024 HD
ATOM     49  H   UNL     1      -3.682   9.352  14.970  0.00  0.00    +0.024 HD
ATOM     50  H   UNL     1      -1.947   9.655  14.783  0.00  0.00    +0.024 HD
ENDBRANCH  45  47
BRANCH  45  51
ATOM     51  C   UNL     1      -4.415  11.342  16.334  0.00  0.00    -0.059 C 
ATOM     52  H   UNL     1      -4.776  11.179  17.356  0.00  0.00    +0.024 HD
ATOM     53  H   UNL     1      -5.042  10.747  15.660  0.00  0.00    +0.024 HD
ATOM     54  H   UNL     1      -4.572  12.399  16.088  0.00  0.00    +0.024 HD
ENDBRANCH  45  51
ENDBRANCH   1  45
TORSDOF 7
ENDMDL
MODEL 4
REMARK VINA RESULT:    -7.399      5.345      7.420
REMARK INTER + INTRA:         -10.478
REMARK INTER:                 -10.433
REMARK INTRA:                  -0.045
REMARK UNBOUND:                -0.484
REMARK  Name = 
REMARK  7 active torsions:
REMARK  status: ('A' for Active; 'I' for Inactive)
REMARK    1  A    between atoms: C_1  and  C_2
REMARK    2  A    between atoms: C_2  and  C_3
REMARK    3  A    between atoms: C_2  and  C_4
REMARK    4  A    between atoms: C_15  and  C_16
REMARK    5  A    between atoms: N_18  and  C_19
REMARK    6  A    between atoms: C_19  and  C_20
REMARK    7  A    between atoms: C_24  and  C_25
REMARK                            x       y       z     vdW  Elec       q    Type
REMARK                         _______ _______ _______ _____ _____    ______ ____
ROOT
ATOM      1  C   UNL     1       3.012   4.103  19.438  0.00  0.00    -0.044 A 
ATOM      2  C   UNL     1       2.563   3.296  18.385  0.00  0.00    -0.055 A 
ATOM      3  C   UNL     1       3.360   3.105  17.259  0.00  0.00    -0.019 A 
ATOM      4  C   UNL     1       4.615   3.717  17.172  0.00  0.00    +0.124 A 
ATOM      5  C   UNL     1       5.122   4.517  18.216  0.00  0.00    +0.002 A 
ATOM      6  C   UNL     1       4.282   4.702  19.334  0.00  0.00    -0.051 A 
ATOM      7  C   UNL     1       6.529   5.111  18.098  0.00  0.00    +0.014 C 
ATOM      8  C   UNL     1       7.319   4.471  16.972  0.00  0.00    -0.008 C 
ATOM      9  C   UNL     1       6.406   4.342  15.765  0.00  0.00    +0.090 C 
ATOM     10  O   UNL     1       5.322   3.439  16.023  0.00  0.00    -0.492 OA
ATOM     11  C   UNL     1       7.321   5.517  19.326  0.00  0.00    -0.030 C 
ATOM     12  C   UNL     1       6.728   6.590  18.438  0.00  0.00    +0.046 C 
ATOM     13  H   UNL     1       1.594   2.804  18.432  0.00  0.00    +0.062 HD
ATOM     14  H   UNL     1       3.008   2.475  16.444  0.00  0.00    +0.065 HD
ATOM     15  H   UNL     1       4.625   5.325  20.154  0.00  0.00    +0.062 HD
ATOM     16  H   UNL     1       7.649   3.479  17.297  0.00  0.00    +0.031 HD
ATOM     17  H   UNL     1       8.216   5.041  16.713  0.00  0.00    +0.031 HD
ATOM     18  H   UNL     1       6.970   3.935  14.919  0.00  0.00    +0.070 HD
ATOM     19  H   UNL     1       5.998   5.308  15.449  0.00  0.00    +0.070 HD
ATOM     20  H   UNL     1       6.896   5.366  20.310  0.00  0.00    +0.028 HD
ATOM     21  H   UNL     1       8.396   5.359  19.308  0.00  0.00    +0.028 HD
ATOM     22  H   UNL     1       5.859   7.120  18.818  0.00  0.00    +0.040 HD
ENDROOT
BRANCH  12  23
ATOM     23  C   UNL     1       7.602   7.472  17.625  0.00  0.00    +0.217 C 
ATOM     24  O   UNL     1       7.618   7.390  16.406  0.00  0.00    -0.275 OA
ATOM     25  N   UNL     1       8.317   8.375  18.367  0.00  0.00    -0.311 N 
ATOM     26  H   UNL     1       8.115   8.449  19.353  0.00  0.00    +0.149 HD
BRANCH  25  27
ATOM     27  C   UNL     1       9.077   9.428  17.740  0.00  0.00    +0.037 C 
ATOM     28  H   UNL     1       8.586   9.724  16.811  0.00  0.00    +0.051 HD
ATOM     29  H   UNL     1      10.061   9.025  17.477  0.00  0.00    +0.051 HD
BRANCH  27  30
ATOM     30  C   UNL     1       9.235  10.612  18.661  0.00  0.00    -0.030 A 
ATOM     31  C   UNL     1       9.467  10.430  20.029  0.00  0.00    -0.057 A 
ATOM     32  C   UNL     1       9.548  11.534  20.887  0.00  0.00    -0.061 A 
ATOM     33  C   UNL     1       9.422  12.826  20.382  0.00  0.00    -0.050 A 
ATOM     34  C   UNL     1       9.214  13.027  19.013  0.00  0.00    +0.037 A 
ATOM     35  C   UNL     1       9.099  11.921  18.161  0.00  0.00    -0.045 A 
ATOM     36  H   UNL     1       9.561   9.424  20.439  0.00  0.00    +0.062 HD
ATOM     37  H   UNL     1       9.701  11.386  21.949  0.00  0.00    +0.062 HD
ATOM     38  H   UNL     1       9.484  13.682  21.053  0.00  0.00    +0.063 HD
ATOM     39  H   UNL     1       8.864  12.059  17.111  0.00  0.00    +0.063 HD
BRANCH  34  40
ATOM     40  C   UNL     1       9.100  14.434  18.514  0.00  0.00    +0.242 C 
ATOM     41  N   UNL     1       9.832  14.783  17.409  0.00  0.00    -0.325 N 
ATOM     42  O   UNL     1       8.404  15.267  19.083  0.00  0.00    -0.270 OA
ATOM     43  H   UNL     1      10.522  14.175  16.988  0.00  0.00    +0.145 HD
ATOM     44  H   UNL     1       9.832  15.760  17.141  0.00  0.00    +0.145 HD
ENDBRANCH  34  40
ENDBRANCH  27  30
ENDBRANCH  25  27
ENDBRANCH  12  23
BRANCH   1  45
ATOM     45  C   UNL     1       2.173   4.330  20.685  0.00  0.00    -0.022 C 
ATOM     46  H   UNL     1       2.818   4.213  21.567  0.00  0.00    +0.034 HD
BRANCH  45  47
ATOM     47  C   UNL     1       1.601   5.749  20.740  0.00  0.00    -0.059 C 
ATOM     48  H   UNL     1       2.111   6.427  20.043  0.00  0.00    +0.024 HD
ATOM     49  H   UNL     1       0.534   5.744  20.479  0.00  0.00    +0.024 HD
ATOM     50  H   UNL     1       1.695   6.171  21.746  0.00  0.00    +0.024 HD
ENDBRANCH  45  47
BRANCH  45  51
ATOM     51  C   UNL     1       1.056   3.287  20.803  0.00  0.00    -0.059 C 
ATOM     52  H   UNL     1       1.460   2.270  20.753  0.00  0.00    +0.024 HD
ATOM     53  H   UNL     1       0.315   3.391  20.003  0.00  0.00    +0.024 HD
ATOM     54  H   UNL     1       0.531   3.393  21.759  0.00  0.00    +0.024 HD
ENDBRANCH  45  51
ENDBRANCH   1  45
TORSDOF 7
ENDMDL
MODEL 5
REMARK VINA RESULT:    -7.300      2.991      9.350
REMARK INTER + INTRA:         -10.345
REMARK INTER:                  -9.963
REMARK INTRA:                  -0.382
REMARK UNBOUND:                -0.484
REMARK  Name = 
REMARK  7 active torsions:
REMARK  status: ('A' for Active; 'I' for Inactive)
REMARK    1  A    between atoms: C_1  and  C_2
REMARK    2  A    between atoms: C_2  and  C_3
REMARK    3  A    between atoms: C_2  and  C_4
REMARK    4  A    between atoms: C_15  and  C_16
REMARK    5  A    between atoms: N_18  and  C_19
REMARK    6  A    between atoms: C_19  and  C_20
REMARK    7  A    between atoms: C_24  and  C_25
REMARK                            x       y       z     vdW  Elec       q    Type
REMARK                         _______ _______ _______ _____ _____    ______ ____
ROOT
ATOM      1  C   UNL     1      -2.838  11.499  17.933  0.00  0.00    -0.044 A 
ATOM      2  C   UNL     1      -3.377  12.197  19.021  0.00  0.00    -0.055 A 
ATOM      3  C   UNL     1      -2.674  12.278  20.221  0.00  0.00    -0.019 A 
ATOM      4  C   UNL     1      -1.424  11.664  20.347  0.00  0.00    +0.124 A 
ATOM      5  C   UNL     1      -0.827  10.972  19.274  0.00  0.00    +0.002 A 
ATOM      6  C   UNL     1      -1.574  10.896  18.079  0.00  0.00    -0.051 A 
ATOM      7  C   UNL     1       0.572  10.373  19.444  0.00  0.00    +0.014 C 
ATOM      8  C   UNL     1       1.263  10.901  20.687  0.00  0.00    -0.008 C 
ATOM      9  C   UNL     1       0.256  10.907  21.825  0.00  0.00    +0.090 C 
ATOM     10  O   UNL     1      -0.814  11.829  21.571  0.00  0.00    -0.492 OA
ATOM     11  C   UNL     1       1.464  10.093  18.250  0.00  0.00    -0.030 C 
ATOM     12  C   UNL     1       0.813   8.935  18.978  0.00  0.00    +0.046 C 
ATOM     13  H   UNL     1      -4.345  12.688  18.945  0.00  0.00    +0.062 HD
ATOM     14  H   UNL     1      -3.097  12.824  21.063  0.00  0.00    +0.065 HD
ATOM     15  H   UNL     1      -1.160  10.358  17.232  0.00  0.00    +0.062 HD
ATOM     16  H   UNL     1       1.608  11.921  20.488  0.00  0.00    +0.031 HD
ATOM     17  H   UNL     1       2.143  10.311  20.960  0.00  0.00    +0.031 HD
ATOM     18  H   UNL     1       0.747  11.231  22.749  0.00  0.00    +0.070 HD
ATOM     19  H   UNL     1      -0.165   9.914  22.010  0.00  0.00    +0.070 HD
ATOM     20  H   UNL     1       1.116  10.339  17.254  0.00  0.00    +0.028 HD
ATOM     21  H   UNL     1       2.532  10.251  18.369  0.00  0.00    +0.028 HD
ATOM     22  H   UNL     1      -0.018   8.443  18.479  0.00  0.00    +0.040 HD
ENDROOT
BRANCH  12  23
ATOM     23  C   UNL     1       1.630   7.980  19.767  0.00  0.00    +0.217 C 
ATOM     24  O   UNL     1       1.344   7.718  20.926  0.00  0.00    -0.275 OA
ATOM     25  N   UNL     1       2.660   7.420  19.060  0.00  0.00    -0.311 N 
ATOM     26  H   UNL     1       2.713   7.601  18.068  0.00  0.00    +0.149 HD
BRANCH  25  27
ATOM     27  C   UNL     1       3.446   6.340  19.605  0.00  0.00    +0.037 C 
ATOM     28  H   UNL     1       2.865   5.823  20.370  0.00  0.00    +0.051 HD
ATOM     29  H   UNL     1       4.324   6.773  20.095  0.00  0.00    +0.051 HD
BRANCH  27  30
ATOM     30  C   UNL     1       3.879   5.380  18.525  0.00  0.00    -0.030 A 
ATOM     31  C   UNL     1       3.008   4.391  18.053  0.00  0.00    -0.057 A 
ATOM     32  C   UNL     1       3.440   3.465  17.096  0.00  0.00    -0.061 A 
ATOM     33  C   UNL     1       4.735   3.532  16.589  0.00  0.00    -0.050 A 
ATOM     34  C   UNL     1       5.612   4.528  17.032  0.00  0.00    +0.037 A 
ATOM     35  C   UNL     1       5.189   5.433  18.013  0.00  0.00    -0.045 A 
ATOM     36  H   UNL     1       1.993   4.323  18.446  0.00  0.00    +0.062 HD
ATOM     37  H   UNL     1       2.770   2.684  16.754  0.00  0.00    +0.062 HD
ATOM     38  H   UNL     1       5.068   2.807  15.846  0.00  0.00    +0.063 HD
ATOM     39  H   UNL     1       5.881   6.164  18.420  0.00  0.00    +0.063 HD
BRANCH  34  40
ATOM     40  C   UNL     1       6.989   4.570  16.446  0.00  0.00    +0.242 C 
ATOM     41  N   UNL     1       8.040   4.231  17.258  0.00  0.00    -0.325 N 
ATOM     42  O   UNL     1       7.190   4.925  15.291  0.00  0.00    -0.270 OA
ATOM     43  H   UNL     1       7.942   4.065  18.252  0.00  0.00    +0.145 HD
ATOM     44  H   UNL     1       8.975   4.363  16.889  0.00  0.00    +0.145 HD
ENDBRANCH  34  40
ENDBRANCH  27  30
ENDBRANCH  25  27
ENDBRANCH  12  23
BRANCH   1  45
ATOM     45  C   UNL     1      -3.573  11.394  16.607  0.00  0.00    -0.022 C 
ATOM     46  H   UNL     1      -3.286  12.249  15.978  0.00  0.00    +0.034 HD
BRANCH  45  47
ATOM     47  C   UNL     1      -3.186  10.128  15.837  0.00  0.00    -0.059 C 
ATOM     48  H   UNL     1      -2.679  10.359  14.891  0.00  0.00    +0.024 HD
ATOM     49  H   UNL     1      -2.509   9.505  16.435  0.00  0.00    +0.024 HD
ATOM     50  H   UNL     1      -4.072   9.526  15.603  0.00  0.00    +0.024 HD
ENDBRANCH  45  47
BRANCH  45  51
ATOM     51  C   UNL     1      -5.091  11.470  16.803  0.00  0.00    -0.059 C 
ATOM     52  H   UNL     1      -5.484  12.433  16.459  0.00  0.00    +0.024 HD
ATOM     53  H   UNL     1      -5.373  11.351  17.855  0.00  0.00    +0.024 HD
ATOM     54  H   UNL     1      -5.593  10.680  16.232  0.00  0.00    +0.024 HD
ENDBRANCH  45  51
ENDBRANCH   1  45
TORSDOF 7
ENDMDL
MODEL 6
REMARK VINA RESULT:    -7.277      3.213     10.093
REMARK INTER + INTRA:         -10.313
REMARK INTER:                  -9.564
REMARK INTRA:                  -0.749
REMARK UNBOUND:                -0.484
REMARK  Name = 
REMARK  7 active torsions:
REMARK  status: ('A' for Active; 'I' for Inactive)
REMARK    1  A    between atoms: C_1  and  C_2
REMARK    2  A    between atoms: C_2  and  C_3
REMARK    3  A    between atoms: C_2  and  C_4
REMARK    4  A    between atoms: C_15  and  C_16
REMARK    5  A    between atoms: N_18  and  C_19
REMARK    6  A    between atoms: C_19  and  C_20
REMARK    7  A    between atoms: C_24  and  C_25
REMARK                            x       y       z     vdW  Elec       q    Type
REMARK                         _______ _______ _______ _____ _____    ______ ____
ROOT
ATOM      1  C   UNL     1      -1.871  13.196  22.055  0.00  0.00    -0.044 A 
ATOM      2  C   UNL     1      -2.893  13.748  21.272  0.00  0.00    -0.055 A 
ATOM      3  C   UNL     1      -3.171  13.225  20.012  0.00  0.00    -0.019 A 
ATOM      4  C   UNL     1      -2.434  12.144  19.519  0.00  0.00    +0.124 A 
ATOM      5  C   UNL     1      -1.413  11.537  20.278  0.00  0.00    +0.002 A 
ATOM      6  C   UNL     1      -1.147  12.102  21.543  0.00  0.00    -0.051 A 
ATOM      7  C   UNL     1      -0.679  10.314  19.718  0.00  0.00    +0.014 C 
ATOM      8  C   UNL     1      -1.398   9.726  18.519  0.00  0.00    -0.008 C 
ATOM      9  C   UNL     1      -1.839  10.870  17.621  0.00  0.00    +0.090 C 
ATOM     10  O   UNL     1      -2.812  11.699  18.272  0.00  0.00    -0.492 OA
ATOM     11  C   UNL     1       0.022   9.326  20.631  0.00  0.00    -0.030 C 
ATOM     12  C   UNL     1       0.849  10.281  19.796  0.00  0.00    +0.046 C 
ATOM     13  H   UNL     1      -3.485  14.585  21.637  0.00  0.00    +0.062 HD
ATOM     14  H   UNL     1      -3.968  13.657  19.408  0.00  0.00    +0.065 HD
ATOM     15  H   UNL     1      -0.357  11.676  22.155  0.00  0.00    +0.062 HD
ATOM     16  H   UNL     1      -2.273   9.172  18.874  0.00  0.00    +0.031 HD
ATOM     17  H   UNL     1      -0.774   9.022  17.961  0.00  0.00    +0.031 HD
ATOM     18  H   UNL     1      -2.311  10.468  16.718  0.00  0.00    +0.070 HD
ATOM     19  H   UNL     1      -0.998  11.491  17.299  0.00  0.00    +0.070 HD
ATOM     20  H   UNL     1      -0.012   9.472  21.703  0.00  0.00    +0.028 HD
ATOM     21  H   UNL     1      -0.004   8.277  20.352  0.00  0.00    +0.028 HD
ATOM     22  H   UNL     1       1.325  11.107  20.318  0.00  0.00    +0.040 HD
ENDROOT
BRANCH  12  23
ATOM     23  C   UNL     1       1.682   9.782  18.673  0.00  0.00    +0.217 C 
ATOM     24  O   UNL     1       2.075  10.539  17.799  0.00  0.00    -0.275 OA
ATOM     25  N   UNL     1       1.981   8.449  18.760  0.00  0.00    -0.311 N 
ATOM     26  H   UNL     1       1.725   7.954  19.601  0.00  0.00    +0.149 HD
BRANCH  25  27
ATOM     27  C   UNL     1       2.926   7.831  17.861  0.00  0.00    +0.037 C 
ATOM     28  H   UNL     1       3.880   8.356  17.924  0.00  0.00    +0.051 HD
ATOM     29  H   UNL     1       2.551   7.953  16.839  0.00  0.00    +0.051 HD
BRANCH  27  30
ATOM     30  C   UNL     1       3.101   6.366  18.174  0.00  0.00    -0.030 A 
ATOM     31  C   UNL     1       3.946   5.563  17.398  0.00  0.00    -0.057 A 
ATOM     32  C   UNL     1       4.053   4.192  17.656  0.00  0.00    -0.061 A 
ATOM     33  C   UNL     1       3.337   3.616  18.703  0.00  0.00    -0.050 A 
ATOM     34  C   UNL     1       2.506   4.407  19.503  0.00  0.00    +0.037 A 
ATOM     35  C   UNL     1       2.373   5.773  19.223  0.00  0.00    -0.045 A 
ATOM     36  H   UNL     1       4.508   5.999  16.571  0.00  0.00    +0.062 HD
ATOM     37  H   UNL     1       4.688   3.570  17.036  0.00  0.00    +0.062 HD
ATOM     38  H   UNL     1       3.422   2.547  18.899  0.00  0.00    +0.063 HD
ATOM     39  H   UNL     1       1.677   6.385  19.788  0.00  0.00    +0.063 HD
BRANCH  34  40
ATOM     40  C   UNL     1       1.767   3.748  20.627  0.00  0.00    +0.242 C 
ATOM     41  N   UNL     1       0.508   3.272  20.372  0.00  0.00    -0.325 N 
ATOM     42  O   UNL     1       2.247   3.657  21.750  0.00  0.00    -0.270 OA
ATOM     43  H   UNL     1       0.016   3.442  19.504  0.00  0.00    +0.145 HD
ATOM     44  H   UNL     1      -0.026   2.922  21.160  0.00  0.00    +0.145 HD
ENDBRANCH  34  40
ENDBRANCH  27  30
ENDBRANCH  25  27
ENDBRANCH  12  23
BRANCH   1  45
ATOM     45  C   UNL     1      -1.542  13.735  23.437  0.00  0.00    -0.022 C 
ATOM     46  H   UNL     1      -0.963  12.975  23.982  0.00  0.00    +0.034 HD
BRANCH  45  47
ATOM     47  C   UNL     1      -0.669  14.992  23.369  0.00  0.00    -0.059 C 
ATOM     48  H   UNL     1       0.211  14.919  24.022  0.00  0.00    +0.024 HD
ATOM     49  H   UNL     1      -0.312  15.157  22.344  0.00  0.00    +0.024 HD
ATOM     50  H   UNL     1      -1.236  15.879  23.670  0.00  0.00    +0.024 HD
ENDBRANCH  45  47
BRANCH  45  51
ATOM     51  C   UNL     1      -2.814  13.999  24.251  0.00  0.00    -0.059 C 
ATOM     52  H   UNL     1      -3.014  13.175  24.944  0.00  0.00    +0.024 HD
ATOM     53  H   UNL     1      -3.693  14.115  23.607  0.00  0.00    +0.024 HD
ATOM     54  H   UNL     1      -2.710  14.917  24.841  0.00  0.00    +0.024 HD
ENDBRANCH  45  51
ENDBRANCH   1  45
TORSDOF 7
ENDMDL
MODEL 7
REMARK VINA RESULT:    -7.221      5.150      7.056
REMARK INTER + INTRA:         -10.239
REMARK INTER:                 -10.105
REMARK INTRA:                  -0.134
REMARK UNBOUND:                -0.484
REMARK  Name = 
REMARK  7 active torsions:
REMARK  status: ('A' for Active; 'I' for Inactive)
REMARK    1  A    between atoms: C_1  and  C_2
REMARK    2  A    between atoms: C_2  and  C_3
REMARK    3  A    between atoms: C_2  and  C_4
REMARK    4  A    between atoms: C_15  and  C_16
REMARK    5  A    between atoms: N_18  and  C_19
REMARK    6  A    between atoms: C_19  and  C_20
REMARK    7  A    between atoms: C_24  and  C_25
REMARK                            x       y       z     vdW  Elec       q    Type
REMARK                         _______ _______ _______ _____ _____    ______ ____
ROOT
ATOM      1  C   UNL     1       3.156   4.346  19.455  0.00  0.00    -0.044 A 
ATOM      2  C   UNL     1       2.727   3.618  18.338  0.00  0.00    -0.055 A 
ATOM      3  C   UNL     1       3.565   3.465  17.236  0.00  0.00    -0.019 A 
ATOM      4  C   UNL     1       4.842   4.037  17.237  0.00  0.00    +0.124 A 
ATOM      5  C   UNL     1       5.329   4.757  18.347  0.00  0.00    +0.002 A 
ATOM      6  C   UNL     1       4.449   4.905  19.438  0.00  0.00    -0.051 A 
ATOM      7  C   UNL     1       6.759   5.307  18.322  0.00  0.00    +0.014 C 
ATOM      8  C   UNL     1       7.574   4.706  17.193  0.00  0.00    -0.008 C 
ATOM      9  C   UNL     1       6.711   4.680  15.944  0.00  0.00    +0.090 C 
ATOM     10  O   UNL     1       5.587   3.802  16.103  0.00  0.00    -0.492 OA
ATOM     11  C   UNL     1       7.511   5.612  19.603  0.00  0.00    -0.030 C 
ATOM     12  C   UNL     1       6.991   6.756  18.757  0.00  0.00    +0.046 C 
ATOM     13  H   UNL     1       1.742   3.159  18.316  0.00  0.00    +0.062 HD
ATOM     14  H   UNL     1       3.228   2.897  16.371  0.00  0.00    +0.065 HD
ATOM     15  H   UNL     1       4.777   5.468  20.308  0.00  0.00    +0.062 HD
ATOM     16  H   UNL     1       7.858   3.686  17.472  0.00  0.00    +0.031 HD
ATOM     17  H   UNL     1       8.500   5.258  17.005  0.00  0.00    +0.031 HD
ATOM     18  H   UNL     1       7.297   4.303  15.099  0.00  0.00    +0.070 HD
ATOM     19  H   UNL     1       6.349   5.676  15.670  0.00  0.00    +0.070 HD
ATOM     20  H   UNL     1       7.039   5.419  20.559  0.00  0.00    +0.028 HD
ATOM     21  H   UNL     1       8.580   5.419  19.620  0.00  0.00    +0.028 HD
ATOM     22  H   UNL     1       6.124   7.293  19.133  0.00  0.00    +0.040 HD
ENDROOT
BRANCH  12  23
ATOM     23  C   UNL     1       7.928   7.653  18.035  0.00  0.00    +0.217 C 
ATOM     24  O   UNL     1       7.965   7.670  16.814  0.00  0.00    -0.275 OA
ATOM     25  N   UNL     1       8.673   8.452  18.861  0.00  0.00    -0.311 N 
ATOM     26  H   UNL     1       8.455   8.456  19.847  0.00  0.00    +0.149 HD
BRANCH  25  27
ATOM     27  C   UNL     1       9.501   9.510  18.336  0.00  0.00    +0.037 C 
ATOM     28  H   UNL     1       9.332   9.600  17.262  0.00  0.00    +0.051 HD
ATOM     29  H   UNL     1      10.548   9.223  18.480  0.00  0.00    +0.051 HD
BRANCH  27  30
ATOM     30  C   UNL     1       9.224  10.819  19.032  0.00  0.00    -0.030 A 
ATOM     31  C   UNL     1       9.077  12.003  18.300  0.00  0.00    -0.057 A 
ATOM     32  C   UNL     1       8.884  13.223  18.959  0.00  0.00    -0.061 A 
ATOM     33  C   UNL     1       8.813  13.267  20.349  0.00  0.00    -0.050 A 
ATOM     34  C   UNL     1       8.935  12.090  21.095  0.00  0.00    +0.037 A 
ATOM     35  C   UNL     1       9.162  10.875  20.437  0.00  0.00    -0.045 A 
ATOM     36  H   UNL     1       9.136  11.984  17.211  0.00  0.00    +0.062 HD
ATOM     37  H   UNL     1       8.797  14.141  18.389  0.00  0.00    +0.062 HD
ATOM     38  H   UNL     1       8.665  14.219  20.858  0.00  0.00    +0.063 HD
ATOM     39  H   UNL     1       9.332   9.965  21.006  0.00  0.00    +0.063 HD
BRANCH  34  40
ATOM     40  C   UNL     1       8.837  12.184  22.587  0.00  0.00    +0.242 C 
ATOM     41  N   UNL     1       8.523  11.045  23.280  0.00  0.00    -0.325 N 
ATOM     42  O   UNL     1       8.999  13.244  23.179  0.00  0.00    -0.270 OA
ATOM     43  H   UNL     1       8.247  10.181  22.831  0.00  0.00    +0.145 HD
ATOM     44  H   UNL     1       8.355  11.138  24.276  0.00  0.00    +0.145 HD
ENDBRANCH  34  40
ENDBRANCH  27  30
ENDBRANCH  25  27
ENDBRANCH  12  23
BRANCH   1  45
ATOM     45  C   UNL     1       2.273   4.529  20.678  0.00  0.00    -0.022 C 
ATOM     46  H   UNL     1       2.898   4.439  21.578  0.00  0.00    +0.034 HD
BRANCH  45  47
ATOM     47  C   UNL     1       1.634   5.920  20.719  0.00  0.00    -0.059 C 
ATOM     48  H   UNL     1       2.062   6.548  21.512  0.00  0.00    +0.024 HD
ATOM     49  H   UNL     1       1.782   6.441  19.764  0.00  0.00    +0.024 HD
ATOM     50  H   UNL     1       0.555   5.850  20.896  0.00  0.00    +0.024 HD
ENDBRANCH  45  47
BRANCH  45  51
ATOM     51  C   UNL     1       1.203   3.436  20.762  0.00  0.00    -0.059 C 
ATOM     52  H   UNL     1       1.589   2.479  20.393  0.00  0.00    +0.024 HD
ATOM     53  H   UNL     1       0.315   3.688  20.172  0.00  0.00    +0.024 HD
ATOM     54  H   UNL     1       0.882   3.290  21.800  0.00  0.00    +0.024 HD
ENDBRANCH  45  51
ENDBRANCH   1  45
TORSDOF 7
ENDMDL
MODEL 8
REMARK VINA RESULT:    -7.203      3.109     10.652
REMARK INTER + INTRA:         -10.214
REMARK INTER:                  -9.620
REMARK INTRA:                  -0.595
REMARK UNBOUND:                -0.484
REMARK  Name = 
REMARK  7 active torsions:
REMARK  status: ('A' for Active; 'I' for Inactive)
REMARK    1  A    between atoms: C_1  and  C_2
REMARK    2  A    between atoms: C_2  and  C_3
REMARK    3  A    between atoms: C_2  and  C_4
REMARK    4  A    between atoms: C_15  and  C_16
REMARK    5  A    between atoms: N_18  and  C_19
REMARK    6  A    between atoms: C_19  and  C_20
REMARK    7  A    between atoms: C_24  and  C_25
REMARK                            x       y       z     vdW  Elec       q    Type
REMARK                         _______ _______ _______ _____ _____    ______ ____
ROOT
ATOM      1  C   UNL     1      -2.297  13.241  22.344  0.00  0.00    -0.044 A 
ATOM      2  C   UNL     1      -3.336  13.785  21.577  0.00  0.00    -0.055 A 
ATOM      3  C   UNL     1      -3.569  13.325  20.284  0.00  0.00    -0.019 A 
ATOM      4  C   UNL     1      -2.769  12.315  19.741  0.00  0.00    +0.124 A 
ATOM      5  C   UNL     1      -1.728  11.717  20.480  0.00  0.00    +0.002 A 
ATOM      6  C   UNL     1      -1.510  12.219  21.780  0.00  0.00    -0.051 A 
ATOM      7  C   UNL     1      -0.924  10.569  19.862  0.00  0.00    +0.014 C 
ATOM      8  C   UNL     1      -1.594  10.017  18.619  0.00  0.00    -0.008 C 
ATOM      9  C   UNL     1      -2.083  11.188  17.782  0.00  0.00    +0.090 C 
ATOM     10  O   UNL     1      -3.107  11.926  18.464  0.00  0.00    -0.492 OA
ATOM     11  C   UNL     1      -0.184   9.566  20.726  0.00  0.00    -0.030 C 
ATOM     12  C   UNL     1       0.603  10.611  19.963  0.00  0.00    +0.046 C 
ATOM     13  H   UNL     1      -3.976  14.567  21.981  0.00  0.00    +0.062 HD
ATOM     14  H   UNL     1      -4.379  13.750  19.694  0.00  0.00    +0.065 HD
ATOM     15  H   UNL     1      -0.707  11.799  22.379  0.00  0.00    +0.062 HD
ATOM     16  H   UNL     1      -2.443   9.398  18.925  0.00  0.00    +0.031 HD
ATOM     17  H   UNL     1      -0.927   9.381  18.030  0.00  0.00    +0.031 HD
ATOM     18  H   UNL     1      -2.520  10.816  16.849  0.00  0.00    +0.070 HD
ATOM     19  H   UNL     1      -1.271  11.870  17.511  0.00  0.00    +0.070 HD
ATOM     20  H   UNL     1      -0.241   9.646  21.805  0.00  0.00    +0.028 HD
ATOM     21  H   UNL     1      -0.151   8.535  20.386  0.00  0.00    +0.028 HD
ATOM     22  H   UNL     1       1.027  11.428  20.541  0.00  0.00    +0.040 HD
ENDROOT
BRANCH  12  23
ATOM     23  C   UNL     1       1.477  10.223  18.827  0.00  0.00    +0.217 C 
ATOM     24  O   UNL     1       2.004  11.071  18.123  0.00  0.00    -0.275 OA
ATOM     25  N   UNL     1       1.649   8.870  18.701  0.00  0.00    -0.311 N 
ATOM     26  H   UNL     1       1.283   8.272  19.427  0.00  0.00    +0.149 HD
BRANCH  25  27
ATOM     27  C   UNL     1       2.604   8.318  17.772  0.00  0.00    +0.037 C 
ATOM     28  H   UNL     1       3.430   9.020  17.645  0.00  0.00    +0.051 HD
ATOM     29  H   UNL     1       2.110   8.214  16.801  0.00  0.00    +0.051 HD
BRANCH  27  30
ATOM     30  C   UNL     1       3.110   6.977  18.240  0.00  0.00    -0.030 A 
ATOM     31  C   UNL     1       2.516   6.326  19.328  0.00  0.00    -0.057 A 
ATOM     32  C   UNL     1       3.033   5.112  19.796  0.00  0.00    -0.061 A 
ATOM     33  C   UNL     1       4.131   4.528  19.168  0.00  0.00    -0.050 A 
ATOM     34  C   UNL     1       4.723   5.153  18.065  0.00  0.00    +0.037 A 
ATOM     35  C   UNL     1       4.226   6.384  17.619  0.00  0.00    -0.045 A 
ATOM     36  H   UNL     1       1.660   6.775  19.833  0.00  0.00    +0.062 HD
ATOM     37  H   UNL     1       2.586   4.626  20.655  0.00  0.00    +0.062 HD
ATOM     38  H   UNL     1       4.531   3.584  19.537  0.00  0.00    +0.063 HD
ATOM     39  H   UNL     1       4.720   6.916  16.812  0.00  0.00    +0.063 HD
BRANCH  34  40
ATOM     40  C   UNL     1       5.891   4.480  17.413  0.00  0.00    +0.242 C 
ATOM     41  N   UNL     1       7.043   4.348  18.144  0.00  0.00    -0.325 N 
ATOM     42  O   UNL     1       5.845   4.085  16.254  0.00  0.00    -0.270 OA
ATOM     43  H   UNL     1       7.176   4.776  19.051  0.00  0.00    +0.145 HD
ATOM     44  H   UNL     1       7.860   3.988  17.664  0.00  0.00    +0.145 HD
ENDBRANCH  34  40
ENDBRANCH  27  30
ENDBRANCH  25  27
ENDBRANCH  12  23
BRANCH   1  45
ATOM     45  C   UNL     1      -2.016  13.713  23.760  0.00  0.00    -0.022 C 
ATOM     46  H   UNL     1      -1.540  12.892  24.316  0.00  0.00    +0.034 HD
BRANCH  45  47
ATOM     47  C   UNL     1      -1.038  14.891  23.788  0.00  0.00    -0.059 C 
ATOM     48  H   UNL     1      -0.952  15.379  22.808  0.00  0.00    +0.024 HD
ATOM     49  H   UNL     1      -1.369  15.650  24.510  0.00  0.00    +0.024 HD
ATOM     50  H   UNL     1      -0.036  14.563  24.087  0.00  0.00    +0.024 HD
ENDBRANCH  45  47
BRANCH  45  51
ATOM     51  C   UNL     1      -3.312  14.065  24.499  0.00  0.00    -0.059 C 
ATOM     52  H   UNL     1      -4.150  13.465  24.128  0.00  0.00    +0.024 HD
ATOM     53  H   UNL     1      -3.577  15.121  24.378  0.00  0.00    +0.024 HD
ATOM     54  H   UNL     1      -3.208  13.869  25.573  0.00  0.00    +0.024 HD
ENDBRANCH  45  51
ENDBRANCH   1  45
TORSDOF 7
ENDMDL
MODEL 9
REMARK VINA RESULT:    -7.165      2.528      4.275
REMARK INTER + INTRA:         -10.163
REMARK INTER:                  -9.593
REMARK INTRA:                  -0.569
REMARK UNBOUND:                -0.484
REMARK  Name = 
REMARK  7 active torsions:
REMARK  status: ('A' for Active; 'I' for Inactive)
REMARK    1  A    between atoms: C_1  and  C_2
REMARK    2  A    between atoms: C_2  and  C_3
REMARK    3  A    between atoms: C_2  and  C_4
REMARK    4  A    between atoms: C_15  and  C_16
REMARK    5  A    between atoms: N_18  and  C_19
REMARK    6  A    between atoms: C_19  and  C_20
REMARK    7  A    between atoms: C_24  and  C_25
REMARK                            x       y       z     vdW  Elec       q    Type
REMARK                         _______ _______ _______ _____ _____    ______ ____
ROOT
ATOM      1  C   UNL     1       6.342   5.575  17.597  0.00  0.00    -0.044 A 
ATOM      2  C   UNL     1       6.205   4.276  17.090  0.00  0.00    -0.055 A 
ATOM      3  C   UNL     1       4.946   3.686  17.004  0.00  0.00    -0.019 A 
ATOM      4  C   UNL     1       3.810   4.386  17.423  0.00  0.00    +0.124 A 
ATOM      5  C   UNL     1       3.893   5.704  17.917  0.00  0.00    +0.002 A 
ATOM      6  C   UNL     1       5.184   6.264  18.005  0.00  0.00    -0.051 A 
ATOM      7  C   UNL     1       2.611   6.450  18.301  0.00  0.00    +0.014 C 
ATOM      8  C   UNL     1       1.372   5.746  17.781  0.00  0.00    -0.008 C 
ATOM      9  C   UNL     1       1.532   4.256  18.032  0.00  0.00    +0.090 C 
ATOM     10  O   UNL     1       2.619   3.711  17.271  0.00  0.00    -0.492 OA
ATOM     11  C   UNL     1       2.557   7.965  18.333  0.00  0.00    -0.030 C 
ATOM     12  C   UNL     1       2.573   7.195  19.637  0.00  0.00    +0.046 C 
ATOM     13  H   UNL     1       7.073   3.715  16.751  0.00  0.00    +0.062 HD
ATOM     14  H   UNL     1       4.844   2.678  16.606  0.00  0.00    +0.065 HD
ATOM     15  H   UNL     1       5.296   7.271  18.396  0.00  0.00    +0.062 HD
ATOM     16  H   UNL     1       1.288   5.936  16.707  0.00  0.00    +0.031 HD
ATOM     17  H   UNL     1       0.454   6.114  18.247  0.00  0.00    +0.031 HD
ATOM     18  H   UNL     1       0.624   3.730  17.717  0.00  0.00    +0.070 HD
ATOM     19  H   UNL     1       1.688   4.028  19.091  0.00  0.00    +0.070 HD
ATOM     20  H   UNL     1       3.434   8.537  18.059  0.00  0.00    +0.028 HD
ATOM     21  H   UNL     1       1.633   8.444  18.021  0.00  0.00    +0.028 HD
ATOM     22  H   UNL     1       3.497   7.211  20.208  0.00  0.00    +0.040 HD
ENDROOT
BRANCH  12  23
ATOM     23  C   UNL     1       1.378   7.169  20.518  0.00  0.00    +0.217 C 
ATOM     24  O   UNL     1       0.993   6.124  21.022  0.00  0.00    -0.275 OA
ATOM     25  N   UNL     1       0.819   8.401  20.725  0.00  0.00    -0.311 N 
ATOM     26  H   UNL     1       1.307   9.213  20.376  0.00  0.00    +0.149 HD
BRANCH  25  27
ATOM     27  C   UNL     1      -0.234   8.596  21.692  0.00  0.00    +0.037 C 
ATOM     28  H   UNL     1       0.095   8.221  22.663  0.00  0.00    +0.051 HD
ATOM     29  H   UNL     1      -1.094   7.993  21.383  0.00  0.00    +0.051 HD
BRANCH  27  30
ATOM     30  C   UNL     1      -0.629  10.048  21.786  0.00  0.00    -0.030 A 
ATOM     31  C   UNL     1      -1.001  10.612  23.013  0.00  0.00    -0.057 A 
ATOM     32  C   UNL     1      -1.428  11.943  23.079  0.00  0.00    -0.061 A 
ATOM     33  C   UNL     1      -1.465  12.727  21.928  0.00  0.00    -0.050 A 
ATOM     34  C   UNL     1      -1.075  12.187  20.699  0.00  0.00    +0.037 A 
ATOM     35  C   UNL     1      -0.680  10.845  20.627  0.00  0.00    -0.045 A 
ATOM     36  H   UNL     1      -0.983  10.008  23.921  0.00  0.00    +0.062 HD
ATOM     37  H   UNL     1      -1.740  12.367  24.027  0.00  0.00    +0.062 HD
ATOM     38  H   UNL     1      -1.800  13.763  21.985  0.00  0.00    +0.063 HD
ATOM     39  H   UNL     1      -0.446  10.392  19.669  0.00  0.00    +0.063 HD
BRANCH  34  40
ATOM     40  C   UNL     1      -1.117  13.072  19.491  0.00  0.00    +0.242 C 
ATOM     41  N   UNL     1      -1.680  12.568  18.348  0.00  0.00    -0.325 N 
ATOM     42  O   UNL     1      -0.639  14.200  19.500  0.00  0.00    -0.270 OA
ATOM     43  H   UNL     1      -1.964  11.602  18.249  0.00  0.00    +0.145 HD
ATOM     44  H   UNL     1      -1.611  13.131  17.508  0.00  0.00    +0.145 HD
ENDBRANCH  34  40
ENDBRANCH  27  30
ENDBRANCH  25  27
ENDBRANCH  12  23
BRANCH   1  45
ATOM     45  C   UNL     1       7.698   6.254  17.701  0.00  0.00    -0.022 C 
ATOM     46  H   UNL     1       8.373   5.803  16.960  0.00  0.00    +0.034 HD
BRANCH  45  47
ATOM     47  C   UNL     1       7.617   7.748  17.375  0.00  0.00    -0.059 C 
ATOM     48  H   UNL     1       8.219   8.354  18.065  0.00  0.00    +0.024 HD
ATOM     49  H   UNL     1       7.981   7.941  16.358  0.00  0.00    +0.024 HD
ATOM     50  H   UNL     1       6.583   8.105  17.432  0.00  0.00    +0.024 HD
ENDBRANCH  45  47
BRANCH  45  51
ATOM     51  C   UNL     1       8.330   6.031  19.079  0.00  0.00    -0.059 C 
ATOM     52  H   UNL     1       8.030   6.816  19.781  0.00  0.00    +0.024 HD
ATOM     53  H   UNL     1       9.425   6.028  19.030  0.00  0.00    +0.024 HD
ATOM     54  H   UNL     1       8.013   5.068  19.497  0.00  0.00    +0.024 HD
ENDBRANCH  45  51
ENDBRANCH   1  45
TORSDOF 7
ENDMDL
MODEL 10
REMARK VINA RESULT:    -7.104      2.826      8.772
REMARK INTER + INTRA:         -10.080
REMARK INTER:                 -10.295
REMARK INTRA:                   0.215
REMARK UNBOUND:                -0.484
REMARK  Name = 
REMARK  7 active torsions:
REMARK  status: ('A' for Active; 'I' for Inactive)
REMARK    1  A    between atoms: C_1  and  C_2
REMARK    2  A    between atoms: C_2  and  C_3
REMARK    3  A    between atoms: C_2  and  C_4
REMARK    4  A    between atoms: C_15  and  C_16
REMARK    5  A    between atoms: N_18  and  C_19
REMARK    6  A    between atoms: C_19  and  C_20
REMARK    7  A    between atoms: C_24  and  C_25
REMARK                            x       y       z     vdW  Elec       q    Type
REMARK                         _______ _______ _______ _____ _____    ______ ____
ROOT
ATOM      1  C   UNL     1      -2.375  11.177  17.708  0.00  0.00    -0.044 A 
ATOM      2  C   UNL     1      -2.868  11.724  18.900  0.00  0.00    -0.055 A 
ATOM      3  C   UNL     1      -2.139  11.608  20.080  0.00  0.00    -0.019 A 
ATOM      4  C   UNL     1      -0.908  10.945  20.085  0.00  0.00    +0.124 A 
ATOM      5  C   UNL     1      -0.356  10.400  18.908  0.00  0.00    +0.002 A 
ATOM      6  C   UNL     1      -1.129  10.522  17.734  0.00  0.00    -0.051 A 
ATOM      7  C   UNL     1       1.026   9.741  18.955  0.00  0.00    +0.014 C 
ATOM      8  C   UNL     1       1.759  10.061  20.244  0.00  0.00    -0.008 C 
ATOM      9  C   UNL     1       0.776   9.930  21.395  0.00  0.00    +0.090 C 
ATOM     10  O   UNL     1      -0.268  10.911  21.304  0.00  0.00    -0.492 OA
ATOM     11  C   UNL     1       1.884   9.612  17.711  0.00  0.00    -0.030 C 
ATOM     12  C   UNL     1       1.210   8.380  18.279  0.00  0.00    +0.046 C 
ATOM     13  H   UNL     1      -3.820  12.251  18.919  0.00  0.00    +0.062 HD
ATOM     14  H   UNL     1      -2.526  12.037  21.003  0.00  0.00    +0.065 HD
ATOM     15  H   UNL     1      -0.749  10.101  16.807  0.00  0.00    +0.062 HD
ATOM     16  H   UNL     1       2.133  11.087  20.188  0.00  0.00    +0.031 HD
ATOM     17  H   UNL     1       2.624   9.411  20.407  0.00  0.00    +0.031 HD
ATOM     18  H   UNL     1       1.295  10.100  22.344  0.00  0.00    +0.070 HD
ATOM     19  H   UNL     1       0.326   8.934  21.445  0.00  0.00    +0.070 HD
ATOM     20  H   UNL     1       1.525  10.011  16.771  0.00  0.00    +0.028 HD
ATOM     21  H   UNL     1       2.959   9.718  17.826  0.00  0.00    +0.028 HD
ATOM     22  H   UNL     1       0.353   7.992  17.734  0.00  0.00    +0.040 HD
ENDROOT
BRANCH  12  23
ATOM     23  C   UNL     1       2.010   7.295  18.900  0.00  0.00    +0.217 C 
ATOM     24  O   UNL     1       2.315   7.338  20.082  0.00  0.00    -0.275 OA
ATOM     25  N   UNL     1       2.308   6.270  18.043  0.00  0.00    -0.311 N 
ATOM     26  H   UNL     1       1.881   6.272  17.128  0.00  0.00    +0.149 HD
BRANCH  25  27
ATOM     27  C   UNL     1       2.919   5.051  18.514  0.00  0.00    +0.037 C 
ATOM     28  H   UNL     1       2.328   4.198  18.175  0.00  0.00    +0.051 HD
ATOM     29  H   UNL     1       2.888   5.057  19.608  0.00  0.00    +0.051 HD
BRANCH  27  30
ATOM     30  C   UNL     1       4.346   4.935  18.038  0.00  0.00    -0.030 A 
ATOM     31  C   UNL     1       4.658   4.227  16.871  0.00  0.00    -0.057 A 
ATOM     32  C   UNL     1       5.990   4.071  16.473  0.00  0.00    -0.061 A 
ATOM     33  C   UNL     1       7.018   4.638  17.223  0.00  0.00    -0.050 A 
ATOM     34  C   UNL     1       6.723   5.368  18.379  0.00  0.00    +0.037 A 
ATOM     35  C   UNL     1       5.392   5.495  18.795  0.00  0.00    -0.045 A 
ATOM     36  H   UNL     1       3.863   3.773  16.278  0.00  0.00    +0.062 HD
ATOM     37  H   UNL     1       6.228   3.500  15.583  0.00  0.00    +0.062 HD
ATOM     38  H   UNL     1       8.055   4.512  16.910  0.00  0.00    +0.063 HD
ATOM     39  H   UNL     1       5.154   5.995  19.729  0.00  0.00    +0.063 HD
BRANCH  34  40
ATOM     40  C   UNL     1       7.860   5.971  19.144  0.00  0.00    +0.242 C 
ATOM     41  N   UNL     1       8.279   5.329  20.280  0.00  0.00    -0.325 N 
ATOM     42  O   UNL     1       8.387   7.021  18.798  0.00  0.00    -0.270 OA
ATOM     43  H   UNL     1       7.792   4.538  20.682  0.00  0.00    +0.145 HD
ATOM     44  H   UNL     1       8.976   5.796  20.849  0.00  0.00    +0.145 HD
ENDBRANCH  34  40
ENDBRANCH  27  30
ENDBRANCH  25  27
ENDBRANCH  12  23
BRANCH   1  45
ATOM     45  C   UNL     1      -3.138  11.290  16.400  0.00  0.00    -0.022 C 
ATOM     46  H   UNL     1      -2.776  12.174  15.856  0.00  0.00    +0.034 HD
BRANCH  45  47
ATOM     47  C   UNL     1      -2.897  10.082  15.490  0.00  0.00    -0.059 C 
ATOM     48  H   UNL     1      -2.411  10.366  14.547  0.00  0.00    +0.024 HD
ATOM     49  H   UNL     1      -2.252   9.346  15.989  0.00  0.00    +0.024 HD
ATOM     50  H   UNL     1      -3.840   9.583  15.243  0.00  0.00    +0.024 HD
ENDBRANCH  45  47
BRANCH  45  51
ATOM     51  C   UNL     1      -4.637  11.495  16.644  0.00  0.00    -0.059 C 
ATOM     52  H   UNL     1      -5.005  12.379  16.111  0.00  0.00    +0.024 HD
ATOM     53  H   UNL     1      -4.862  11.631  17.708  0.00  0.00    +0.024 HD
ATOM     54  H   UNL     1      -5.208  10.629  16.291  0.00  0.00    +0.024 HD
ENDBRANCH  45  51
ENDBRANCH   1  45
TORSDOF 7
ENDMDL
MODEL 11
REMARK VINA RESULT:    -7.077      3.243      4.861
REMARK INTER + INTRA:         -10.043
REMARK INTER:                  -9.516
REMARK INTRA:                  -0.528
REMARK UNBOUND:                -0.484
REMARK  Name = 
REMARK  7 active torsions:
REMARK  status: ('A' for Active; 'I' for Inactive)
REMARK    1  A    between atoms: C_1  and  C_2
REMARK    2  A    between atoms: C_2  and  C_3
REMARK    3  A    between atoms: C_2  and  C_4
REMARK    4  A    between atoms: C_15  and  C_16
REMARK    5  A    between atoms: N_18  and  C_19
REMARK    6  A    between atoms: C_19  and  C_20
REMARK    7  A    between atoms: C_24  and  C_25
REMARK                            x       y       z     vdW  Elec       q    Type
REMARK                         _______ _______ _______ _____ _____    ______ ____
ROOT
ATOM      1  C   UNL     1       5.970   5.225  17.992  0.00  0.00    -0.044 A 
ATOM      2  C   UNL     1       6.035   3.994  18.657  0.00  0.00    -0.055 A 
ATOM      3  C   UNL     1       4.960   3.553  19.425  0.00  0.00    -0.019 A 
ATOM      4  C   UNL     1       3.807   4.336  19.537  0.00  0.00    +0.124 A 
ATOM      5  C   UNL     1       3.682   5.570  18.867  0.00  0.00    +0.002 A 
ATOM      6  C   UNL     1       4.796   5.993  18.111  0.00  0.00    -0.051 A 
ATOM      7  C   UNL     1       2.372   6.358  18.971  0.00  0.00    +0.014 C 
ATOM      8  C   UNL     1       1.251   5.514  19.546  0.00  0.00    -0.008 C 
ATOM      9  C   UNL     1       1.803   4.730  20.725  0.00  0.00    +0.090 C 
ATOM     10  O   UNL     1       2.802   3.789  20.304  0.00  0.00    -0.492 OA
ATOM     11  C   UNL     1       1.974   7.372  17.916  0.00  0.00    -0.030 C 
ATOM     12  C   UNL     1       2.444   7.857  19.272  0.00  0.00    +0.046 C 
ATOM     13  H   UNL     1       6.919   3.364  18.579  0.00  0.00    +0.062 HD
ATOM     14  H   UNL     1       5.015   2.594  19.938  0.00  0.00    +0.065 HD
ATOM     15  H   UNL     1       4.749   6.946  17.593  0.00  0.00    +0.062 HD
ATOM     16  H   UNL     1       0.900   4.825  18.772  0.00  0.00    +0.031 HD
ATOM     17  H   UNL     1       0.392   6.115  19.858  0.00  0.00    +0.031 HD
ATOM     18  H   UNL     1       0.998   4.155  21.194  0.00  0.00    +0.070 HD
ATOM     19  H   UNL     1       2.228   5.382  21.494  0.00  0.00    +0.070 HD
ATOM     20  H   UNL     1       2.615   7.532  17.058  0.00  0.00    +0.028 HD
ATOM     21  H   UNL     1       0.919   7.455  17.669  0.00  0.00    +0.028 HD
ATOM     22  H   UNL     1       3.438   8.293  19.322  0.00  0.00    +0.040 HD
ENDROOT
BRANCH  12  23
ATOM     23  C   UNL     1       1.502   8.516  20.211  0.00  0.00    +0.217 C 
ATOM     24  O   UNL     1       1.418   8.152  21.374  0.00  0.00    -0.275 OA
ATOM     25  N   UNL     1       0.809   9.559  19.656  0.00  0.00    -0.311 N 
ATOM     26  H   UNL     1       1.065   9.863  18.728  0.00  0.00    +0.149 HD
BRANCH  25  27
ATOM     27  C   UNL     1      -0.013  10.428  20.462  0.00  0.00    +0.037 C 
ATOM     28  H   UNL     1       0.597  11.247  20.845  0.00  0.00    +0.051 HD
ATOM     29  H   UNL     1      -0.370   9.854  21.323  0.00  0.00    +0.051 HD
BRANCH  27  30
ATOM     30  C   UNL     1      -1.184  10.959  19.674  0.00  0.00    -0.030 A 
ATOM     31  C   UNL     1      -2.078  11.872  20.245  0.00  0.00    -0.057 A 
ATOM     32  C   UNL     1      -3.198  12.310  19.529  0.00  0.00    -0.061 A 
ATOM     33  C   UNL     1      -3.422  11.857  18.230  0.00  0.00    -0.050 A 
ATOM     34  C   UNL     1      -2.526  10.963  17.635  0.00  0.00    +0.037 A 
ATOM     35  C   UNL     1      -1.424  10.499  18.365  0.00  0.00    -0.045 A 
ATOM     36  H   UNL     1      -1.919  12.230  21.263  0.00  0.00    +0.062 HD
ATOM     37  H   UNL     1      -3.901  12.996  19.985  0.00  0.00    +0.062 HD
ATOM     38  H   UNL     1      -4.296  12.199  17.677  0.00  0.00    +0.063 HD
ATOM     39  H   UNL     1      -0.762   9.749  17.944  0.00  0.00    +0.063 HD
BRANCH  34  40
ATOM     40  C   UNL     1      -2.800  10.516  16.232  0.00  0.00    +0.242 C 
ATOM     41  N   UNL     1      -3.294  11.441  15.351  0.00  0.00    -0.325 N 
ATOM     42  O   UNL     1      -2.623   9.356  15.878  0.00  0.00    -0.270 OA
ATOM     43  H   UNL     1      -3.585  12.370  15.627  0.00  0.00    +0.145 HD
ATOM     44  H   UNL     1      -3.575  11.108  14.436  0.00  0.00    +0.145 HD
ENDBRANCH  34  40
ENDBRANCH  27  30
ENDBRANCH  25  27
ENDBRANCH  12  23
BRANCH   1  45
ATOM     45  C   UNL     1       7.120   5.736  17.140  0.00  0.00    -0.022 C 
ATOM     46  H   UNL     1       8.029   5.180  17.409  0.00  0.00    +0.034 HD
BRANCH  45  47
ATOM     47  C   UNL     1       6.878   5.496  15.648  0.00  0.00    -0.059 C 
ATOM     48  H   UNL     1       5.997   6.038  15.279  0.00  0.00    +0.024 HD
ATOM     49  H   UNL     1       7.744   5.826  15.059  0.00  0.00    +0.024 HD
ATOM     50  H   UNL     1       6.724   4.430  15.442  0.00  0.00    +0.024 HD
ENDBRANCH  45  47
BRANCH  45  51
ATOM     51  C   UNL     1       7.401   7.217  17.414  0.00  0.00    -0.059 C 
ATOM     52  H   UNL     1       6.973   7.850  16.629  0.00  0.00    +0.024 HD
ATOM     53  H   UNL     1       8.476   7.426  17.462  0.00  0.00    +0.024 HD
ATOM     54  H   UNL     1       6.960   7.524  18.370  0.00  0.00    +0.024 HD
ENDBRANCH  45  51
ENDBRANCH   1  45
TORSDOF 7
ENDMDL
MODEL 12
REMARK VINA RESULT:    -7.042      3.743      8.796
REMARK INTER + INTRA:          -9.997
REMARK INTER:                  -9.745
REMARK INTRA:                  -0.252
REMARK UNBOUND:                -0.484
REMARK  Name = 
REMARK  7 active torsions:
REMARK  status: ('A' for Active; 'I' for Inactive)
REMARK    1  A    between atoms: C_1  and  C_2
REMARK    2  A    between atoms: C_2  and  C_3
REMARK    3  A    between atoms: C_2  and  C_4
REMARK    4  A    between atoms: C_15  and  C_16
REMARK    5  A    between atoms: N_18  and  C_19
REMARK    6  A    between atoms: C_19  and  C_20
REMARK    7  A    between atoms: C_24  and  C_25
REMARK                            x       y       z     vdW  Elec       q    Type
REMARK                         _______ _______ _______ _____ _____    ______ ____
ROOT
ATOM      1  C   UNL     1      -2.829  11.484  17.809  0.00  0.00    -0.044 A 
ATOM      2  C   UNL     1      -3.340  12.023  18.996  0.00  0.00    -0.055 A 
ATOM      3  C   UNL     1      -2.565  12.033  20.154  0.00  0.00    -0.019 A 
ATOM      4  C   UNL     1      -1.270  11.505  20.138  0.00  0.00    +0.124 A 
ATOM      5  C   UNL     1      -0.701  10.974  18.963  0.00  0.00    +0.002 A 
ATOM      6  C   UNL     1      -1.520  10.966  17.814  0.00  0.00    -0.051 A 
ATOM      7  C   UNL     1       0.745  10.468  18.984  0.00  0.00    +0.014 C 
ATOM      8  C   UNL     1       1.480  10.916  20.233  0.00  0.00    -0.008 C 
ATOM      9  C   UNL     1       0.554  10.730  21.423  0.00  0.00    +0.090 C 
ATOM     10  O   UNL     1      -0.592  11.589  21.334  0.00  0.00    -0.492 OA
ATOM     11  C   UNL     1       1.571  10.380  17.716  0.00  0.00    -0.030 C 
ATOM     12  C   UNL     1       1.051   9.108  18.353  0.00  0.00    +0.046 C 
ATOM     13  H   UNL     1      -4.342  12.446  19.031  0.00  0.00    +0.062 HD
ATOM     14  H   UNL     1      -2.967  12.456  21.073  0.00  0.00    +0.065 HD
ATOM     15  H   UNL     1      -1.128  10.550  16.891  0.00  0.00    +0.062 HD
ATOM     16  H   UNL     1       1.739  11.974  20.125  0.00  0.00    +0.031 HD
ATOM     17  H   UNL     1       2.414  10.369  20.388  0.00  0.00    +0.031 HD
ATOM     18  H   UNL     1       1.082  10.992  22.346  0.00  0.00    +0.070 HD
ATOM     19  H   UNL     1       0.215   9.694  21.526  0.00  0.00    +0.070 HD
ATOM     20  H   UNL     1       1.141  10.700  16.775  0.00  0.00    +0.028 HD
ATOM     21  H   UNL     1       2.631  10.605  17.787  0.00  0.00    +0.028 HD
ATOM     22  H   UNL     1       0.225   8.609  17.855  0.00  0.00    +0.040 HD
ENDROOT
BRANCH  12  23
ATOM     23  C   UNL     1       1.983   8.140  18.985  0.00  0.00    +0.217 C 
ATOM     24  O   UNL     1       1.905   7.881  20.176  0.00  0.00    -0.275 OA
ATOM     25  N   UNL     1       2.863   7.568  18.106  0.00  0.00    -0.311 N 
ATOM     26  H   UNL     1       2.740   7.749  17.120  0.00  0.00    +0.149 HD
BRANCH  25  27
ATOM     27  C   UNL     1       3.718   6.476  18.503  0.00  0.00    +0.037 C 
ATOM     28  H   UNL     1       4.262   6.755  19.407  0.00  0.00    +0.051 HD
ATOM     29  H   UNL     1       4.457   6.320  17.710  0.00  0.00    +0.051 HD
BRANCH  27  30
ATOM     30  C   UNL     1       2.925   5.212  18.725  0.00  0.00    -0.030 A 
ATOM     31  C   UNL     1       2.038   4.742  17.749  0.00  0.00    -0.057 A 
ATOM     32  C   UNL     1       1.259   3.604  17.990  0.00  0.00    -0.061 A 
ATOM     33  C   UNL     1       1.375   2.916  19.196  0.00  0.00    -0.050 A 
ATOM     34  C   UNL     1       2.273   3.359  20.172  0.00  0.00    +0.037 A 
ATOM     35  C   UNL     1       3.027   4.517  19.944  0.00  0.00    -0.045 A 
ATOM     36  H   UNL     1       1.933   5.274  16.803  0.00  0.00    +0.062 HD
ATOM     37  H   UNL     1       0.555   3.259  17.242  0.00  0.00    +0.062 HD
ATOM     38  H   UNL     1       0.765   2.032  19.379  0.00  0.00    +0.063 HD
ATOM     39  H   UNL     1       3.673   4.914  20.721  0.00  0.00    +0.063 HD
BRANCH  34  40
ATOM     40  C   UNL     1       2.374   2.578  21.447  0.00  0.00    +0.242 C 
ATOM     41  N   UNL     1       1.273   2.538  22.261  0.00  0.00    -0.325 N 
ATOM     42  O   UNL     1       3.411   2.016  21.779  0.00  0.00    -0.270 OA
ATOM     43  H   UNL     1       0.444   3.094  22.100  0.00  0.00    +0.145 HD
ATOM     44  H   UNL     1       1.382   2.098  23.168  0.00  0.00    +0.145 HD
ENDBRANCH  34  40
ENDBRANCH  27  30
ENDBRANCH  25  27
ENDBRANCH  12  23
BRANCH   1  45
ATOM     45  C   UNL     1      -3.642  11.460  16.526  0.00  0.00    -0.022 C 
ATOM     46  H   UNL     1      -3.405  12.362  15.944  0.00  0.00    +0.034 HD
BRANCH  45  47
ATOM     47  C   UNL     1      -3.289  10.259  15.645  0.00  0.00    -0.059 C 
ATOM     48  H   UNL     1      -4.179   9.803  15.192  0.00  0.00    +0.024 HD
ATOM     49  H   UNL     1      -2.618  10.562  14.830  0.00  0.00    +0.024 HD
ATOM     50  H   UNL     1      -2.776   9.484  16.226  0.00  0.00    +0.024 HD
ENDBRANCH  45  47
BRANCH  45  51
ATOM     51  C   UNL     1      -5.147  11.497  16.817  0.00  0.00    -0.059 C 
ATOM     52  H   UNL     1      -5.405  10.817  17.637  0.00  0.00    +0.024 HD
ATOM     53  H   UNL     1      -5.739  11.206  15.943  0.00  0.00    +0.024 HD
ATOM     54  H   UNL     1      -5.458  12.507  17.109  0.00  0.00    +0.024 HD
ENDBRANCH  45  51
ENDBRANCH   1  45
TORSDOF 7
ENDMDL
MODEL 13
REMARK VINA RESULT:    -7.042      2.316      3.895
REMARK INTER + INTRA:          -9.996
REMARK INTER:                  -9.377
REMARK INTRA:                  -0.619
REMARK UNBOUND:                -0.484
REMARK  Name = 
REMARK  7 active torsions:
REMARK  status: ('A' for Active; 'I' for Inactive)
REMARK    1  A    between atoms: C_1  and  C_2
REMARK    2  A    between atoms: C_2  and  C_3
REMARK    3  A    between atoms: C_2  and  C_4
REMARK    4  A    between atoms: C_15  and  C_16
REMARK    5  A    between atoms: N_18  and  C_19
REMARK    6  A    between atoms: C_19  and  C_20
REMARK    7  A    between atoms: C_24  and  C_25
REMARK                            x       y       z     vdW  Elec       q    Type
REMARK                         _______ _______ _______ _____ _____    ______ ____
ROOT
ATOM      1  C   UNL     1       5.912   4.768  16.685  0.00  0.00    -0.044 A 
ATOM      2  C   UNL     1       5.636   3.415  16.455  0.00  0.00    -0.055 A 
ATOM      3  C   UNL     1       4.385   2.890  16.771  0.00  0.00    -0.019 A 
ATOM      4  C   UNL     1       3.395   3.712  17.319  0.00  0.00    +0.124 A 
ATOM      5  C   UNL     1       3.615   5.086  17.545  0.00  0.00    +0.002 A 
ATOM      6  C   UNL     1       4.898   5.579  17.229  0.00  0.00    -0.051 A 
ATOM      7  C   UNL     1       2.476   5.955  18.086  0.00  0.00    +0.014 C 
ATOM      8  C   UNL     1       1.137   5.247  18.002  0.00  0.00    -0.008 C 
ATOM      9  C   UNL     1       1.329   3.811  18.460  0.00  0.00    +0.090 C 
ATOM     10  O   UNL     1       2.193   3.089  17.570  0.00  0.00    -0.492 OA
ATOM     11  C   UNL     1       2.454   7.456  17.870  0.00  0.00    -0.030 C 
ATOM     12  C   UNL     1       2.773   6.910  19.246  0.00  0.00    +0.046 C 
ATOM     13  H   UNL     1       6.388   2.757  16.023  0.00  0.00    +0.062 HD
ATOM     14  H   UNL     1       4.175   1.838  16.588  0.00  0.00    +0.065 HD
ATOM     15  H   UNL     1       5.117   6.629  17.404  0.00  0.00    +0.062 HD
ATOM     16  H   UNL     1       0.798   5.264  16.961  0.00  0.00    +0.031 HD
ATOM     17  H   UNL     1       0.365   5.737  18.601  0.00  0.00    +0.031 HD
ATOM     18  H   UNL     1       0.364   3.293  18.463  0.00  0.00    +0.070 HD
ATOM     19  H   UNL     1       1.734   3.751  19.475  0.00  0.00    +0.070 HD
ATOM     20  H   UNL     1       3.248   7.925  17.303  0.00  0.00    +0.028 HD
ATOM     21  H   UNL     1       1.490   7.928  17.706  0.00  0.00    +0.028 HD
ATOM     22  H   UNL     1       3.808   6.967  19.571  0.00  0.00    +0.040 HD
ENDROOT
BRANCH  12  23
ATOM     23  C   UNL     1       1.826   7.094  20.374  0.00  0.00    +0.217 C 
ATOM     24  O   UNL     1       1.567   6.173  21.133  0.00  0.00    -0.275 OA
ATOM     25  N   UNL     1       1.342   8.370  20.484  0.00  0.00    -0.311 N 
ATOM     26  H   UNL     1       1.737   9.085  19.890  0.00  0.00    +0.149 HD
BRANCH  25  27
ATOM     27  C   UNL     1       0.555   8.780  21.621  0.00  0.00    +0.037 C 
ATOM     28  H   UNL     1       1.213   8.930  22.479  0.00  0.00    +0.051 HD
ATOM     29  H   UNL     1      -0.129   7.963  21.872  0.00  0.00    +0.051 HD
BRANCH  27  30
ATOM     30  C   UNL     1      -0.226  10.035  21.323  0.00  0.00    -0.030 A 
ATOM     31  C   UNL     1      -0.673  10.865  22.358  0.00  0.00    -0.057 A 
ATOM     32  C   UNL     1      -1.452  11.993  22.075  0.00  0.00    -0.061 A 
ATOM     33  C   UNL     1      -1.772  12.313  20.758  0.00  0.00    -0.050 A 
ATOM     34  C   UNL     1      -1.315  11.508  19.709  0.00  0.00    +0.037 A 
ATOM     35  C   UNL     1      -0.564  10.361  19.996  0.00  0.00    -0.045 A 
ATOM     36  H   UNL     1      -0.435  10.624  23.394  0.00  0.00    +0.062 HD
ATOM     37  H   UNL     1      -1.817  12.618  22.882  0.00  0.00    +0.062 HD
ATOM     38  H   UNL     1      -2.381  13.191  20.543  0.00  0.00    +0.063 HD
ATOM     39  H   UNL     1      -0.265   9.687  19.199  0.00  0.00    +0.063 HD
BRANCH  34  40
ATOM     40  C   UNL     1      -1.672  11.900  18.308  0.00  0.00    +0.242 C 
ATOM     41  N   UNL     1      -0.962  12.919  17.729  0.00  0.00    -0.325 N 
ATOM     42  O   UNL     1      -2.586  11.358  17.699  0.00  0.00    -0.270 OA
ATOM     43  H   UNL     1      -0.294  13.486  18.235  0.00  0.00    +0.145 HD
ATOM     44  H   UNL     1      -1.277  13.249  16.824  0.00  0.00    +0.145 HD
ENDBRANCH  34  40
ENDBRANCH  27  30
ENDBRANCH  25  27
ENDBRANCH  12  23
BRANCH   1  45
ATOM     45  C   UNL     1       7.263   5.378  16.348  0.00  0.00    -0.022 C 
ATOM     46  H   UNL     1       8.051   4.745  16.780  0.00  0.00    +0.034 HD
BRANCH  45  47
ATOM     47  C   UNL     1       7.510   5.423  14.837  0.00  0.00    -0.059 C 
ATOM     48  H   UNL     1       6.588   5.263  14.263  0.00  0.00    +0.024 HD
ATOM     49  H   UNL     1       7.921   6.398  14.543  0.00  0.00    +0.024 HD
ATOM     50  H   UNL     1       8.230   4.654  14.535  0.00  0.00    +0.024 HD
ENDBRANCH  45  47
BRANCH  45  51
ATOM     51  C   UNL     1       7.416   6.771  16.966  0.00  0.00    -0.059 C 
ATOM     52  H   UNL     1       8.308   6.824  17.600  0.00  0.00    +0.024 HD
ATOM     53  H   UNL     1       6.552   7.041  17.584  0.00  0.00    +0.024 HD
ATOM     54  H   UNL     1       7.516   7.532  16.183  0.00  0.00    +0.024 HD
ENDBRANCH  45  51
ENDBRANCH   1  45
TORSDOF 7
ENDMDL
MODEL 14
REMARK VINA RESULT:    -6.993      3.416     10.467
REMARK INTER + INTRA:          -9.930
REMARK INTER:                  -9.412
REMARK INTRA:                  -0.518
REMARK UNBOUND:                -0.484
REMARK  Name = 
REMARK  7 active torsions:
REMARK  status: ('A' for Active; 'I' for Inactive)
REMARK    1  A    between atoms: C_1  and  C_2
REMARK    2  A    between atoms: C_2  and  C_3
REMARK    3  A    between atoms: C_2  and  C_4
REMARK    4  A    between atoms: C_15  and  C_16
REMARK    5  A    between atoms: N_18  and  C_19
REMARK    6  A    between atoms: C_19  and  C_20
REMARK    7  A    between atoms: C_24  and  C_25
REMARK                            x       y       z     vdW  Elec       q    Type
REMARK                         _______ _______ _______ _____ _____    ______ ____
ROOT
ATOM      1  C   UNL     1      -2.644  12.899  22.542  0.00  0.00    -0.044 A 
ATOM      2  C   UNL     1      -1.831  13.829  23.201  0.00  0.00    -0.055 A 
ATOM      3  C   UNL     1      -0.545  14.093  22.734  0.00  0.00    -0.019 A 
ATOM      4  C   UNL     1      -0.058  13.431  21.603  0.00  0.00    +0.124 A 
ATOM      5  C   UNL     1      -0.846  12.505  20.889  0.00  0.00    +0.002 A 
ATOM      6  C   UNL     1      -2.137  12.251  21.400  0.00  0.00    -0.051 A 
ATOM      7  C   UNL     1      -0.288  11.856  19.619  0.00  0.00    +0.014 C 
ATOM      8  C   UNL     1       0.958  12.567  19.125  0.00  0.00    -0.008 C 
ATOM      9  C   UNL     1       1.844  12.862  20.323  0.00  0.00    +0.090 C 
ATOM     10  O   UNL     1       1.217  13.787  21.222  0.00  0.00    -0.492 OA
ATOM     11  C   UNL     1      -1.204  11.290  18.552  0.00  0.00    -0.030 C 
ATOM     12  C   UNL     1      -0.434  10.342  19.448  0.00  0.00    +0.046 C 
ATOM     13  H   UNL     1      -2.190  14.362  24.079  0.00  0.00    +0.062 HD
ATOM     14  H   UNL     1       0.082  14.819  23.248  0.00  0.00    +0.065 HD
ATOM     15  H   UNL     1      -2.772  11.531  20.891  0.00  0.00    +0.062 HD
ATOM     16  H   UNL     1       0.658  13.502  18.643  0.00  0.00    +0.031 HD
ATOM     17  H   UNL     1       1.506  11.981  18.381  0.00  0.00    +0.031 HD
ATOM     18  H   UNL     1       2.778  13.323  19.985  0.00  0.00    +0.070 HD
ATOM     19  H   UNL     1       2.111  11.955  20.874  0.00  0.00    +0.070 HD
ATOM     20  H   UNL     1      -2.278  11.362  18.676  0.00  0.00    +0.028 HD
ATOM     21  H   UNL     1      -0.897  11.394  17.515  0.00  0.00    +0.028 HD
ATOM     22  H   UNL     1      -0.999   9.821  20.216  0.00  0.00    +0.040 HD
ENDROOT
BRANCH  12  23
ATOM     23  C   UNL     1       0.663   9.504  18.901  0.00  0.00    +0.217 C 
ATOM     24  O   UNL     1       1.015   9.612  17.737  0.00  0.00    -0.275 OA
ATOM     25  N   UNL     1       1.233   8.672  19.827  0.00  0.00    -0.311 N 
ATOM     26  H   UNL     1       0.959   8.771  20.793  0.00  0.00    +0.149 HD
BRANCH  25  27
ATOM     27  C   UNL     1       2.426   7.919  19.526  0.00  0.00    +0.037 C 
ATOM     28  H   UNL     1       3.217   8.203  20.222  0.00  0.00    +0.051 HD
ATOM     29  H   UNL     1       2.758   8.198  18.520  0.00  0.00    +0.051 HD
BRANCH  27  30
ATOM     30  C   UNL     1       2.167   6.434  19.590  0.00  0.00    -0.030 A 
ATOM     31  C   UNL     1       1.552   5.862  20.710  0.00  0.00    -0.057 A 
ATOM     32  C   UNL     1       1.373   4.476  20.788  0.00  0.00    -0.061 A 
ATOM     33  C   UNL     1       1.787   3.654  19.742  0.00  0.00    -0.050 A 
ATOM     34  C   UNL     1       2.382   4.211  18.605  0.00  0.00    +0.037 A 
ATOM     35  C   UNL     1       2.591   5.595  18.542  0.00  0.00    -0.045 A 
ATOM     36  H   UNL     1       1.229   6.492  21.539  0.00  0.00    +0.062 HD
ATOM     37  H   UNL     1       0.921   4.035  21.669  0.00  0.00    +0.062 HD
ATOM     38  H   UNL     1       1.648   2.575  19.808  0.00  0.00    +0.063 HD
ATOM     39  H   UNL     1       3.118   6.034  17.701  0.00  0.00    +0.063 HD
BRANCH  34  40
ATOM     40  C   UNL     1       2.796   3.291  17.499  0.00  0.00    +0.242 C 
ATOM     41  N   UNL     1       2.225   2.046  17.456  0.00  0.00    -0.325 N 
ATOM     42  O   UNL     1       3.641   3.613  16.673  0.00  0.00    -0.270 OA
ATOM     43  H   UNL     1       1.628   1.684  18.189  0.00  0.00    +0.145 HD
ATOM     44  H   UNL     1       2.586   1.392  16.770  0.00  0.00    +0.145 HD
ENDBRANCH  34  40
ENDBRANCH  27  30
ENDBRANCH  25  27
ENDBRANCH  12  23
BRANCH   1  45
ATOM     45  C   UNL     1      -4.054  12.590  23.018  0.00  0.00    -0.022 C 
ATOM     46  H   UNL     1      -4.320  11.574  22.692  0.00  0.00    +0.034 HD
BRANCH  45  47
ATOM     47  C   UNL     1      -4.158  12.605  24.546  0.00  0.00    -0.059 C 
ATOM     48  H   UNL     1      -5.184  12.418  24.891  0.00  0.00    +0.024 HD
ATOM     49  H   UNL     1      -3.513  11.833  24.984  0.00  0.00    +0.024 HD
ATOM     50  H   UNL     1      -3.841  13.573  24.951  0.00  0.00    +0.024 HD
ENDBRANCH  45  47
BRANCH  45  51
ATOM     51  C   UNL     1      -5.076  13.545  22.393  0.00  0.00    -0.059 C 
ATOM     52  H   UNL     1      -4.667  14.029  21.499  0.00  0.00    +0.024 HD
ATOM     53  H   UNL     1      -5.377  14.334  23.091  0.00  0.00    +0.024 HD
ATOM     54  H   UNL     1      -5.980  13.001  22.096  0.00  0.00    +0.024 HD
ENDBRANCH  45  51
ENDBRANCH   1  45
TORSDOF 7
ENDMDL
MODEL 15
REMARK VINA RESULT:    -6.985      4.056     10.009
REMARK INTER + INTRA:          -9.919
REMARK INTER:                  -9.639
REMARK INTRA:                  -0.280
REMARK UNBOUND:                -0.484
REMARK  Name = 
REMARK  7 active torsions:
REMARK  status: ('A' for Active; 'I' for Inactive)
REMARK    1  A    between atoms: C_1  and  C_2
REMARK    2  A    between atoms: C_2  and  C_3
REMARK    3  A    between atoms: C_2  and  C_4
REMARK    4  A    between atoms: C_15  and  C_16
REMARK    5  A    between atoms: N_18  and  C_19
REMARK    6  A    between atoms: C_19  and  C_20
REMARK    7  A    between atoms: C_24  and  C_25
REMARK                            x       y       z     vdW  Elec       q    Type
REMARK                         _______ _______ _______ _____ _____    ______ ____
ROOT
ATOM      1  C   UNL     1      -1.981  12.847  22.423  0.00  0.00    -0.044 A 
ATOM      2  C   UNL     1      -1.150  13.875  22.888  0.00  0.00    -0.055 A 
ATOM      3  C   UNL     1       0.062  14.138  22.256  0.00  0.00    -0.019 A 
ATOM      4  C   UNL     1       0.460  13.379  21.151  0.00  0.00    +0.124 A 
ATOM      5  C   UNL     1      -0.352  12.352  20.628  0.00  0.00    +0.002 A 
ATOM      6  C   UNL     1      -1.565  12.102  21.303  0.00  0.00    -0.051 A 
ATOM      7  C   UNL     1       0.100  11.594  19.376  0.00  0.00    +0.014 C 
ATOM      8  C   UNL     1       1.248  12.296  18.676  0.00  0.00    -0.008 C 
ATOM      9  C   UNL     1       2.241  12.753  19.731  0.00  0.00    +0.090 C 
ATOM     10  O   UNL     1       1.666  13.744  20.596  0.00  0.00    -0.492 OA
ATOM     11  C   UNL     1      -0.895  10.880  18.481  0.00  0.00    -0.030 C 
ATOM     12  C   UNL     1       0.015  10.065  19.377  0.00  0.00    +0.046 C 
ATOM     13  H   UNL     1      -1.441  14.483  23.742  0.00  0.00    +0.062 HD
ATOM     14  H   UNL     1       0.703  14.939  22.621  0.00  0.00    +0.065 HD
ATOM     15  H   UNL     1      -2.213  11.307  20.944  0.00  0.00    +0.062 HD
ATOM     16  H   UNL     1       0.851  13.163  18.138  0.00  0.00    +0.031 HD
ATOM     17  H   UNL     1       1.743  11.658  17.938  0.00  0.00    +0.031 HD
ATOM     18  H   UNL     1       3.108  13.213  19.246  0.00  0.00    +0.070 HD
ATOM     19  H   UNL     1       2.611  11.922  20.339  0.00  0.00    +0.070 HD
ATOM     20  H   UNL     1      -1.951  10.922  18.716  0.00  0.00    +0.028 HD
ATOM     21  H   UNL     1      -0.705  10.886  17.411  0.00  0.00    +0.028 HD
ATOM     22  H   UNL     1      -0.437   9.607  20.252  0.00  0.00    +0.040 HD
ENDROOT
BRANCH  12  23
ATOM     23  C   UNL     1       1.089   9.218  18.800  0.00  0.00    +0.217 C 
ATOM     24  O   UNL     1       1.514   9.425  17.674  0.00  0.00    -0.275 OA
ATOM     25  N   UNL     1       1.553   8.256  19.657  0.00  0.00    -0.311 N 
ATOM     26  H   UNL     1       1.228   8.271  20.613  0.00  0.00    +0.149 HD
BRANCH  25  27
ATOM     27  C   UNL     1       2.713   7.462  19.337  0.00  0.00    +0.037 C 
ATOM     28  H   UNL     1       3.469   7.600  20.112  0.00  0.00    +0.051 HD
ATOM     29  H   UNL     1       3.133   7.837  18.398  0.00  0.00    +0.051 HD
BRANCH  27  30
ATOM     30  C   UNL     1       2.355   6.003  19.195  0.00  0.00    -0.030 A 
ATOM     31  C   UNL     1       2.011   5.468  17.948  0.00  0.00    -0.057 A 
ATOM     32  C   UNL     1       1.618   4.129  17.836  0.00  0.00    -0.061 A 
ATOM     33  C   UNL     1       1.588   3.310  18.963  0.00  0.00    -0.050 A 
ATOM     34  C   UNL     1       1.950   3.822  20.212  0.00  0.00    +0.037 A 
ATOM     35  C   UNL     1       2.311   5.171  20.329  0.00  0.00    -0.045 A 
ATOM     36  H   UNL     1       2.025   6.099  17.059  0.00  0.00    +0.062 HD
ATOM     37  H   UNL     1       1.328   3.726  16.873  0.00  0.00    +0.062 HD
ATOM     38  H   UNL     1       1.279   2.269  18.871  0.00  0.00    +0.063 HD
ATOM     39  H   UNL     1       2.523   5.600  21.303  0.00  0.00    +0.063 HD
BRANCH  34  40
ATOM     40  C   UNL     1       1.917   2.900  21.392  0.00  0.00    +0.242 C 
ATOM     41  N   UNL     1       3.106   2.378  21.831  0.00  0.00    -0.325 N 
ATOM     42  O   UNL     1       0.865   2.587  21.938  0.00  0.00    -0.270 OA
ATOM     43  H   UNL     1       3.979   2.496  21.334  0.00  0.00    +0.145 HD
ATOM     44  H   UNL     1       3.064   1.676  22.560  0.00  0.00    +0.145 HD
ENDBRANCH  34  40
ENDBRANCH  27  30
ENDBRANCH  25  27
ENDBRANCH  12  23
BRANCH   1  45
ATOM     45  C   UNL     1      -3.313  12.534  23.082  0.00  0.00    -0.022 C 
ATOM     46  H   UNL     1      -3.305  11.485  23.410  0.00  0.00    +0.034 HD
BRANCH  45  47
ATOM     47  C   UNL     1      -3.548  13.387  24.332  0.00  0.00    -0.059 C 
ATOM     48  H   UNL     1      -4.238  12.905  25.037  0.00  0.00    +0.024 HD
ATOM     49  H   UNL     1      -2.602  13.566  24.860  0.00  0.00    +0.024 HD
ATOM     50  H   UNL     1      -3.969  14.364  24.067  0.00  0.00    +0.024 HD
ENDBRANCH  45  47
BRANCH  45  51
ATOM     51  C   UNL     1      -4.475  12.686  22.094  0.00  0.00    -0.059 C 
ATOM     52  H   UNL     1      -5.183  11.856  22.190  0.00  0.00    +0.024 HD
ATOM     53  H   UNL     1      -4.126  12.709  21.055  0.00  0.00    +0.024 HD
ATOM     54  H   UNL     1      -5.021  13.618  22.282  0.00  0.00    +0.024 HD
ENDBRANCH  45  51
ENDBRANCH   1  45
TORSDOF 7
ENDMDL
MODEL 16
REMARK VINA RESULT:    -6.983      2.138      2.452
REMARK INTER + INTRA:          -9.917
REMARK INTER:                  -9.416
REMARK INTRA:                  -0.501
REMARK UNBOUND:                -0.484
REMARK  Name = 
REMARK  7 active torsions:
REMARK  status: ('A' for Active; 'I' for Inactive)
REMARK    1  A    between atoms: C_1  and  C_2
REMARK    2  A    between atoms: C_2  and  C_3
REMARK    3  A    between atoms: C_2  and  C_4
REMARK    4  A    between atoms: C_15  and  C_16
REMARK    5  A    between atoms: N_18  and  C_19
REMARK    6  A    between atoms: C_19  and  C_20
REMARK    7  A    between atoms: C_24  and  C_25
REMARK                            x       y       z     vdW  Elec       q    Type
REMARK                         _______ _______ _______ _____ _____    ______ ____
ROOT
ATOM      1  C   UNL     1       5.988   4.447  14.399  0.00  0.00    -0.044 A 
ATOM      2  C   UNL     1       7.308   4.592  14.842  0.00  0.00    -0.055 A 
ATOM      3  C   UNL     1       7.583   4.712  16.202  0.00  0.00    -0.019 A 
ATOM      4  C   UNL     1       6.543   4.688  17.135  0.00  0.00    +0.124 A 
ATOM      5  C   UNL     1       5.199   4.518  16.742  0.00  0.00    +0.002 A 
ATOM      6  C   UNL     1       4.956   4.416  15.357  0.00  0.00    -0.051 A 
ATOM      7  C   UNL     1       4.104   4.432  17.810  0.00  0.00    +0.014 C 
ATOM      8  C   UNL     1       4.683   4.223  19.196  0.00  0.00    -0.008 C 
ATOM      9  C   UNL     1       5.880   5.145  19.356  0.00  0.00    +0.090 C 
ATOM     10  O   UNL     1       6.936   4.793  18.451  0.00  0.00    -0.492 OA
ATOM     11  C   UNL     1       2.777   3.755  17.529  0.00  0.00    -0.030 C 
ATOM     12  C   UNL     1       2.834   5.265  17.621  0.00  0.00    +0.046 C 
ATOM     13  H   UNL     1       8.135   4.607  14.135  0.00  0.00    +0.062 HD
ATOM     14  H   UNL     1       8.612   4.822  16.541  0.00  0.00    +0.065 HD
ATOM     15  H   UNL     1       3.934   4.301  15.008  0.00  0.00    +0.062 HD
ATOM     16  H   UNL     1       5.002   3.180  19.287  0.00  0.00    +0.031 HD
ATOM     17  H   UNL     1       3.952   4.407  19.988  0.00  0.00    +0.031 HD
ATOM     18  H   UNL     1       6.282   5.054  20.371  0.00  0.00    +0.070 HD
ATOM     19  H   UNL     1       5.616   6.196  19.204  0.00  0.00    +0.070 HD
ATOM     20  H   UNL     1       2.602   3.301  16.561  0.00  0.00    +0.028 HD
ATOM     21  H   UNL     1       2.312   3.200  18.338  0.00  0.00    +0.028 HD
ATOM     22  H   UNL     1       2.753   5.820  16.690  0.00  0.00    +0.040 HD
ENDROOT
BRANCH  12  23
ATOM     23  C   UNL     1       2.189   5.982  18.749  0.00  0.00    +0.217 C 
ATOM     24  O   UNL     1       1.687   5.367  19.678  0.00  0.00    -0.275 OA
ATOM     25  N   UNL     1       2.264   7.346  18.651  0.00  0.00    -0.311 N 
ATOM     26  H   UNL     1       2.829   7.742  17.914  0.00  0.00    +0.149 HD
BRANCH  25  27
ATOM     27  C   UNL     1       1.855   8.201  19.739  0.00  0.00    +0.037 C 
ATOM     28  H   UNL     1       2.732   8.488  20.320  0.00  0.00    +0.051 HD
ATOM     29  H   UNL     1       1.200   7.621  20.397  0.00  0.00    +0.051 HD
BRANCH  27  30
ATOM     30  C   UNL     1       1.127   9.421  19.231  0.00  0.00    -0.030 A 
ATOM     31  C   UNL     1       1.601  10.707  19.514  0.00  0.00    -0.057 A 
ATOM     32  C   UNL     1       0.884  11.834  19.094  0.00  0.00    -0.061 A 
ATOM     33  C   UNL     1      -0.297  11.685  18.370  0.00  0.00    -0.050 A 
ATOM     34  C   UNL     1      -0.772  10.408  18.059  0.00  0.00    +0.037 A 
ATOM     35  C   UNL     1      -0.072   9.281  18.509  0.00  0.00    -0.045 A 
ATOM     36  H   UNL     1       2.521  10.839  20.085  0.00  0.00    +0.062 HD
ATOM     37  H   UNL     1       1.241  12.828  19.339  0.00  0.00    +0.062 HD
ATOM     38  H   UNL     1      -0.852  12.565  18.047  0.00  0.00    +0.063 HD
ATOM     39  H   UNL     1      -0.468   8.284  18.338  0.00  0.00    +0.063 HD
BRANCH  34  40
ATOM     40  C   UNL     1      -2.038  10.297  17.266  0.00  0.00    +0.242 C 
ATOM     41  N   UNL     1      -2.224  11.178  16.232  0.00  0.00    -0.325 N 
ATOM     42  O   UNL     1      -2.902   9.473  17.539  0.00  0.00    -0.270 OA
ATOM     43  H   UNL     1      -1.608  11.960  16.053  0.00  0.00    +0.145 HD
ATOM     44  H   UNL     1      -3.125  11.167  15.769  0.00  0.00    +0.145 HD
ENDBRANCH  34  40
ENDBRANCH  27  30
ENDBRANCH  25  27
ENDBRANCH  12  23
BRANCH   1  45
ATOM     45  C   UNL     1       5.649   4.308  12.924  0.00  0.00    -0.022 C 
ATOM     46  H   UNL     1       5.237   5.262  12.567  0.00  0.00    +0.034 HD
BRANCH  45  47
ATOM     47  C   UNL     1       6.891   4.016  12.076  0.00  0.00    -0.059 C 
ATOM     48  H   UNL     1       6.835   3.036  11.586  0.00  0.00    +0.024 HD
ATOM     49  H   UNL     1       7.008   4.776  11.292  0.00  0.00    +0.024 HD
ATOM     50  H   UNL     1       7.797   4.031  12.691  0.00  0.00    +0.024 HD
ENDBRANCH  45  47
BRANCH  45  51
ATOM     51  C   UNL     1       4.573   3.240  12.697  0.00  0.00    -0.059 C 
ATOM     52  H   UNL     1       3.609   3.700  12.453  0.00  0.00    +0.024 HD
ATOM     53  H   UNL     1       4.429   2.612  13.583  0.00  0.00    +0.024 HD
ATOM     54  H   UNL     1       4.851   2.584  11.864  0.00  0.00    +0.024 HD
ENDBRANCH  45  51
ENDBRANCH   1  45
TORSDOF 7
ENDMDL
MODEL 17
REMARK VINA RESULT:    -6.956      3.127      8.957
REMARK INTER + INTRA:          -9.880
REMARK INTER:                  -9.232
REMARK INTRA:                  -0.648
REMARK UNBOUND:                -0.484
REMARK  Name = 
REMARK  7 active torsions:
REMARK  status: ('A' for Active; 'I' for Inactive)
REMARK    1  A    between atoms: C_1  and  C_2
REMARK    2  A    between atoms: C_2  and  C_3
REMARK    3  A    between atoms: C_2  and  C_4
REMARK    4  A    between atoms: C_15  and  C_16
REMARK    5  A    between atoms: N_18  and  C_19
REMARK    6  A    between atoms: C_19  and  C_20
REMARK    7  A    between atoms: C_24  and  C_25
REMARK                            x       y       z     vdW  Elec       q    Type
REMARK                         _______ _______ _______ _____ _____    ______ ____
ROOT
ATOM      1  C   UNL     1       2.496  14.074  20.163  0.00  0.00    -0.044 A 
ATOM      2  C   UNL     1       3.181  14.040  18.942  0.00  0.00    -0.055 A 
ATOM      3  C   UNL     1       3.000  12.975  18.064  0.00  0.00    -0.019 A 
ATOM      4  C   UNL     1       2.131  11.930  18.395  0.00  0.00    +0.124 A 
ATOM      5  C   UNL     1       1.398  11.930  19.599  0.00  0.00    +0.002 A 
ATOM      6  C   UNL     1       1.619  13.016  20.471  0.00  0.00    -0.051 A 
ATOM      7  C   UNL     1       0.411  10.794  19.883  0.00  0.00    +0.014 C 
ATOM      8  C   UNL     1       0.126   9.971  18.641  0.00  0.00    -0.008 C 
ATOM      9  C   UNL     1       1.443   9.720  17.925  0.00  0.00    +0.090 C 
ATOM     10  O   UNL     1       2.015  10.943  17.441  0.00  0.00    -0.492 OA
ATOM     11  C   UNL     1      -0.746  10.974  20.847  0.00  0.00    -0.030 C 
ATOM     12  C   UNL     1       0.440  10.128  21.262  0.00  0.00    +0.046 C 
ATOM     13  H   UNL     1       3.857  14.845  18.660  0.00  0.00    +0.062 HD
ATOM     14  H   UNL     1       3.533  12.955  17.115  0.00  0.00    +0.065 HD
ATOM     15  H   UNL     1       1.088  13.047  21.419  0.00  0.00    +0.062 HD
ATOM     16  H   UNL     1      -0.548  10.538  17.993  0.00  0.00    +0.031 HD
ATOM     17  H   UNL     1      -0.369   9.022  18.871  0.00  0.00    +0.031 HD
ATOM     18  H   UNL     1       1.272   9.078  17.055  0.00  0.00    +0.070 HD
ATOM     19  H   UNL     1       2.172   9.213  18.565  0.00  0.00    +0.070 HD
ATOM     20  H   UNL     1      -0.894  11.931  21.332  0.00  0.00    +0.028 HD
ATOM     21  H   UNL     1      -1.683  10.478  20.609  0.00  0.00    +0.028 HD
ATOM     22  H   UNL     1       1.121  10.558  21.991  0.00  0.00    +0.040 HD
ENDROOT
BRANCH  12  23
ATOM     23  C   UNL     1       0.304   8.660  21.428  0.00  0.00    +0.217 C 
ATOM     24  O   UNL     1      -0.759   8.162  21.767  0.00  0.00    -0.275 OA
ATOM     25  N   UNL     1       1.443   7.963  21.125  0.00  0.00    -0.311 N 
ATOM     26  H   UNL     1       2.217   8.466  20.717  0.00  0.00    +0.149 HD
BRANCH  25  27
ATOM     27  C   UNL     1       1.446   6.522  21.054  0.00  0.00    +0.037 C 
ATOM     28  H   UNL     1       0.426   6.167  20.903  0.00  0.00    +0.051 HD
ATOM     29  H   UNL     1       1.788   6.136  22.020  0.00  0.00    +0.051 HD
BRANCH  27  30
ATOM     30  C   UNL     1       2.352   6.030  19.952  0.00  0.00    -0.030 A 
ATOM     31  C   UNL     1       2.813   6.903  18.961  0.00  0.00    -0.057 A 
ATOM     32  C   UNL     1       3.601   6.425  17.907  0.00  0.00    -0.061 A 
ATOM     33  C   UNL     1       3.951   5.078  17.847  0.00  0.00    -0.050 A 
ATOM     34  C   UNL     1       3.517   4.196  18.842  0.00  0.00    +0.037 A 
ATOM     35  C   UNL     1       2.702   4.669  19.878  0.00  0.00    -0.045 A 
ATOM     36  H   UNL     1       2.542   7.959  18.992  0.00  0.00    +0.062 HD
ATOM     37  H   UNL     1       3.934   7.100  17.127  0.00  0.00    +0.062 HD
ATOM     38  H   UNL     1       4.562   4.710  17.023  0.00  0.00    +0.063 HD
ATOM     39  H   UNL     1       2.297   3.983  20.616  0.00  0.00    +0.063 HD
BRANCH  34  40
ATOM     40  C   UNL     1       3.931   2.760  18.744  0.00  0.00    +0.242 C 
ATOM     41  N   UNL     1       4.978   2.341  19.523  0.00  0.00    -0.325 N 
ATOM     42  O   UNL     1       3.383   1.981  17.974  0.00  0.00    -0.270 OA
ATOM     43  H   UNL     1       5.549   2.973  20.070  0.00  0.00    +0.145 HD
ATOM     44  H   UNL     1       5.320   1.399  19.375  0.00  0.00    +0.145 HD
ENDBRANCH  34  40
ENDBRANCH  27  30
ENDBRANCH  25  27
ENDBRANCH  12  23
BRANCH   1  45
ATOM     45  C   UNL     1       2.663  15.222  21.143  0.00  0.00    -0.022 C 
ATOM     46  H   UNL     1       2.617  16.169  20.586  0.00  0.00    +0.034 HD
BRANCH  45  47
ATOM     47  C   UNL     1       1.534  15.262  22.177  0.00  0.00    -0.059 C 
ATOM     48  H   UNL     1       0.749  14.526  21.960  0.00  0.00    +0.024 HD
ATOM     49  H   UNL     1       1.924  15.047  23.181  0.00  0.00    +0.024 HD
ATOM     50  H   UNL     1       1.066  16.252  22.208  0.00  0.00    +0.024 HD
ENDBRANCH  45  47
BRANCH  45  51
ATOM     51  C   UNL     1       4.031  15.172  21.833  0.00  0.00    -0.059 C 
ATOM     52  H   UNL     1       4.733  14.549  21.268  0.00  0.00    +0.024 HD
ATOM     53  H   UNL     1       3.962  14.763  22.847  0.00  0.00    +0.024 HD
ATOM     54  H   UNL     1       4.461  16.178  21.909  0.00  0.00    +0.024 HD
ENDBRANCH  45  51
ENDBRANCH   1  45
TORSDOF 7
ENDMDL
MODEL 18
REMARK VINA RESULT:    -6.916      4.007      7.042
REMARK INTER + INTRA:          -9.826
REMARK INTER:                  -9.341
REMARK INTRA:                  -0.485
REMARK UNBOUND:                -0.484
REMARK  Name = 
REMARK  7 active torsions:
REMARK  status: ('A' for Active; 'I' for Inactive)
REMARK    1  A    between atoms: C_1  and  C_2
REMARK    2  A    between atoms: C_2  and  C_3
REMARK    3  A    between atoms: C_2  and  C_4
REMARK    4  A    between atoms: C_15  and  C_16
REMARK    5  A    between atoms: N_18  and  C_19
REMARK    6  A    between atoms: C_19  and  C_20
REMARK    7  A    between atoms: C_24  and  C_25
REMARK                            x       y       z     vdW  Elec       q    Type
REMARK                         _______ _______ _______ _____ _____    ______ ____
ROOT
ATOM      1  C   UNL     1       1.654   4.705  19.785  0.00  0.00    -0.044 A 
ATOM      2  C   UNL     1       2.193   4.684  18.492  0.00  0.00    -0.055 A 
ATOM      3  C   UNL     1       2.452   5.876  17.820  0.00  0.00    -0.019 A 
ATOM      4  C   UNL     1       2.175   7.103  18.431  0.00  0.00    +0.124 A 
ATOM      5  C   UNL     1       1.657   7.178  19.740  0.00  0.00    +0.002 A 
ATOM      6  C   UNL     1       1.393   5.952  20.384  0.00  0.00    -0.051 A 
ATOM      7  C   UNL     1       1.434   8.548  20.387  0.00  0.00    +0.014 C 
ATOM      8  C   UNL     1       2.121   9.656  19.612  0.00  0.00    -0.008 C 
ATOM      9  C   UNL     1       1.872   9.426  18.131  0.00  0.00    +0.090 C 
ATOM     10  O   UNL     1       2.491   8.213  17.680  0.00  0.00    -0.492 OA
ATOM     11  C   UNL     1       1.388   8.713  21.894  0.00  0.00    -0.030 C 
ATOM     12  C   UNL     1       0.104   8.812  21.097  0.00  0.00    +0.046 C 
ATOM     13  H   UNL     1       2.423   3.742  17.999  0.00  0.00    +0.062 HD
ATOM     14  H   UNL     1       2.873   5.853  16.816  0.00  0.00    +0.065 HD
ATOM     15  H   UNL     1       0.976   5.963  21.387  0.00  0.00    +0.062 HD
ATOM     16  H   UNL     1       3.195   9.614  19.821  0.00  0.00    +0.031 HD
ATOM     17  H   UNL     1       1.774  10.651  19.907  0.00  0.00    +0.031 HD
ATOM     18  H   UNL     1       2.311  10.246  17.553  0.00  0.00    +0.070 HD
ATOM     19  H   UNL     1       0.805   9.393  17.891  0.00  0.00    +0.070 HD
ATOM     20  H   UNL     1       1.537   7.850  22.531  0.00  0.00    +0.028 HD
ATOM     21  H   UNL     1       1.812   9.620  22.316  0.00  0.00    +0.028 HD
ATOM     22  H   UNL     1      -0.584   7.973  21.164  0.00  0.00    +0.040 HD
ENDROOT
BRANCH  12  23
ATOM     23  C   UNL     1      -0.612  10.106  20.969  0.00  0.00    +0.217 C 
ATOM     24  O   UNL     1      -0.716  10.863  21.923  0.00  0.00    -0.275 OA
ATOM     25  N   UNL     1      -1.076  10.357  19.706  0.00  0.00    -0.311 N 
ATOM     26  H   UNL     1      -0.806   9.728  18.964  0.00  0.00    +0.149 HD
BRANCH  25  27
ATOM     27  C   UNL     1      -1.634  11.639  19.351  0.00  0.00    +0.037 C 
ATOM     28  H   UNL     1      -0.847  12.274  18.943  0.00  0.00    +0.051 HD
ATOM     29  H   UNL     1      -1.998  12.115  20.267  0.00  0.00    +0.051 HD
BRANCH  27  30
ATOM     30  C   UNL     1      -2.765  11.489  18.363  0.00  0.00    -0.030 A 
ATOM     31  C   UNL     1      -4.064  11.889  18.695  0.00  0.00    -0.057 A 
ATOM     32  C   UNL     1      -5.118  11.688  17.797  0.00  0.00    -0.061 A 
ATOM     33  C   UNL     1      -4.880  11.106  16.553  0.00  0.00    -0.050 A 
ATOM     34  C   UNL     1      -3.584  10.722  16.196  0.00  0.00    +0.037 A 
ATOM     35  C   UNL     1      -2.535  10.893  17.109  0.00  0.00    -0.045 A 
ATOM     36  H   UNL     1      -4.267  12.340  19.667  0.00  0.00    +0.062 HD
ATOM     37  H   UNL     1      -6.127  11.975  18.069  0.00  0.00    +0.062 HD
ATOM     38  H   UNL     1      -5.704  10.949  15.858  0.00  0.00    +0.063 HD
ATOM     39  H   UNL     1      -1.538  10.532  16.875  0.00  0.00    +0.063 HD
BRANCH  34  40
ATOM     40  C   UNL     1      -3.373  10.115  14.843  0.00  0.00    +0.242 C 
ATOM     41  N   UNL     1      -4.453  10.032  14.004  0.00  0.00    -0.325 N 
ATOM     42  O   UNL     1      -2.284   9.673  14.496  0.00  0.00    -0.270 OA
ATOM     43  H   UNL     1      -5.397  10.255  14.292  0.00  0.00    +0.145 HD
ATOM     44  H   UNL     1      -4.329   9.526  13.134  0.00  0.00    +0.145 HD
ENDBRANCH  34  40
ENDBRANCH  27  30
ENDBRANCH  25  27
ENDBRANCH  12  23
BRANCH   1  45
ATOM     45  C   UNL     1       1.365   3.426  20.552  0.00  0.00    -0.022 C 
ATOM     46  H   UNL     1       0.327   3.461  20.914  0.00  0.00    +0.034 HD
BRANCH  45  47
ATOM     47  C   UNL     1       1.481   2.185  19.662  0.00  0.00    -0.059 C 
ATOM     48  H   UNL     1       2.500   1.777  19.653  0.00  0.00    +0.024 HD
ATOM     49  H   UNL     1       0.808   1.393  20.015  0.00  0.00    +0.024 HD
ATOM     50  H   UNL     1       1.205   2.418  18.627  0.00  0.00    +0.024 HD
ENDBRANCH  45  47
BRANCH  45  51
ATOM     51  C   UNL     1       2.267   3.297  21.784  0.00  0.00    -0.059 C 
ATOM     52  H   UNL     1       2.990   4.119  21.829  0.00  0.00    +0.024 HD
ATOM     53  H   UNL     1       2.830   2.357  21.781  0.00  0.00    +0.024 HD
ATOM     54  H   UNL     1       1.670   3.325  22.703  0.00  0.00    +0.024 HD
ENDBRANCH  45  51
ENDBRANCH   1  45
TORSDOF 7
ENDMDL
MODEL 19
REMARK VINA RESULT:    -6.884      2.611      8.720
REMARK INTER + INTRA:          -9.783
REMARK INTER:                  -9.505
REMARK INTRA:                  -0.278
REMARK UNBOUND:                -0.484
REMARK  Name = 
REMARK  7 active torsions:
REMARK  status: ('A' for Active; 'I' for Inactive)
REMARK    1  A    between atoms: C_1  and  C_2
REMARK    2  A    between atoms: C_2  and  C_3
REMARK    3  A    between atoms: C_2  and  C_4
REMARK    4  A    between atoms: C_15  and  C_16
REMARK    5  A    between atoms: N_18  and  C_19
REMARK    6  A    between atoms: C_19  and  C_20
REMARK    7  A    between atoms: C_24  and  C_25
REMARK                            x       y       z     vdW  Elec       q    Type
REMARK                         _______ _______ _______ _____ _____    ______ ____
ROOT
ATOM      1  C   UNL     1       0.837   9.026  21.176  0.00  0.00    -0.044 A 
ATOM      2  C   UNL     1       0.837  10.064  20.235  0.00  0.00    -0.055 A 
ATOM      3  C   UNL     1       1.377   9.861  18.967  0.00  0.00    -0.019 A 
ATOM      4  C   UNL     1       1.923   8.620  18.624  0.00  0.00    +0.124 A 
ATOM      5  C   UNL     1       1.923   7.537  19.527  0.00  0.00    +0.002 A 
ATOM      6  C   UNL     1       1.383   7.782  20.807  0.00  0.00    -0.051 A 
ATOM      7  C   UNL     1       2.474   6.179  19.079  0.00  0.00    +0.014 C 
ATOM      8  C   UNL     1       2.658   6.114  17.575  0.00  0.00    -0.008 C 
ATOM      9  C   UNL     1       3.287   7.419  17.116  0.00  0.00    +0.090 C 
ATOM     10  O   UNL     1       2.407   8.530  17.338  0.00  0.00    -0.492 OA
ATOM     11  C   UNL     1       2.051   4.891  19.759  0.00  0.00    -0.030 C 
ATOM     12  C   UNL     1       3.440   5.441  20.009  0.00  0.00    +0.046 C 
ATOM     13  H   UNL     1       0.412  11.036  20.476  0.00  0.00    +0.062 HD
ATOM     14  H   UNL     1       1.373  10.670  18.239  0.00  0.00    +0.065 HD
ATOM     15  H   UNL     1       1.379   6.981  21.540  0.00  0.00    +0.062 HD
ATOM     16  H   UNL     1       1.676   5.990  17.108  0.00  0.00    +0.031 HD
ATOM     17  H   UNL     1       3.273   5.265  17.264  0.00  0.00    +0.031 HD
ATOM     18  H   UNL     1       3.483   7.374  16.039  0.00  0.00    +0.070 HD
ATOM     19  H   UNL     1       4.242   7.615  17.613  0.00  0.00    +0.070 HD
ATOM     20  H   UNL     1       1.329   4.924  20.565  0.00  0.00    +0.028 HD
ATOM     21  H   UNL     1       1.944   4.005  19.139  0.00  0.00    +0.028 HD
ATOM     22  H   UNL     1       3.623   5.897  20.977  0.00  0.00    +0.040 HD
ENDROOT
BRANCH  12  23
ATOM     23  C   UNL     1       4.640   4.734  19.494  0.00  0.00    +0.217 C 
ATOM     24  O   UNL     1       4.756   3.524  19.615  0.00  0.00    -0.275 OA
ATOM     25  N   UNL     1       5.532   5.556  18.857  0.00  0.00    -0.311 N 
ATOM     26  H   UNL     1       5.264   6.514  18.690  0.00  0.00    +0.149 HD
BRANCH  25  27
ATOM     27  C   UNL     1       6.663   5.022  18.138  0.00  0.00    +0.037 C 
ATOM     28  H   UNL     1       7.023   4.126  18.646  0.00  0.00    +0.051 HD
ATOM     29  H   UNL     1       7.467   5.764  18.173  0.00  0.00    +0.051 HD
BRANCH  27  30
ATOM     30  C   UNL     1       6.305   4.716  16.705  0.00  0.00    -0.030 A 
ATOM     31  C   UNL     1       5.126   4.032  16.391  0.00  0.00    -0.057 A 
ATOM     32  C   UNL     1       4.833   3.696  15.064  0.00  0.00    -0.061 A 
ATOM     33  C   UNL     1       5.704   4.061  14.039  0.00  0.00    -0.050 A 
ATOM     34  C   UNL     1       6.876   4.766  14.333  0.00  0.00    +0.037 A 
ATOM     35  C   UNL     1       7.184   5.071  15.665  0.00  0.00    -0.045 A 
ATOM     36  H   UNL     1       4.438   3.735  17.183  0.00  0.00    +0.062 HD
ATOM     37  H   UNL     1       3.932   3.143  14.829  0.00  0.00    +0.062 HD
ATOM     38  H   UNL     1       5.474   3.796  13.008  0.00  0.00    +0.063 HD
ATOM     39  H   UNL     1       8.125   5.552  15.914  0.00  0.00    +0.063 HD
BRANCH  34  40
ATOM     40  C   UNL     1       7.774   5.149  13.197  0.00  0.00    +0.242 C 
ATOM     41  N   UNL     1       8.854   5.946  13.477  0.00  0.00    -0.325 N 
ATOM     42  O   UNL     1       7.546   4.798  12.046  0.00  0.00    -0.270 OA
ATOM     43  H   UNL     1       9.008   6.373  14.381  0.00  0.00    +0.145 HD
ATOM     44  H   UNL     1       9.396   6.287  12.691  0.00  0.00    +0.145 HD
ENDBRANCH  34  40
ENDBRANCH  27  30
ENDBRANCH  25  27
ENDBRANCH  12  23
BRANCH   1  45
ATOM     45  C   UNL     1       0.251   9.208  22.566  0.00  0.00    -0.022 C 
ATOM     46  H   UNL     1      -0.380   8.338  22.798  0.00  0.00    +0.034 HD
BRANCH  45  47
ATOM     47  C   UNL     1       1.339   9.265  23.643  0.00  0.00    -0.059 C 
ATOM     48  H   UNL     1       2.174   9.916  23.352  0.00  0.00    +0.024 HD
ATOM     49  H   UNL     1       0.928   9.650  24.586  0.00  0.00    +0.024 HD
ATOM     50  H   UNL     1       1.747   8.268  23.841  0.00  0.00    +0.024 HD
ENDBRANCH  45  47
BRANCH  45  51
ATOM     51  C   UNL     1      -0.648  10.447  22.636  0.00  0.00    -0.059 C 
ATOM     52  H   UNL     1      -1.328  10.487  21.777  0.00  0.00    +0.024 HD
ATOM     53  H   UNL     1      -0.065  11.374  22.644  0.00  0.00    +0.024 HD
ATOM     54  H   UNL     1      -1.258  10.429  23.546  0.00  0.00    +0.024 HD
ENDBRANCH  45  51
ENDBRANCH   1  45
TORSDOF 7
ENDMDL
MODEL 20
REMARK VINA RESULT:    -6.814      3.901      6.709
REMARK INTER + INTRA:          -9.688
REMARK INTER:                  -8.980
REMARK INTRA:                  -0.708
REMARK UNBOUND:                -0.484
REMARK  Name = 
REMARK  7 active torsions:
REMARK  status: ('A' for Active; 'I' for Inactive)
REMARK    1  A    between atoms: C_1  and  C_2
REMARK    2  A    between atoms: C_2  and  C_3
REMARK    3  A    between atoms: C_2  and  C_4
REMARK    4  A    between atoms: C_15  and  C_16
REMARK    5  A    between atoms: N_18  and  C_19
REMARK    6  A    between atoms: C_19  and  C_20
REMARK    7  A    between atoms: C_24  and  C_25
REMARK                            x       y       z     vdW  Elec       q    Type
REMARK                         _______ _______ _______ _____ _____    ______ ____
ROOT
ATOM      1  C   UNL     1       1.721   5.015  19.959  0.00  0.00    -0.044 A 
ATOM      2  C   UNL     1       2.568   4.826  18.859  0.00  0.00    -0.055 A 
ATOM      3  C   UNL     1       2.974   5.915  18.092  0.00  0.00    -0.019 A 
ATOM      4  C   UNL     1       2.540   7.205  18.413  0.00  0.00    +0.124 A 
ATOM      5  C   UNL     1       1.709   7.450  19.525  0.00  0.00    +0.002 A 
ATOM      6  C   UNL     1       1.304   6.323  20.270  0.00  0.00    -0.051 A 
ATOM      7  C   UNL     1       1.315   8.889  19.873  0.00  0.00    +0.014 C 
ATOM      8  C   UNL     1       2.163   9.901  19.126  0.00  0.00    -0.008 C 
ATOM      9  C   UNL     1       2.298   9.439  17.685  0.00  0.00    +0.090 C 
ATOM     10  O   UNL     1       3.023   8.204  17.598  0.00  0.00    -0.492 OA
ATOM     11  C   UNL     1       0.890   9.276  21.276  0.00  0.00    -0.030 C 
ATOM     12  C   UNL     1      -0.154   9.190  20.182  0.00  0.00    +0.046 C 
ATOM     13  H   UNL     1       2.924   3.834  18.593  0.00  0.00    +0.062 HD
ATOM     14  H   UNL     1       3.635   5.763  17.239  0.00  0.00    +0.065 HD
ATOM     15  H   UNL     1       0.648   6.464  21.125  0.00  0.00    +0.062 HD
ATOM     16  H   UNL     1       3.150   9.944  19.597  0.00  0.00    +0.031 HD
ATOM     17  H   UNL     1       1.743  10.910  19.165  0.00  0.00    +0.031 HD
ATOM     18  H   UNL     1       2.859  10.183  17.110  0.00  0.00    +0.070 HD
ATOM     19  H   UNL     1       1.325   9.316  17.197  0.00  0.00    +0.070 HD
ATOM     20  H   UNL     1       0.883   8.527  22.058  0.00  0.00    +0.028 HD
ATOM     21  H   UNL     1       1.185  10.256  21.640  0.00  0.00    +0.028 HD
ATOM     22  H   UNL     1      -0.826   8.337  20.208  0.00  0.00    +0.040 HD
ENDROOT
BRANCH  12  23
ATOM     23  C   UNL     1      -0.828  10.413  19.678  0.00  0.00    +0.217 C 
ATOM     24  O   UNL     1      -1.519  10.379  18.672  0.00  0.00    -0.275 OA
ATOM     25  N   UNL     1      -0.631  11.515  20.466  0.00  0.00    -0.311 N 
ATOM     26  H   UNL     1      -0.161  11.393  21.351  0.00  0.00    +0.149 HD
BRANCH  25  27
ATOM     27  C   UNL     1      -1.352  12.743  20.235  0.00  0.00    +0.037 C 
ATOM     28  H   UNL     1      -1.493  12.881  19.162  0.00  0.00    +0.051 HD
ATOM     29  H   UNL     1      -0.734  13.572  20.594  0.00  0.00    +0.051 HD
BRANCH  27  30
ATOM     30  C   UNL     1      -2.679  12.741  20.952  0.00  0.00    -0.030 A 
ATOM     31  C   UNL     1      -3.881  12.686  20.236  0.00  0.00    -0.057 A 
ATOM     32  C   UNL     1      -5.108  12.749  20.907  0.00  0.00    -0.061 A 
ATOM     33  C   UNL     1      -5.145  12.845  22.296  0.00  0.00    -0.050 A 
ATOM     34  C   UNL     1      -3.954  12.876  23.029  0.00  0.00    +0.037 A 
ATOM     35  C   UNL     1      -2.726  12.847  22.355  0.00  0.00    -0.045 A 
ATOM     36  H   UNL     1      -3.867  12.618  19.148  0.00  0.00    +0.062 HD
ATOM     37  H   UNL     1      -6.035  12.734  20.346  0.00  0.00    +0.062 HD
ATOM     38  H   UNL     1      -6.103  12.895  22.813  0.00  0.00    +0.063 HD
ATOM     39  H   UNL     1      -1.796  12.946  22.904  0.00  0.00    +0.063 HD
BRANCH  34  40
ATOM     40  C   UNL     1      -4.043  12.964  24.521  0.00  0.00    +0.242 C 
ATOM     41  N   UNL     1      -4.820  12.040  25.170  0.00  0.00    -0.325 N 
ATOM     42  O   UNL     1      -3.473  13.846  25.152  0.00  0.00    -0.270 OA
ATOM     43  H   UNL     1      -5.416  11.380  24.688  0.00  0.00    +0.145 HD
ATOM     44  H   UNL     1      -4.960  12.168  26.166  0.00  0.00    +0.145 HD
ENDBRANCH  34  40
ENDBRANCH  27  30
ENDBRANCH  25  27
ENDBRANCH  12  23
BRANCH   1  45
ATOM     45  C   UNL     1       1.262   3.853  20.823  0.00  0.00    -0.022 C 
ATOM     46  H   UNL     1       0.400   4.180  21.422  0.00  0.00    +0.034 HD
BRANCH  45  47
ATOM     47  C   UNL     1       0.790   2.664  19.981  0.00  0.00    -0.059 C 
ATOM     48  H   UNL     1       0.106   2.972  19.178  0.00  0.00    +0.024 HD
ATOM     49  H   UNL     1       1.645   2.158  19.515  0.00  0.00    +0.024 HD
ATOM     50  H   UNL     1       0.266   1.928  20.601  0.00  0.00    +0.024 HD
ENDBRANCH  45  47
BRANCH  45  51
ATOM     51  C   UNL     1       2.355   3.422  21.807  0.00  0.00    -0.059 C 
ATOM     52  H   UNL     1       2.551   2.347  21.731  0.00  0.00    +0.024 HD
ATOM     53  H   UNL     1       2.078   3.638  22.845  0.00  0.00    +0.024 HD
ATOM     54  H   UNL     1       3.293   3.949  21.596  0.00  0.00    +0.024 HD
ENDBRANCH  45  51
ENDBRANCH   1  45
TORSDOF 7
ENDMDL
MODEL 21
REMARK VINA RESULT:    -6.800      3.195     10.610
REMARK INTER + INTRA:          -9.669
REMARK INTER:                  -8.960
REMARK INTRA:                  -0.709
REMARK UNBOUND:                -0.484
REMARK  Name = 
REMARK  7 active torsions:
REMARK  status: ('A' for Active; 'I' for Inactive)
REMARK    1  A    between atoms: C_1  and  C_2
REMARK    2  A    between atoms: C_2  and  C_3
REMARK    3  A    between atoms: C_2  and  C_4
REMARK    4  A    between atoms: C_15  and  C_16
REMARK    5  A    between atoms: N_18  and  C_19
REMARK    6  A    between atoms: C_19  and  C_20
REMARK    7  A    between atoms: C_24  and  C_25
REMARK                            x       y       z     vdW  Elec       q    Type
REMARK                         _______ _______ _______ _____ _____    ______ ____
ROOT
ATOM      1  C   UNL     1      -1.888  13.522  22.995  0.00  0.00    -0.044 A 
ATOM      2  C   UNL     1      -0.907  14.492  23.236  0.00  0.00    -0.055 A 
ATOM      3  C   UNL     1       0.086  14.737  22.291  0.00  0.00    -0.019 A 
ATOM      4  C   UNL     1       0.111  14.016  21.093  0.00  0.00    +0.124 A 
ATOM      5  C   UNL     1      -0.869  13.048  20.791  0.00  0.00    +0.002 A 
ATOM      6  C   UNL     1      -1.850  12.815  21.778  0.00  0.00    -0.051 A 
ATOM      7  C   UNL     1      -0.834  12.333  19.437  0.00  0.00    +0.014 C 
ATOM      8  C   UNL     1       0.101  13.021  18.461  0.00  0.00    -0.008 C 
ATOM      9  C   UNL     1       1.377  13.387  19.200  0.00  0.00    +0.090 C 
ATOM     10  O   UNL     1       1.125  14.358  20.227  0.00  0.00    -0.492 OA
ATOM     11  C   UNL     1      -2.079  11.703  18.843  0.00  0.00    -0.030 C 
ATOM     12  C   UNL     1      -0.995  10.811  19.411  0.00  0.00    +0.046 C 
ATOM     13  H   UNL     1      -0.909  15.071  24.158  0.00  0.00    +0.062 HD
ATOM     14  H   UNL     1       0.845  15.493  22.483  0.00  0.00    +0.065 HD
ATOM     15  H   UNL     1      -2.614  12.065  21.594  0.00  0.00    +0.062 HD
ATOM     16  H   UNL     1      -0.388  13.927  18.090  0.00  0.00    +0.031 HD
ATOM     17  H   UNL     1       0.330  12.399  17.591  0.00  0.00    +0.031 HD
ATOM     18  H   UNL     1       2.092  13.834  18.502  0.00  0.00    +0.070 HD
ATOM     19  H   UNL     1       1.861  12.513  19.647  0.00  0.00    +0.070 HD
ATOM     20  H   UNL     1      -3.020  11.776  19.373  0.00  0.00    +0.028 HD
ATOM     21  H   UNL     1      -2.203  11.752  17.765  0.00  0.00    +0.028 HD
ATOM     22  H   UNL     1      -1.201  10.330  20.363  0.00  0.00    +0.040 HD
ENDROOT
BRANCH  12  23
ATOM     23  C   UNL     1      -0.177   9.949  18.520  0.00  0.00    +0.217 C 
ATOM     24  O   UNL     1      -0.566   9.655  17.401  0.00  0.00    -0.275 OA
ATOM     25  N   UNL     1       1.027   9.584  19.061  0.00  0.00    -0.311 N 
ATOM     26  H   UNL     1       1.306  10.005  19.935  0.00  0.00    +0.149 HD
BRANCH  25  27
ATOM     27  C   UNL     1       2.027   8.902  18.277  0.00  0.00    +0.037 C 
ATOM     28  H   UNL     1       2.929   9.515  18.230  0.00  0.00    +0.051 HD
ATOM     29  H   UNL     1       1.646   8.802  17.255  0.00  0.00    +0.051 HD
BRANCH  27  30
ATOM     30  C   UNL     1       2.336   7.541  18.848  0.00  0.00    -0.030 A 
ATOM     31  C   UNL     1       1.749   7.115  20.045  0.00  0.00    -0.057 A 
ATOM     32  C   UNL     1       2.091   5.877  20.600  0.00  0.00    -0.061 A 
ATOM     33  C   UNL     1       3.003   5.045  19.954  0.00  0.00    -0.050 A 
ATOM     34  C   UNL     1       3.581   5.444  18.745  0.00  0.00    +0.037 A 
ATOM     35  C   UNL     1       3.264   6.698  18.207  0.00  0.00    -0.045 A 
ATOM     36  H   UNL     1       1.039   7.759  20.565  0.00  0.00    +0.062 HD
ATOM     37  H   UNL     1       1.654   5.564  21.541  0.00  0.00    +0.062 HD
ATOM     38  H   UNL     1       3.267   4.083  20.391  0.00  0.00    +0.063 HD
ATOM     39  H   UNL     1       3.761   7.052  17.309  0.00  0.00    +0.063 HD
BRANCH  34  40
ATOM     40  C   UNL     1       4.545   4.510  18.079  0.00  0.00    +0.242 C 
ATOM     41  N   UNL     1       5.325   3.718  18.880  0.00  0.00    -0.325 N 
ATOM     42  O   UNL     1       4.665   4.468  16.861  0.00  0.00    -0.270 OA
ATOM     43  H   UNL     1       5.361   3.813  19.887  0.00  0.00    +0.145 HD
ATOM     44  H   UNL     1       6.046   3.167  18.428  0.00  0.00    +0.145 HD
ENDBRANCH  34  40
ENDBRANCH  27  30
ENDBRANCH  25  27
ENDBRANCH  12  23
BRANCH   1  45
ATOM     45  C   UNL     1      -2.991  13.232  23.999  0.00  0.00    -0.022 C 
ATOM     46  H   UNL     1      -2.670  12.401  24.642  0.00  0.00    +0.034 HD
BRANCH  45  47
ATOM     47  C   UNL     1      -3.257  14.427  24.919  0.00  0.00    -0.059 C 
ATOM     48  H   UNL     1      -4.316  14.507  25.196  0.00  0.00    +0.024 HD
ATOM     49  H   UNL     1      -2.675  14.336  25.846  0.00  0.00    +0.024 HD
ATOM     50  H   UNL     1      -2.966  15.367  24.435  0.00  0.00    +0.024 HD
ENDBRANCH  45  47
BRANCH  45  51
ATOM     51  C   UNL     1      -4.280  12.787  23.300  0.00  0.00    -0.059 C 
ATOM     52  H   UNL     1      -5.086  13.511  23.463  0.00  0.00    +0.024 HD
ATOM     53  H   UNL     1      -4.627  11.814  23.665  0.00  0.00    +0.024 HD
ATOM     54  H   UNL     1      -4.121  12.700  22.218  0.00  0.00    +0.024 HD
ENDBRANCH  45  51
ENDBRANCH   1  45
TORSDOF 7
ENDMDL
MODEL 22
REMARK VINA RESULT:    -6.797      3.368     10.128
REMARK INTER + INTRA:          -9.666
REMARK INTER:                  -8.999
REMARK INTRA:                  -0.667
REMARK UNBOUND:                -0.484
REMARK  Name = 
REMARK  7 active torsions:
REMARK  status: ('A' for Active; 'I' for Inactive)
REMARK    1  A    between atoms: C_1  and  C_2
REMARK    2  A    between atoms: C_2  and  C_3
REMARK    3  A    between atoms: C_2  and  C_4
REMARK    4  A    between atoms: C_15  and  C_16
REMARK    5  A    between atoms: N_18  and  C_19
REMARK    6  A    between atoms: C_19  and  C_20
REMARK    7  A    between atoms: C_24  and  C_25
REMARK                            x       y       z     vdW  Elec       q    Type
REMARK                         _______ _______ _______ _____ _____    ______ ____
ROOT
ATOM      1  C   UNL     1      -3.107  13.565  20.642  0.00  0.00    -0.044 A 
ATOM      2  C   UNL     1      -2.465  14.800  20.790  0.00  0.00    -0.055 A 
ATOM      3  C   UNL     1      -1.077  14.884  20.708  0.00  0.00    -0.019 A 
ATOM      4  C   UNL     1      -0.315  13.734  20.476  0.00  0.00    +0.124 A 
ATOM      5  C   UNL     1      -0.915  12.472  20.295  0.00  0.00    +0.002 A 
ATOM      6  C   UNL     1      -2.321  12.422  20.400  0.00  0.00    -0.051 A 
ATOM      7  C   UNL     1      -0.039  11.256  19.979  0.00  0.00    +0.014 C 
ATOM      8  C   UNL     1       1.368  11.662  19.585  0.00  0.00    -0.008 C 
ATOM      9  C   UNL     1       1.832  12.752  20.537  0.00  0.00    +0.090 C 
ATOM     10  O   UNL     1       1.044  13.942  20.393  0.00  0.00    -0.492 OA
ATOM     11  C   UNL     1      -0.604  10.034  19.280  0.00  0.00    -0.030 C 
ATOM     12  C   UNL     1      -0.280   9.960  20.758  0.00  0.00    +0.046 C 
ATOM     13  H   UNL     1      -3.036  15.709  20.964  0.00  0.00    +0.062 HD
ATOM     14  H   UNL     1      -0.582  15.847  20.821  0.00  0.00    +0.065 HD
ATOM     15  H   UNL     1      -2.825  11.466  20.285  0.00  0.00    +0.062 HD
ATOM     16  H   UNL     1       1.346  12.047  18.561  0.00  0.00    +0.031 HD
ATOM     17  H   UNL     1       2.067  10.821  19.600  0.00  0.00    +0.031 HD
ATOM     18  H   UNL     1       2.869  13.022  20.309  0.00  0.00    +0.070 HD
ATOM     19  H   UNL     1       1.803  12.428  21.582  0.00  0.00    +0.070 HD
ATOM     20  H   UNL     1      -1.644  10.025  18.977  0.00  0.00    +0.028 HD
ATOM     21  H   UNL     1       0.039   9.512  18.578  0.00  0.00    +0.028 HD
ATOM     22  H   UNL     1      -1.120   9.960  21.447  0.00  0.00    +0.040 HD
ENDROOT
BRANCH  12  23
ATOM     23  C   UNL     1       0.840   9.118  21.248  0.00  0.00    +0.217 C 
ATOM     24  O   UNL     1       1.422   9.392  22.287  0.00  0.00    -0.275 OA
ATOM     25  N   UNL     1       1.095   8.027  20.461  0.00  0.00    -0.311 N 
ATOM     26  H   UNL     1       0.456   7.822  19.707  0.00  0.00    +0.149 HD
BRANCH  25  27
ATOM     27  C   UNL     1       2.022   7.003  20.875  0.00  0.00    +0.037 C 
ATOM     28  H   UNL     1       1.583   6.429  21.693  0.00  0.00    +0.051 HD
ATOM     29  H   UNL     1       2.919   7.495  21.264  0.00  0.00    +0.051 HD
BRANCH  27  30
ATOM     30  C   UNL     1       2.387   6.098  19.724  0.00  0.00    -0.030 A 
ATOM     31  C   UNL     1       3.197   6.559  18.679  0.00  0.00    -0.057 A 
ATOM     32  C   UNL     1       3.478   5.734  17.585  0.00  0.00    -0.061 A 
ATOM     33  C   UNL     1       2.973   4.436  17.535  0.00  0.00    -0.050 A 
ATOM     34  C   UNL     1       2.182   3.952  18.582  0.00  0.00    +0.037 A 
ATOM     35  C   UNL     1       1.873   4.790  19.661  0.00  0.00    -0.045 A 
ATOM     36  H   UNL     1       3.594   7.575  18.702  0.00  0.00    +0.062 HD
ATOM     37  H   UNL     1       4.083   6.105  16.765  0.00  0.00    +0.062 HD
ATOM     38  H   UNL     1       3.193   3.798  16.680  0.00  0.00    +0.063 HD
ATOM     39  H   UNL     1       1.201   4.453  20.443  0.00  0.00    +0.063 HD
BRANCH  34  40
ATOM     40  C   UNL     1       1.674   2.546  18.492  0.00  0.00    +0.242 C 
ATOM     41  N   UNL     1       2.536   1.582  18.038  0.00  0.00    -0.325 N 
ATOM     42  O   UNL     1       0.519   2.256  18.782  0.00  0.00    -0.270 OA
ATOM     43  H   UNL     1       3.451   1.790  17.659  0.00  0.00    +0.145 HD
ATOM     44  H   UNL     1       2.156   0.655  17.880  0.00  0.00    +0.145 HD
ENDBRANCH  34  40
ENDBRANCH  27  30
ENDBRANCH  25  27
ENDBRANCH  12  23
BRANCH   1  45
ATOM     45  C   UNL     1      -4.619  13.435  20.719  0.00  0.00    -0.022 C 
ATOM     46  H   UNL     1      -5.071  14.367  20.349  0.00  0.00    +0.034 HD
BRANCH  45  47
ATOM     47  C   UNL     1      -5.144  12.305  19.830  0.00  0.00    -0.059 C 
ATOM     48  H   UNL     1      -6.237  12.215  19.877  0.00  0.00    +0.024 HD
ATOM     49  H   UNL     1      -4.869  12.480  18.781  0.00  0.00    +0.024 HD
ATOM     50  H   UNL     1      -4.717  11.341  20.128  0.00  0.00    +0.024 HD
ENDBRANCH  45  47
BRANCH  45  51
ATOM     51  C   UNL     1      -5.091  13.252  22.166  0.00  0.00    -0.059 C 
ATOM     52  H   UNL     1      -4.765  12.285  22.566  0.00  0.00    +0.024 HD
ATOM     53  H   UNL     1      -6.182  13.297  22.248  0.00  0.00    +0.024 HD
ATOM     54  H   UNL     1      -4.676  14.038  22.809  0.00  0.00    +0.024 HD
ENDBRANCH  45  51
ENDBRANCH   1  45
TORSDOF 7
ENDMDL
MODEL 23
REMARK VINA RESULT:    -6.771      2.542      4.129
REMARK INTER + INTRA:          -9.630
REMARK INTER:                  -9.079
REMARK INTRA:                  -0.551
REMARK UNBOUND:                -0.484
REMARK  Name = 
REMARK  7 active torsions:
REMARK  status: ('A' for Active; 'I' for Inactive)
REMARK    1  A    between atoms: C_1  and  C_2
REMARK    2  A    between atoms: C_2  and  C_3
REMARK    3  A    between atoms: C_2  and  C_4
REMARK    4  A    between atoms: C_15  and  C_16
REMARK    5  A    between atoms: N_18  and  C_19
REMARK    6  A    between atoms: C_19  and  C_20
REMARK    7  A    between atoms: C_24  and  C_25
REMARK                            x       y       z     vdW  Elec       q    Type
REMARK                         _______ _______ _______ _____ _____    ______ ____
ROOT
ATOM      1  C   UNL     1       6.248   5.468  17.569  0.00  0.00    -0.044 A 
ATOM      2  C   UNL     1       6.049   4.161  17.106  0.00  0.00    -0.055 A 
ATOM      3  C   UNL     1       4.766   3.622  17.054  0.00  0.00    -0.019 A 
ATOM      4  C   UNL     1       3.666   4.383  17.464  0.00  0.00    +0.124 A 
ATOM      5  C   UNL     1       3.810   5.711  17.913  0.00  0.00    +0.002 A 
ATOM      6  C   UNL     1       5.125   6.219  17.968  0.00  0.00    -0.051 A 
ATOM      7  C   UNL     1       2.566   6.522  18.288  0.00  0.00    +0.014 C 
ATOM      8  C   UNL     1       1.292   5.854  17.806  0.00  0.00    -0.008 C 
ATOM      9  C   UNL     1       1.392   4.368  18.103  0.00  0.00    +0.090 C 
ATOM     10  O   UNL     1       2.446   3.754  17.348  0.00  0.00    -0.492 OA
ATOM     11  C   UNL     1       2.575   8.038  18.272  0.00  0.00    -0.030 C 
ATOM     12  C   UNL     1       2.576   7.311  19.600  0.00  0.00    +0.046 C 
ATOM     13  H   UNL     1       6.888   3.553  16.776  0.00  0.00    +0.062 HD
ATOM     14  H   UNL     1       4.617   2.607  16.691  0.00  0.00    +0.065 HD
ATOM     15  H   UNL     1       5.284   7.232  18.325  0.00  0.00    +0.062 HD
ATOM     16  H   UNL     1       1.201   6.013  16.727  0.00  0.00    +0.031 HD
ATOM     17  H   UNL     1       0.396   6.276  18.271  0.00  0.00    +0.031 HD
ATOM     18  H   UNL     1       0.459   3.871  17.817  0.00  0.00    +0.070 HD
ATOM     19  H   UNL     1       1.553   4.168  19.167  0.00  0.00    +0.070 HD
ATOM     20  H   UNL     1       3.472   8.564  17.969  0.00  0.00    +0.028 HD
ATOM     21  H   UNL     1       1.668   8.545  17.955  0.00  0.00    +0.028 HD
ATOM     22  H   UNL     1       3.508   7.307  20.159  0.00  0.00    +0.040 HD
ENDROOT
BRANCH  12  23
ATOM     23  C   UNL     1       1.393   7.363  20.495  0.00  0.00    +0.217 C 
ATOM     24  O   UNL     1       0.977   6.355  21.045  0.00  0.00    -0.275 OA
ATOM     25  N   UNL     1       0.880   8.622  20.658  0.00  0.00    -0.311 N 
ATOM     26  H   UNL     1       1.393   9.401  20.270  0.00  0.00    +0.149 HD
BRANCH  25  27
ATOM     27  C   UNL     1      -0.151   8.894  21.629  0.00  0.00    +0.037 C 
ATOM     28  H   UNL     1       0.118   8.431  22.580  0.00  0.00    +0.051 HD
ATOM     29  H   UNL     1      -1.075   8.418  21.283  0.00  0.00    +0.051 HD
BRANCH  27  30
ATOM     30  C   UNL     1      -0.367  10.377  21.798  0.00  0.00    -0.030 A 
ATOM     31  C   UNL     1       0.470  11.301  21.162  0.00  0.00    -0.057 A 
ATOM     32  C   UNL     1       0.302  12.673  21.376  0.00  0.00    -0.061 A 
ATOM     33  C   UNL     1      -0.715  13.135  22.208  0.00  0.00    -0.050 A 
ATOM     34  C   UNL     1      -1.576  12.227  22.833  0.00  0.00    +0.037 A 
ATOM     35  C   UNL     1      -1.386  10.852  22.645  0.00  0.00    -0.045 A 
ATOM     36  H   UNL     1       1.275  10.953  20.512  0.00  0.00    +0.062 HD
ATOM     37  H   UNL     1       0.970  13.383  20.901  0.00  0.00    +0.062 HD
ATOM     38  H   UNL     1      -0.841  14.205  22.373  0.00  0.00    +0.063 HD
ATOM     39  H   UNL     1      -1.998  10.134  23.182  0.00  0.00    +0.063 HD
BRANCH  34  40
ATOM     40  C   UNL     1      -2.665  12.770  23.707  0.00  0.00    +0.242 C 
ATOM     41  N   UNL     1      -3.736  11.958  23.974  0.00  0.00    -0.325 N 
ATOM     42  O   UNL     1      -2.629  13.912  24.149  0.00  0.00    -0.270 OA
ATOM     43  H   UNL     1      -3.878  11.063  23.525  0.00  0.00    +0.145 HD
ATOM     44  H   UNL     1      -4.515  12.367  24.477  0.00  0.00    +0.145 HD
ENDBRANCH  34  40
ENDBRANCH  27  30
ENDBRANCH  25  27
ENDBRANCH  12  23
BRANCH   1  45
ATOM     45  C   UNL     1       7.631   6.092  17.635  0.00  0.00    -0.022 C 
ATOM     46  H   UNL     1       8.258   5.640  16.853  0.00  0.00    +0.034 HD
BRANCH  45  47
ATOM     47  C   UNL     1       7.595   7.598  17.356  0.00  0.00    -0.059 C 
ATOM     48  H   UNL     1       8.558   7.973  16.985  0.00  0.00    +0.024 HD
ATOM     49  H   UNL     1       6.833   7.831  16.600  0.00  0.00    +0.024 HD
ATOM     50  H   UNL     1       7.345   8.158  18.263  0.00  0.00    +0.024 HD
ENDBRANCH  45  47
BRANCH  45  51
ATOM     51  C   UNL     1       8.311   5.804  18.978  0.00  0.00    -0.059 C 
ATOM     52  H   UNL     1       8.567   6.735  19.496  0.00  0.00    +0.024 HD
ATOM     53  H   UNL     1       9.234   5.228  18.852  0.00  0.00    +0.024 HD
ATOM     54  H   UNL     1       7.645   5.229  19.631  0.00  0.00    +0.024 HD
ENDBRANCH  45  51
ENDBRANCH   1  45
TORSDOF 7
ENDMDL
MODEL 24
REMARK VINA RESULT:    -6.755      2.447      4.447
REMARK INTER + INTRA:          -9.608
REMARK INTER:                  -8.898
REMARK INTRA:                  -0.710
REMARK UNBOUND:                -0.484
REMARK  Name = 
REMARK  7 active torsions:
REMARK  status: ('A' for Active; 'I' for Inactive)
REMARK    1  A    between atoms: C_1  and  C_2
REMARK    2  A    between atoms: C_2  and  C_3
REMARK    3  A    between atoms: C_2  and  C_4
REMARK    4  A    between atoms: C_15  and  C_16
REMARK    5  A    between atoms: N_18  and  C_19
REMARK    6  A    between atoms: C_19  and  C_20
REMARK    7  A    between atoms: C_24  and  C_25
REMARK                            x       y       z     vdW  Elec       q    Type
REMARK                         _______ _______ _______ _____ _____    ______ ____
ROOT
ATOM      1  C   UNL     1       5.536   5.577  17.719  0.00  0.00    -0.044 A 
ATOM      2  C   UNL     1       5.815   4.301  18.225  0.00  0.00    -0.055 A 
ATOM      3  C   UNL     1       4.959   3.711  19.152  0.00  0.00    -0.019 A 
ATOM      4  C   UNL     1       3.815   4.388  19.584  0.00  0.00    +0.124 A 
ATOM      5  C   UNL     1       3.477   5.663  19.086  0.00  0.00    +0.002 A 
ATOM      6  C   UNL     1       4.374   6.237  18.161  0.00  0.00    -0.051 A 
ATOM      7  C   UNL     1       2.177   6.333  19.544  0.00  0.00    +0.014 C 
ATOM      8  C   UNL     1       1.259   5.356  20.252  0.00  0.00    -0.008 C 
ATOM      9  C   UNL     1       2.097   4.516  21.201  0.00  0.00    +0.090 C 
ATOM     10  O   UNL     1       3.034   3.698  20.485  0.00  0.00    -0.492 OA
ATOM     11  C   UNL     1       1.502   7.403  18.708  0.00  0.00    -0.030 C 
ATOM     12  C   UNL     1       2.227   7.801  19.977  0.00  0.00    +0.046 C 
ATOM     13  H   UNL     1       6.696   3.751  17.898  0.00  0.00    +0.062 HD
ATOM     14  H   UNL     1       5.180   2.717  19.540  0.00  0.00    +0.065 HD
ATOM     15  H   UNL     1       4.161   7.226  17.765  0.00  0.00    +0.062 HD
ATOM     16  H   UNL     1       0.788   4.714  19.502  0.00  0.00    +0.031 HD
ATOM     17  H   UNL     1       0.454   5.858  20.798  0.00  0.00    +0.031 HD
ATOM     18  H   UNL     1       1.447   3.841  21.767  0.00  0.00    +0.070 HD
ATOM     19  H   UNL     1       2.641   5.129  21.926  0.00  0.00    +0.070 HD
ATOM     20  H   UNL     1       1.932   7.687  17.755  0.00  0.00    +0.028 HD
ATOM     21  H   UNL     1       0.416   7.425  18.698  0.00  0.00    +0.028 HD
ATOM     22  H   UNL     1       3.181   8.307  19.862  0.00  0.00    +0.040 HD
ENDROOT
BRANCH  12  23
ATOM     23  C   UNL     1       1.474   8.298  21.156  0.00  0.00    +0.217 C 
ATOM     24  O   UNL     1       2.027   8.450  22.234  0.00  0.00    -0.275 OA
ATOM     25  N   UNL     1       0.165   8.595  20.889  0.00  0.00    -0.311 N 
ATOM     26  H   UNL     1      -0.146   8.568  19.929  0.00  0.00    +0.149 HD
BRANCH  25  27
ATOM     27  C   UNL     1      -0.669   9.258  21.862  0.00  0.00    +0.037 C 
ATOM     28  H   UNL     1      -0.291   9.047  22.864  0.00  0.00    +0.051 HD
ATOM     29  H   UNL     1      -1.675   8.831  21.794  0.00  0.00    +0.051 HD
BRANCH  27  30
ATOM     30  C   UNL     1      -0.722  10.745  21.615  0.00  0.00    -0.030 A 
ATOM     31  C   UNL     1      -0.935  11.640  22.670  0.00  0.00    -0.057 A 
ATOM     32  C   UNL     1      -1.047  13.013  22.422  0.00  0.00    -0.061 A 
ATOM     33  C   UNL     1      -0.925  13.505  21.124  0.00  0.00    -0.050 A 
ATOM     34  C   UNL     1      -0.688  12.627  20.061  0.00  0.00    +0.037 A 
ATOM     35  C   UNL     1      -0.610  11.250  20.306  0.00  0.00    -0.045 A 
ATOM     36  H   UNL     1      -1.039  11.269  23.690  0.00  0.00    +0.062 HD
ATOM     37  H   UNL     1      -1.238  13.699  23.239  0.00  0.00    +0.062 HD
ATOM     38  H   UNL     1      -1.015  14.574  20.936  0.00  0.00    +0.063 HD
ATOM     39  H   UNL     1      -0.501  10.551  19.482  0.00  0.00    +0.063 HD
BRANCH  34  40
ATOM     40  C   UNL     1      -0.549  13.203  18.686  0.00  0.00    +0.242 C 
ATOM     41  N   UNL     1      -1.240  12.600  17.667  0.00  0.00    -0.325 N 
ATOM     42  O   UNL     1       0.180  14.160  18.457  0.00  0.00    -0.270 OA
ATOM     43  H   UNL     1      -1.744  11.730  17.778  0.00  0.00    +0.145 HD
ATOM     44  H   UNL     1      -1.060  12.928  16.725  0.00  0.00    +0.145 HD
ENDBRANCH  34  40
ENDBRANCH  27  30
ENDBRANCH  25  27
ENDBRANCH  12  23
BRANCH   1  45
ATOM     45  C   UNL     1       6.443   6.250  16.702  0.00  0.00    -0.022 C 
ATOM     46  H   UNL     1       5.841   6.951  16.106  0.00  0.00    +0.034 HD
BRANCH  45  47
ATOM     47  C   UNL     1       7.545   7.074  17.374  0.00  0.00    -0.059 C 
ATOM     48  H   UNL     1       7.354   7.224  18.445  0.00  0.00    +0.024 HD
ATOM     49  H   UNL     1       8.516   6.570  17.277  0.00  0.00    +0.024 HD
ATOM     50  H   UNL     1       7.635   8.061  16.909  0.00  0.00    +0.024 HD
ENDBRANCH  45  47
BRANCH  45  51
ATOM     51  C   UNL     1       7.043   5.230  15.728  0.00  0.00    -0.059 C 
ATOM     52  H   UNL     1       6.932   4.210  16.110  0.00  0.00    +0.024 HD
ATOM     53  H   UNL     1       8.110   5.409  15.557  0.00  0.00    +0.024 HD
ATOM     54  H   UNL     1       6.537   5.282  14.757  0.00  0.00    +0.024 HD
ENDBRANCH  45  51
ENDBRANCH   1  45
TORSDOF 7
ENDMDL
MODEL 25
REMARK VINA RESULT:    -6.754      3.320      9.031
REMARK INTER + INTRA:          -9.607
REMARK INTER:                  -8.949
REMARK INTRA:                  -0.658
REMARK UNBOUND:                -0.484
REMARK  Name = 
REMARK  7 active torsions:
REMARK  status: ('A' for Active; 'I' for Inactive)
REMARK    1  A    between atoms: C_1  and  C_2
REMARK    2  A    between atoms: C_2  and  C_3
REMARK    3  A    between atoms: C_2  and  C_4
REMARK    4  A    between atoms: C_15  and  C_16
REMARK    5  A    between atoms: N_18  and  C_19
REMARK    6  A    between atoms: C_19  and  C_20
REMARK    7  A    between atoms: C_24  and  C_25
REMARK                            x       y       z     vdW  Elec       q    Type
REMARK                         _______ _______ _______ _____ _____    ______ ____
ROOT
ATOM      1  C   UNL     1      -2.725  11.450  17.973  0.00  0.00    -0.044 A 
ATOM      2  C   UNL     1      -3.193  11.945  19.197  0.00  0.00    -0.055 A 
ATOM      3  C   UNL     1      -2.392  11.877  20.334  0.00  0.00    -0.019 A 
ATOM      4  C   UNL     1      -1.113  11.315  20.262  0.00  0.00    +0.124 A 
ATOM      5  C   UNL     1      -0.587  10.827  19.049  0.00  0.00    +0.002 A 
ATOM      6  C   UNL     1      -1.432  10.897  17.921  0.00  0.00    -0.051 A 
ATOM      7  C   UNL     1       0.844  10.280  19.011  0.00  0.00    +0.014 C 
ATOM      8  C   UNL     1       1.620  10.646  20.261  0.00  0.00    -0.008 C 
ATOM      9  C   UNL     1       0.717  10.427  21.463  0.00  0.00    +0.090 C 
ATOM     10  O   UNL     1      -0.405  11.322  21.443  0.00  0.00    -0.492 OA
ATOM     11  C   UNL     1       1.638  10.231  17.719  0.00  0.00    -0.030 C 
ATOM     12  C   UNL     1       1.097   8.944  18.307  0.00  0.00    +0.046 C 
ATOM     13  H   UNL     1      -4.181  12.393  19.277  0.00  0.00    +0.062 HD
ATOM     14  H   UNL     1      -2.760  12.266  21.282  0.00  0.00    +0.065 HD
ATOM     15  H   UNL     1      -1.073  10.515  16.970  0.00  0.00    +0.062 HD
ATOM     16  H   UNL     1       1.907  11.700  20.198  0.00  0.00    +0.031 HD
ATOM     17  H   UNL     1       2.542  10.066  20.367  0.00  0.00    +0.031 HD
ATOM     18  H   UNL     1       1.273  10.630  22.384  0.00  0.00    +0.070 HD
ATOM     19  H   UNL     1       0.351   9.398  21.524  0.00  0.00    +0.070 HD
ATOM     20  H   UNL     1       1.196  10.609  16.806  0.00  0.00    +0.028 HD
ATOM     21  H   UNL     1       2.705  10.423  17.776  0.00  0.00    +0.028 HD
ATOM     22  H   UNL     1       0.245   8.493  17.806  0.00  0.00    +0.040 HD
ENDROOT
BRANCH  12  23
ATOM     23  C   UNL     1       2.014   7.922  18.869  0.00  0.00    +0.217 C 
ATOM     24  O   UNL     1       3.141   7.776  18.421  0.00  0.00    -0.275 OA
ATOM     25  N   UNL     1       1.488   7.231  19.927  0.00  0.00    -0.311 N 
ATOM     26  H   UNL     1       0.602   7.535  20.304  0.00  0.00    +0.149 HD
BRANCH  25  27
ATOM     27  C   UNL     1       2.295   6.329  20.712  0.00  0.00    +0.037 C 
ATOM     28  H   UNL     1       2.041   6.443  21.767  0.00  0.00    +0.051 HD
ATOM     29  H   UNL     1       3.343   6.622  20.593  0.00  0.00    +0.051 HD
BRANCH  27  30
ATOM     30  C   UNL     1       2.106   4.900  20.270  0.00  0.00    -0.030 A 
ATOM     31  C   UNL     1       1.060   4.123  20.782  0.00  0.00    -0.057 A 
ATOM     32  C   UNL     1       0.931   2.778  20.414  0.00  0.00    -0.061 A 
ATOM     33  C   UNL     1       1.830   2.206  19.517  0.00  0.00    -0.050 A 
ATOM     34  C   UNL     1       2.867   2.974  18.977  0.00  0.00    +0.037 A 
ATOM     35  C   UNL     1       3.016   4.310  19.372  0.00  0.00    -0.045 A 
ATOM     36  H   UNL     1       0.353   4.556  21.490  0.00  0.00    +0.062 HD
ATOM     37  H   UNL     1       0.135   2.174  20.833  0.00  0.00    +0.062 HD
ATOM     38  H   UNL     1       1.726   1.159  19.235  0.00  0.00    +0.063 HD
ATOM     39  H   UNL     1       3.858   4.896  19.019  0.00  0.00    +0.063 HD
BRANCH  34  40
ATOM     40  C   UNL     1       3.800   2.321  18.005  0.00  0.00    +0.242 C 
ATOM     41  N   UNL     1       4.010   0.972  18.128  0.00  0.00    -0.325 N 
ATOM     42  O   UNL     1       4.389   2.962  17.143  0.00  0.00    -0.270 OA
ATOM     43  H   UNL     1       3.657   0.424  18.902  0.00  0.00    +0.145 HD
ATOM     44  H   UNL     1       4.720   0.556  17.536  0.00  0.00    +0.145 HD
ENDBRANCH  34  40
ENDBRANCH  27  30
ENDBRANCH  25  27
ENDBRANCH  12  23
BRANCH   1  45
ATOM     45  C   UNL     1      -3.568  11.512  16.710  0.00  0.00    -0.022 C 
ATOM     46  H   UNL     1      -3.355  12.458  16.192  0.00  0.00    +0.034 HD
BRANCH  45  47
ATOM     47  C   UNL     1      -3.222  10.384  15.735  0.00  0.00    -0.059 C 
ATOM     48  H   UNL     1      -3.040  10.758  14.718  0.00  0.00    +0.024 HD
ATOM     49  H   UNL     1      -2.317   9.855  16.062  0.00  0.00    +0.024 HD
ATOM     50  H   UNL     1      -4.034   9.650  15.680  0.00  0.00    +0.024 HD
ENDBRANCH  45  47
BRANCH  45  51
ATOM     51  C   UNL     1      -5.065  11.508  17.038  0.00  0.00    -0.059 C 
ATOM     52  H   UNL     1      -5.253  11.944  18.025  0.00  0.00    +0.024 HD
ATOM     53  H   UNL     1      -5.480  10.493  17.038  0.00  0.00    +0.024 HD
ATOM     54  H   UNL     1      -5.623  12.095  16.299  0.00  0.00    +0.024 HD
ENDBRANCH  45  51
ENDBRANCH   1  45
TORSDOF 7
ENDMDL
MODEL 26
REMARK VINA RESULT:    -6.685      4.134      9.615
REMARK INTER + INTRA:          -9.515
REMARK INTER:                  -8.789
REMARK INTRA:                  -0.725
REMARK UNBOUND:                -0.484
REMARK  Name = 
REMARK  7 active torsions:
REMARK  status: ('A' for Active; 'I' for Inactive)
REMARK    1  A    between atoms: C_1  and  C_2
REMARK    2  A    between atoms: C_2  and  C_3
REMARK    3  A    between atoms: C_2  and  C_4
REMARK    4  A    between atoms: C_15  and  C_16
REMARK    5  A    between atoms: N_18  and  C_19
REMARK    6  A    between atoms: C_19  and  C_20
REMARK    7  A    between atoms: C_24  and  C_25
REMARK                            x       y       z     vdW  Elec       q    Type
REMARK                         _______ _______ _______ _____ _____    ______ ____
ROOT
ATOM      1  C   UNL     1      -3.073  12.918  20.015  0.00  0.00    -0.044 A 
ATOM      2  C   UNL     1      -2.571  14.141  20.476  0.00  0.00    -0.055 A 
ATOM      3  C   UNL     1      -1.197  14.365  20.515  0.00  0.00    -0.019 A 
ATOM      4  C   UNL     1      -0.309  13.371  20.094  0.00  0.00    +0.124 A 
ATOM      5  C   UNL     1      -0.765  12.133  19.597  0.00  0.00    +0.002 A 
ATOM      6  C   UNL     1      -2.162  11.934  19.586  0.00  0.00    -0.051 A 
ATOM      7  C   UNL     1       0.247  11.103  19.086  0.00  0.00    +0.014 C 
ATOM      8  C   UNL     1       1.623  11.712  18.894  0.00  0.00    -0.008 C 
ATOM      9  C   UNL     1       1.923  12.596  20.093  0.00  0.00    +0.090 C 
ATOM     10  O   UNL     1       1.024  13.713  20.157  0.00  0.00    -0.492 OA
ATOM     11  C   UNL     1      -0.152  10.024  18.098  0.00  0.00    -0.030 C 
ATOM     12  C   UNL     1       0.103   9.649  19.543  0.00  0.00    +0.046 C 
ATOM     13  H   UNL     1      -3.242  14.932  20.803  0.00  0.00    +0.062 HD
ATOM     14  H   UNL     1      -0.812  15.319  20.873  0.00  0.00    +0.065 HD
ATOM     15  H   UNL     1      -2.556  10.988  19.228  0.00  0.00    +0.062 HD
ATOM     16  H   UNL     1       1.614  12.314  17.980  0.00  0.00    +0.031 HD
ATOM     17  H   UNL     1       2.404  10.955  18.775  0.00  0.00    +0.031 HD
ATOM     18  H   UNL     1       2.936  13.003  20.006  0.00  0.00    +0.070 HD
ATOM     19  H   UNL     1       1.874  12.045  21.037  0.00  0.00    +0.070 HD
ATOM     20  H   UNL     1      -1.168   9.990  17.725  0.00  0.00    +0.028 HD
ATOM     21  H   UNL     1       0.578   9.734  17.347  0.00  0.00    +0.028 HD
ATOM     22  H   UNL     1      -0.766   9.418  20.152  0.00  0.00    +0.040 HD
ENDROOT
BRANCH  12  23
ATOM     23  C   UNL     1       1.278   8.822  19.917  0.00  0.00    +0.217 C 
ATOM     24  O   UNL     1       1.597   8.679  21.087  0.00  0.00    -0.275 OA
ATOM     25  N   UNL     1       1.899   8.232  18.848  0.00  0.00    -0.311 N 
ATOM     26  H   UNL     1       1.462   8.303  17.941  0.00  0.00    +0.149 HD
BRANCH  25  27
ATOM     27  C   UNL     1       2.942   7.253  19.033  0.00  0.00    +0.037 C 
ATOM     28  H   UNL     1       3.461   7.452  19.972  0.00  0.00    +0.051 HD
ATOM     29  H   UNL     1       3.670   7.377  18.224  0.00  0.00    +0.051 HD
BRANCH  27  30
ATOM     30  C   UNL     1       2.386   5.851  19.016  0.00  0.00    -0.030 A 
ATOM     31  C   UNL     1       1.799   5.326  17.859  0.00  0.00    -0.057 A 
ATOM     32  C   UNL     1       1.229   4.048  17.871  0.00  0.00    -0.061 A 
ATOM     33  C   UNL     1       1.259   3.277  19.031  0.00  0.00    -0.050 A 
ATOM     34  C   UNL     1       1.862   3.776  20.190  0.00  0.00    +0.037 A 
ATOM     35  C   UNL     1       2.403   5.068  20.186  0.00  0.00    -0.045 A 
ATOM     36  H   UNL     1       1.763   5.921  16.946  0.00  0.00    +0.062 HD
ATOM     37  H   UNL     1       0.752   3.657  16.980  0.00  0.00    +0.062 HD
ATOM     38  H   UNL     1       0.812   2.283  19.036  0.00  0.00    +0.063 HD
ATOM     39  H   UNL     1       2.807   5.497  21.098  0.00  0.00    +0.063 HD
BRANCH  34  40
ATOM     40  C   UNL     1       1.884   2.905  21.408  0.00  0.00    +0.242 C 
ATOM     41  N   UNL     1       3.105   2.518  21.895  0.00  0.00    -0.325 N 
ATOM     42  O   UNL     1       0.853   2.517  21.943  0.00  0.00    -0.270 OA
ATOM     43  H   UNL     1       3.976   2.697  21.413  0.00  0.00    +0.145 HD
ATOM     44  H   UNL     1       3.111   1.845  22.653  0.00  0.00    +0.145 HD
ENDBRANCH  34  40
ENDBRANCH  27  30
ENDBRANCH  25  27
ENDBRANCH  12  23
BRANCH   1  45
ATOM     45  C   UNL     1      -4.566  12.639  19.952  0.00  0.00    -0.022 C 
ATOM     46  H   UNL     1      -5.074  13.533  19.565  0.00  0.00    +0.034 HD
BRANCH  45  47
ATOM     47  C   UNL     1      -4.894  11.492  18.991  0.00  0.00    -0.059 C 
ATOM     48  H   UNL     1      -4.903  10.518  19.498  0.00  0.00    +0.024 HD
ATOM     49  H   UNL     1      -5.883  11.641  18.538  0.00  0.00    +0.024 HD
ATOM     50  H   UNL     1      -4.161  11.439  18.179  0.00  0.00    +0.024 HD
ENDBRANCH  45  47
BRANCH  45  51
ATOM     51  C   UNL     1      -5.141  12.363  21.345  0.00  0.00    -0.059 C 
ATOM     52  H   UNL     1      -4.341  12.240  22.084  0.00  0.00    +0.024 HD
ATOM     53  H   UNL     1      -5.752  11.453  21.361  0.00  0.00    +0.024 HD
ATOM     54  H   UNL     1      -5.775  13.195  21.672  0.00  0.00    +0.024 HD
ENDBRANCH  45  51
ENDBRANCH   1  45
TORSDOF 7
ENDMDL
MODEL 27
REMARK VINA RESULT:    -6.676      3.150      6.179
REMARK INTER + INTRA:          -9.503
REMARK INTER:                  -8.670
REMARK INTRA:                  -0.832
REMARK UNBOUND:                -0.484
REMARK  Name = 
REMARK  7 active torsions:
REMARK  status: ('A' for Active; 'I' for Inactive)
REMARK    1  A    between atoms: C_1  and  C_2
REMARK    2  A    between atoms: C_2  and  C_3
REMARK    3  A    between atoms: C_2  and  C_4
REMARK    4  A    between atoms: C_15  and  C_16
REMARK    5  A    between atoms: N_18  and  C_19
REMARK    6  A    between atoms: C_19  and  C_20
REMARK    7  A    between atoms: C_24  and  C_25
REMARK                            x       y       z     vdW  Elec       q    Type
REMARK                         _______ _______ _______ _____ _____    ______ ____
ROOT
ATOM      1  C   UNL     1       3.442   6.473  18.141  0.00  0.00    -0.044 A 
ATOM      2  C   UNL     1       3.402   5.739  19.333  0.00  0.00    -0.055 A 
ATOM      3  C   UNL     1       2.648   6.193  20.412  0.00  0.00    -0.019 A 
ATOM      4  C   UNL     1       1.923   7.385  20.313  0.00  0.00    +0.124 A 
ATOM      5  C   UNL     1       1.910   8.146  19.126  0.00  0.00    +0.002 A 
ATOM      6  C   UNL     1       2.697   7.665  18.060  0.00  0.00    -0.051 A 
ATOM      7  C   UNL     1       1.047   9.410  19.048  0.00  0.00    +0.014 C 
ATOM      8  C   UNL     1       0.057   9.488  20.194  0.00  0.00    -0.008 C 
ATOM      9  C   UNL     1       0.777   9.094  21.473  0.00  0.00    +0.090 C 
ATOM     10  O   UNL     1       1.198   7.723  21.434  0.00  0.00    -0.492 OA
ATOM     11  C   UNL     1       0.578   9.966  17.718  0.00  0.00    -0.030 C 
ATOM     12  C   UNL     1       1.672  10.686  18.478  0.00  0.00    +0.046 C 
ATOM     13  H   UNL     1       3.952   4.805  19.432  0.00  0.00    +0.062 HD
ATOM     14  H   UNL     1       2.619   5.618  21.336  0.00  0.00    +0.065 HD
ATOM     15  H   UNL     1       2.730   8.230  17.132  0.00  0.00    +0.062 HD
ATOM     16  H   UNL     1      -0.761   8.789  19.997  0.00  0.00    +0.031 HD
ATOM     17  H   UNL     1      -0.386  10.483  20.298  0.00  0.00    +0.031 HD
ATOM     18  H   UNL     1       0.098   9.198  22.325  0.00  0.00    +0.070 HD
ATOM     19  H   UNL     1       1.647   9.729  21.671  0.00  0.00    +0.070 HD
ATOM     20  H   UNL     1       0.837   9.451  16.802  0.00  0.00    +0.028 HD
ATOM     21  H   UNL     1      -0.412  10.413  17.679  0.00  0.00    +0.028 HD
ATOM     22  H   UNL     1       2.683  10.598  18.090  0.00  0.00    +0.040 HD
ENDROOT
BRANCH  12  23
ATOM     23  C   UNL     1       1.426  12.019  19.083  0.00  0.00    +0.217 C 
ATOM     24  O   UNL     1       2.279  12.566  19.765  0.00  0.00    -0.275 OA
ATOM     25  N   UNL     1       0.208  12.555  18.759  0.00  0.00    -0.311 N 
ATOM     26  H   UNL     1      -0.356  12.079  18.070  0.00  0.00    +0.149 HD
BRANCH  25  27
ATOM     27  C   UNL     1      -0.131  13.914  19.104  0.00  0.00    +0.037 C 
ATOM     28  H   UNL     1      -0.919  14.269  18.438  0.00  0.00    +0.051 HD
ATOM     29  H   UNL     1       0.752  14.538  18.929  0.00  0.00    +0.051 HD
BRANCH  27  30
ATOM     30  C   UNL     1      -0.562  14.021  20.545  0.00  0.00    -0.030 A 
ATOM     31  C   UNL     1      -0.316  15.186  21.282  0.00  0.00    -0.057 A 
ATOM     32  C   UNL     1      -0.662  15.253  22.637  0.00  0.00    -0.061 A 
ATOM     33  C   UNL     1      -1.274  14.168  23.260  0.00  0.00    -0.050 A 
ATOM     34  C   UNL     1      -1.549  13.005  22.533  0.00  0.00    +0.037 A 
ATOM     35  C   UNL     1      -1.172  12.926  21.186  0.00  0.00    -0.045 A 
ATOM     36  H   UNL     1       0.169  16.041  20.809  0.00  0.00    +0.062 HD
ATOM     37  H   UNL     1      -0.445  16.147  23.210  0.00  0.00    +0.062 HD
ATOM     38  H   UNL     1      -1.540  14.224  24.315  0.00  0.00    +0.063 HD
ATOM     39  H   UNL     1      -1.311  12.005  20.629  0.00  0.00    +0.063 HD
BRANCH  34  40
ATOM     40  C   UNL     1      -2.222  11.870  23.241  0.00  0.00    +0.242 C 
ATOM     41  N   UNL     1      -3.477  12.087  23.748  0.00  0.00    -0.325 N 
ATOM     42  O   UNL     1      -1.670  10.788  23.397  0.00  0.00    -0.270 OA
ATOM     43  H   UNL     1      -3.918  12.997  23.765  0.00  0.00    +0.145 HD
ATOM     44  H   UNL     1      -3.883  11.351  24.315  0.00  0.00    +0.145 HD
ENDBRANCH  34  40
ENDBRANCH  27  30
ENDBRANCH  25  27
ENDBRANCH  12  23
BRANCH   1  45
ATOM     45  C   UNL     1       4.248   6.006  16.941  0.00  0.00    -0.022 C 
ATOM     46  H   UNL     1       3.725   6.316  16.024  0.00  0.00    +0.034 HD
BRANCH  45  47
ATOM     47  C   UNL     1       5.636   6.650  16.898  0.00  0.00    -0.059 C 
ATOM     48  H   UNL     1       5.825   7.284  17.774  0.00  0.00    +0.024 HD
ATOM     49  H   UNL     1       6.418   5.879  16.870  0.00  0.00    +0.024 HD
ATOM     50  H   UNL     1       5.753   7.273  16.004  0.00  0.00    +0.024 HD
ENDBRANCH  45  47
BRANCH  45  51
ATOM     51  C   UNL     1       4.356   4.478  16.901  0.00  0.00    -0.059 C 
ATOM     52  H   UNL     1       4.173   4.045  17.891  0.00  0.00    +0.024 HD
ATOM     53  H   UNL     1       5.347   4.147  16.570  0.00  0.00    +0.024 HD
ATOM     54  H   UNL     1       3.616   4.057  16.209  0.00  0.00    +0.024 HD
ENDBRANCH  45  51
ENDBRANCH   1  45
TORSDOF 7
ENDMDL
MODEL 28
REMARK VINA RESULT:    -6.674      2.996     10.378
REMARK INTER + INTRA:          -9.499
REMARK INTER:                  -9.063
REMARK INTRA:                  -0.436
REMARK UNBOUND:                -0.484
REMARK  Name = 
REMARK  7 active torsions:
REMARK  status: ('A' for Active; 'I' for Inactive)
REMARK    1  A    between atoms: C_1  and  C_2
REMARK    2  A    between atoms: C_2  and  C_3
REMARK    3  A    between atoms: C_2  and  C_4
REMARK    4  A    between atoms: C_15  and  C_16
REMARK    5  A    between atoms: N_18  and  C_19
REMARK    6  A    between atoms: C_19  and  C_20
REMARK    7  A    between atoms: C_24  and  C_25
REMARK                            x       y       z     vdW  Elec       q    Type
REMARK                         _______ _______ _______ _____ _____    ______ ____
ROOT
ATOM      1  C   UNL     1      -2.381  13.564  22.470  0.00  0.00    -0.044 A 
ATOM      2  C   UNL     1      -2.846  12.783  23.536  0.00  0.00    -0.055 A 
ATOM      3  C   UNL     1      -2.343  11.500  23.737  0.00  0.00    -0.019 A 
ATOM      4  C   UNL     1      -1.371  10.981  22.876  0.00  0.00    +0.124 A 
ATOM      5  C   UNL     1      -0.853  11.736  21.805  0.00  0.00    +0.002 A 
ATOM      6  C   UNL     1      -1.395  13.025  21.621  0.00  0.00    -0.051 A 
ATOM      7  C   UNL     1       0.258  11.146  20.931  0.00  0.00    +0.014 C 
ATOM      8  C   UNL     1       0.877   9.913  21.563  0.00  0.00    -0.008 C 
ATOM      9  C   UNL     1      -0.244   9.049  22.117  0.00  0.00    +0.090 C 
ATOM     10  O   UNL     1      -0.935   9.712  23.185  0.00  0.00    -0.492 OA
ATOM     11  C   UNL     1       1.196  12.034  20.136  0.00  0.00    -0.030 C 
ATOM     12  C   UNL     1       0.124  11.250  19.410  0.00  0.00    +0.046 C 
ATOM     13  H   UNL     1      -3.596  13.167  24.224  0.00  0.00    +0.062 HD
ATOM     14  H   UNL     1      -2.706  10.898  24.569  0.00  0.00    +0.065 HD
ATOM     15  H   UNL     1      -1.037  13.635  20.797  0.00  0.00    +0.062 HD
ATOM     16  H   UNL     1       1.538  10.231  22.374  0.00  0.00    +0.031 HD
ATOM     17  H   UNL     1       1.485   9.340  20.856  0.00  0.00    +0.031 HD
ATOM     18  H   UNL     1       0.173   8.124  22.528  0.00  0.00    +0.070 HD
ATOM     19  H   UNL     1      -0.968   8.766  21.346  0.00  0.00    +0.070 HD
ATOM     20  H   UNL     1       1.096  13.110  20.201  0.00  0.00    +0.028 HD
ATOM     21  H   UNL     1       2.231  11.716  20.040  0.00  0.00    +0.028 HD
ATOM     22  H   UNL     1      -0.730  11.810  19.037  0.00  0.00    +0.040 HD
ENDROOT
BRANCH  12  23
ATOM     23  C   UNL     1       0.484  10.125  18.510  0.00  0.00    +0.217 C 
ATOM     24  O   UNL     1      -0.345   9.630  17.762  0.00  0.00    -0.275 OA
ATOM     25  N   UNL     1       1.802   9.761  18.583  0.00  0.00    -0.311 N 
ATOM     26  H   UNL     1       2.427  10.335  19.129  0.00  0.00    +0.149 HD
BRANCH  25  27
ATOM     27  C   UNL     1       2.372   8.814  17.656  0.00  0.00    +0.037 C 
ATOM     28  H   UNL     1       3.280   9.236  17.223  0.00  0.00    +0.051 HD
ATOM     29  H   UNL     1       1.657   8.666  16.840  0.00  0.00    +0.051 HD
BRANCH  27  30
ATOM     30  C   UNL     1       2.664   7.497  18.331  0.00  0.00    -0.030 A 
ATOM     31  C   UNL     1       2.070   7.171  19.556  0.00  0.00    -0.057 A 
ATOM     32  C   UNL     1       2.396   5.974  20.205  0.00  0.00    -0.061 A 
ATOM     33  C   UNL     1       3.300   5.086  19.627  0.00  0.00    -0.050 A 
ATOM     34  C   UNL     1       3.886   5.385  18.393  0.00  0.00    +0.037 A 
ATOM     35  C   UNL     1       3.584   6.597  17.760  0.00  0.00    -0.045 A 
ATOM     36  H   UNL     1       1.365   7.860  20.022  0.00  0.00    +0.062 HD
ATOM     37  H   UNL     1       1.953   5.739  21.166  0.00  0.00    +0.062 HD
ATOM     38  H   UNL     1       3.552   4.157  20.138  0.00  0.00    +0.063 HD
ATOM     39  H   UNL     1       4.087   6.876  16.839  0.00  0.00    +0.063 HD
BRANCH  34  40
ATOM     40  C   UNL     1       4.840   4.392  17.803  0.00  0.00    +0.242 C 
ATOM     41  N   UNL     1       5.949   4.058  18.536  0.00  0.00    -0.325 N 
ATOM     42  O   UNL     1       4.665   3.910  16.691  0.00  0.00    -0.270 OA
ATOM     43  H   UNL     1       6.208   4.527  19.394  0.00  0.00    +0.145 HD
ATOM     44  H   UNL     1       6.642   3.469  18.088  0.00  0.00    +0.145 HD
ENDBRANCH  34  40
ENDBRANCH  27  30
ENDBRANCH  25  27
ENDBRANCH  12  23
BRANCH   1  45
ATOM     45  C   UNL     1      -2.900  14.970  22.223  0.00  0.00    -0.022 C 
ATOM     46  H   UNL     1      -2.123  15.689  22.520  0.00  0.00    +0.034 HD
BRANCH  45  47
ATOM     47  C   UNL     1      -3.191  15.221  20.741  0.00  0.00    -0.059 C 
ATOM     48  H   UNL     1      -3.862  16.078  20.591  0.00  0.00    +0.024 HD
ATOM     49  H   UNL     1      -2.261  15.426  20.195  0.00  0.00    +0.024 HD
ATOM     50  H   UNL     1      -3.661  14.345  20.280  0.00  0.00    +0.024 HD
ENDBRANCH  45  47
BRANCH  45  51
ATOM     51  C   UNL     1      -4.137  15.267  23.078  0.00  0.00    -0.059 C 
ATOM     52  H   UNL     1      -4.665  14.343  23.339  0.00  0.00    +0.024 HD
ATOM     53  H   UNL     1      -4.846  15.920  22.557  0.00  0.00    +0.024 HD
ATOM     54  H   UNL     1      -3.850  15.765  24.012  0.00  0.00    +0.024 HD
ENDBRANCH  45  51
ENDBRANCH   1  45
TORSDOF 7
ENDMDL
MODEL 29
REMARK VINA RESULT:    -6.621      3.097      9.404
REMARK INTER + INTRA:          -9.428
REMARK INTER:                  -9.091
REMARK INTRA:                  -0.337
REMARK UNBOUND:                -0.484
REMARK  Name = 
REMARK  7 active torsions:
REMARK  status: ('A' for Active; 'I' for Inactive)
REMARK    1  A    between atoms: C_1  and  C_2
REMARK    2  A    between atoms: C_2  and  C_3
REMARK    3  A    between atoms: C_2  and  C_4
REMARK    4  A    between atoms: C_15  and  C_16
REMARK    5  A    between atoms: N_18  and  C_19
REMARK    6  A    between atoms: C_19  and  C_20
REMARK    7  A    between atoms: C_24  and  C_25
REMARK                            x       y       z     vdW  Elec       q    Type
REMARK                         _______ _______ _______ _____ _____    ______ ____
ROOT
ATOM      1  C   UNL     1      -3.294  11.352  18.184  0.00  0.00    -0.044 A 
ATOM      2  C   UNL     1      -3.729  12.188  19.219  0.00  0.00    -0.055 A 
ATOM      3  C   UNL     1      -2.886  12.475  20.291  0.00  0.00    -0.019 A 
ATOM      4  C   UNL     1      -1.599  11.929  20.340  0.00  0.00    +0.124 A 
ATOM      5  C   UNL     1      -1.106  11.103  19.310  0.00  0.00    +0.002 A 
ATOM      6  C   UNL     1      -1.991  10.821  18.249  0.00  0.00    -0.051 A 
ATOM      7  C   UNL     1       0.334  10.584  19.381  0.00  0.00    +0.014 C 
ATOM      8  C   UNL     1       1.146  11.318  20.431  0.00  0.00    -0.008 C 
ATOM      9  C   UNL     1       0.291  11.463  21.678  0.00  0.00    +0.090 C 
ATOM     10  O   UNL     1      -0.850  12.299  21.435  0.00  0.00    -0.492 OA
ATOM     11  C   UNL     1       1.082  10.155  18.134  0.00  0.00    -0.030 C 
ATOM     12  C   UNL     1       0.590   9.101  19.103  0.00  0.00    +0.046 C 
ATOM     13  H   UNL     1      -4.723  12.630  19.200  0.00  0.00    +0.062 HD
ATOM     14  H   UNL     1      -3.228  13.128  21.092  0.00  0.00    +0.065 HD
ATOM     15  H   UNL     1      -1.658  10.174  17.443  0.00  0.00    +0.062 HD
ATOM     16  H   UNL     1       1.408  12.307  20.041  0.00  0.00    +0.031 HD
ATOM     17  H   UNL     1       2.083  10.806  20.669  0.00  0.00    +0.031 HD
ATOM     18  H   UNL     1       0.875  11.940  22.472  0.00  0.00    +0.070 HD
ATOM     19  H   UNL     1      -0.051  10.497  22.061  0.00  0.00    +0.070 HD
ATOM     20  H   UNL     1       0.601  10.235  17.167  0.00  0.00    +0.028 HD
ATOM     21  H   UNL     1       2.147  10.365  18.087  0.00  0.00    +0.028 HD
ATOM     22  H   UNL     1      -0.269   8.511  18.795  0.00  0.00    +0.040 HD
ENDROOT
BRANCH  12  23
ATOM     23  C   UNL     1       1.549   8.304  19.909  0.00  0.00    +0.217 C 
ATOM     24  O   UNL     1       1.450   8.248  21.125  0.00  0.00    -0.275 OA
ATOM     25  N   UNL     1       2.479   7.637  19.158  0.00  0.00    -0.311 N 
ATOM     26  H   UNL     1       2.376   7.641  18.154  0.00  0.00    +0.149 HD
BRANCH  25  27
ATOM     27  C   UNL     1       3.374   6.674  19.753  0.00  0.00    +0.037 C 
ATOM     28  H   UNL     1       2.880   6.199  20.602  0.00  0.00    +0.051 HD
ATOM     29  H   UNL     1       4.244   7.215  20.140  0.00  0.00    +0.051 HD
BRANCH  27  30
ATOM     30  C   UNL     1       3.815   5.642  18.746  0.00  0.00    -0.030 A 
ATOM     31  C   UNL     1       4.626   5.999  17.662  0.00  0.00    -0.057 A 
ATOM     32  C   UNL     1       4.978   5.047  16.697  0.00  0.00    -0.061 A 
ATOM     33  C   UNL     1       4.542   3.730  16.819  0.00  0.00    -0.050 A 
ATOM     34  C   UNL     1       3.750   3.351  17.908  0.00  0.00    +0.037 A 
ATOM     35  C   UNL     1       3.371   4.311  18.854  0.00  0.00    -0.045 A 
ATOM     36  H   UNL     1       4.970   7.028  17.551  0.00  0.00    +0.062 HD
ATOM     37  H   UNL     1       5.584   5.335  15.846  0.00  0.00    +0.062 HD
ATOM     38  H   UNL     1       4.816   2.993  16.064  0.00  0.00    +0.063 HD
ATOM     39  H   UNL     1       2.697   4.048  19.664  0.00  0.00    +0.063 HD
BRANCH  34  40
ATOM     40  C   UNL     1       3.318   1.920  18.004  0.00  0.00    +0.242 C 
ATOM     41  N   UNL     1       4.225   1.008  18.477  0.00  0.00    -0.325 N 
ATOM     42  O   UNL     1       2.204   1.556  17.646  0.00  0.00    -0.270 OA
ATOM     43  H   UNL     1       5.195   1.233  18.657  0.00  0.00    +0.145 HD
ATOM     44  H   UNL     1       3.963   0.030  18.441  0.00  0.00    +0.145 HD
ENDBRANCH  34  40
ENDBRANCH  27  30
ENDBRANCH  25  27
ENDBRANCH  12  23
BRANCH   1  45
ATOM     45  C   UNL     1      -4.182  11.022  16.996  0.00  0.00    -0.022 C 
ATOM     46  H   UNL     1      -4.799  10.148  17.251  0.00  0.00    +0.034 HD
BRANCH  45  47
ATOM     47  C   UNL     1      -5.147  12.164  16.667  0.00  0.00    -0.059 C 
ATOM     48  H   UNL     1      -4.621  13.058  16.307  0.00  0.00    +0.024 HD
ATOM     49  H   UNL     1      -5.855  11.858  15.886  0.00  0.00    +0.024 HD
ATOM     50  H   UNL     1      -5.729  12.452  17.549  0.00  0.00    +0.024 HD
ENDBRANCH  45  47
BRANCH  45  51
ATOM     51  C   UNL     1      -3.351  10.641  15.766  0.00  0.00    -0.059 C 
ATOM     52  H   UNL     1      -2.281  10.623  16.005  0.00  0.00    +0.024 HD
ATOM     53  H   UNL     1      -3.496  11.346  14.940  0.00  0.00    +0.024 HD
ATOM     54  H   UNL     1      -3.630   9.644  15.405  0.00  0.00    +0.024 HD
ENDBRANCH  45  51
ENDBRANCH   1  45
TORSDOF 7
ENDMDL
MODEL 30
REMARK VINA RESULT:    -6.594      3.316     10.394
REMARK INTER + INTRA:          -9.391
REMARK INTER:                  -8.592
REMARK INTRA:                  -0.799
REMARK UNBOUND:                -0.484
REMARK  Name = 
REMARK  7 active torsions:
REMARK  status: ('A' for Active; 'I' for Inactive)
REMARK    1  A    between atoms: C_1  and  C_2
REMARK    2  A    between atoms: C_2  and  C_3
REMARK    3  A    between atoms: C_2  and  C_4
REMARK    4  A    between atoms: C_15  and  C_16
REMARK    5  A    between atoms: N_18  and  C_19
REMARK    6  A    between atoms: C_19  and  C_20
REMARK    7  A    between atoms: C_24  and  C_25
REMARK                            x       y       z     vdW  Elec       q    Type
REMARK                         _______ _______ _______ _____ _____    ______ ____
ROOT
ATOM      1  C   UNL     1      -3.130  14.070  20.791  0.00  0.00    -0.044 A 
ATOM      2  C   UNL     1      -2.399  15.263  20.848  0.00  0.00    -0.055 A 
ATOM      3  C   UNL     1      -1.019  15.251  20.664  0.00  0.00    -0.019 A 
ATOM      4  C   UNL     1      -0.352  14.046  20.419  0.00  0.00    +0.124 A 
ATOM      5  C   UNL     1      -1.046  12.822  20.326  0.00  0.00    +0.002 A 
ATOM      6  C   UNL     1      -2.440  12.870  20.534  0.00  0.00    -0.051 A 
ATOM      7  C   UNL     1      -0.276  11.540  19.992  0.00  0.00    +0.014 C 
ATOM      8  C   UNL     1       1.121  11.838  19.484  0.00  0.00    -0.008 C 
ATOM      9  C   UNL     1       1.725  12.922  20.361  0.00  0.00    +0.090 C 
ATOM     10  O   UNL     1       1.008  14.158  20.232  0.00  0.00    -0.492 OA
ATOM     11  C   UNL     1      -0.970  10.338  19.379  0.00  0.00    -0.030 C 
ATOM     12  C   UNL     1      -0.543  10.288  20.832  0.00  0.00    +0.046 C 
ATOM     13  H   UNL     1      -2.896  16.214  21.030  0.00  0.00    +0.062 HD
ATOM     14  H   UNL     1      -0.456  16.181  20.707  0.00  0.00    +0.065 HD
ATOM     15  H   UNL     1      -3.012  11.947  20.489  0.00  0.00    +0.062 HD
ATOM     16  H   UNL     1       1.049  12.191  18.451  0.00  0.00    +0.031 HD
ATOM     17  H   UNL     1       1.763  10.952  19.478  0.00  0.00    +0.031 HD
ATOM     18  H   UNL     1       2.757  13.115  20.050  0.00  0.00    +0.070 HD
ATOM     19  H   UNL     1       1.752  12.634  21.416  0.00  0.00    +0.070 HD
ATOM     20  H   UNL     1      -2.027  10.390  19.152  0.00  0.00    +0.028 HD
ATOM     21  H   UNL     1      -0.415   9.752  18.652  0.00  0.00    +0.028 HD
ATOM     22  H   UNL     1      -1.328  10.366  21.579  0.00  0.00    +0.040 HD
ENDROOT
BRANCH  12  23
ATOM     23  C   UNL     1       0.553   9.388  21.270  0.00  0.00    +0.217 C 
ATOM     24  O   UNL     1       1.176   9.612  22.297  0.00  0.00    -0.275 OA
ATOM     25  N   UNL     1       0.739   8.306  20.451  0.00  0.00    -0.311 N 
ATOM     26  H   UNL     1       0.071   8.146  19.711  0.00  0.00    +0.149 HD
BRANCH  25  27
ATOM     27  C   UNL     1       1.632   7.234  20.815  0.00  0.00    +0.037 C 
ATOM     28  H   UNL     1       1.049   6.391  21.189  0.00  0.00    +0.051 HD
ATOM     29  H   UNL     1       2.267   7.585  21.635  0.00  0.00    +0.051 HD
BRANCH  27  30
ATOM     30  C   UNL     1       2.487   6.814  19.645  0.00  0.00    -0.030 A 
ATOM     31  C   UNL     1       2.685   7.671  18.556  0.00  0.00    -0.057 A 
ATOM     32  C   UNL     1       3.427   7.249  17.448  0.00  0.00    -0.061 A 
ATOM     33  C   UNL     1       3.994   5.977  17.426  0.00  0.00    -0.050 A 
ATOM     34  C   UNL     1       3.827   5.115  18.515  0.00  0.00    +0.037 A 
ATOM     35  C   UNL     1       3.056   5.527  19.610  0.00  0.00    -0.045 A 
ATOM     36  H   UNL     1       2.241   8.668  18.557  0.00  0.00    +0.062 HD
ATOM     37  H   UNL     1       3.555   7.907  16.596  0.00  0.00    +0.062 HD
ATOM     38  H   UNL     1       4.570   5.652  16.559  0.00  0.00    +0.063 HD
ATOM     39  H   UNL     1       2.855   4.842  20.428  0.00  0.00    +0.063 HD
BRANCH  34  40
ATOM     40  C   UNL     1       4.468   3.763  18.453  0.00  0.00    +0.242 C 
ATOM     41  N   UNL     1       5.749   3.641  18.925  0.00  0.00    -0.325 N 
ATOM     42  O   UNL     1       3.892   2.796  17.970  0.00  0.00    -0.270 OA
ATOM     43  H   UNL     1       6.314   4.432  19.207  0.00  0.00    +0.145 HD
ATOM     44  H   UNL     1       6.213   2.751  18.785  0.00  0.00    +0.145 HD
ENDBRANCH  34  40
ENDBRANCH  27  30
ENDBRANCH  25  27
ENDBRANCH  12  23
BRANCH   1  45
ATOM     45  C   UNL     1      -4.637  14.045  20.981  0.00  0.00    -0.022 C 
ATOM     46  H   UNL     1      -5.116  14.325  20.031  0.00  0.00    +0.034 HD
BRANCH  45  47
ATOM     47  C   UNL     1      -5.147  12.646  21.338  0.00  0.00    -0.059 C 
ATOM     48  H   UNL     1      -5.728  12.644  22.270  0.00  0.00    +0.024 HD
ATOM     49  H   UNL     1      -5.794  12.257  20.541  0.00  0.00    +0.024 HD
ATOM     50  H   UNL     1      -4.314  11.945  21.462  0.00  0.00    +0.024 HD
ENDBRANCH  45  47
BRANCH  45  51
ATOM     51  C   UNL     1      -5.085  15.071  22.028  0.00  0.00    -0.059 C 
ATOM     52  H   UNL     1      -6.165  15.244  21.972  0.00  0.00    +0.024 HD
ATOM     53  H   UNL     1      -4.585  16.037  21.893  0.00  0.00    +0.024 HD
ATOM     54  H   UNL     1      -4.854  14.715  23.039  0.00  0.00    +0.024 HD
ENDBRANCH  45  51
ENDBRANCH   1  45
TORSDOF 7
ENDMDL
MODEL 31
REMARK VINA RESULT:    -6.474      2.941      4.537
REMARK INTER + INTRA:          -9.228
REMARK INTER:                  -8.744
REMARK INTRA:                  -0.484
REMARK UNBOUND:                -0.484
REMARK  Name = 
REMARK  7 active torsions:
REMARK  status: ('A' for Active; 'I' for Inactive)
REMARK    1  A    between atoms: C_1  and  C_2
REMARK    2  A    between atoms: C_2  and  C_3
REMARK    3  A    between atoms: C_2  and  C_4
REMARK    4  A    between atoms: C_15  and  C_16
REMARK    5  A    between atoms: N_18  and  C_19
REMARK    6  A    between atoms: C_19  and  C_20
REMARK    7  A    between atoms: C_24  and  C_25
REMARK                            x       y       z     vdW  Elec       q    Type
REMARK                         _______ _______ _______ _____ _____    ______ ____
ROOT
ATOM      1  C   UNL     1       5.933   5.244  17.931  0.00  0.00    -0.044 A 
ATOM      2  C   UNL     1       5.963   4.018  18.609  0.00  0.00    -0.055 A 
ATOM      3  C   UNL     1       4.876   3.615  19.380  0.00  0.00    -0.019 A 
ATOM      4  C   UNL     1       3.745   4.432  19.483  0.00  0.00    +0.124 A 
ATOM      5  C   UNL     1       3.655   5.662  18.800  0.00  0.00    +0.002 A 
ATOM      6  C   UNL     1       4.781   6.045  18.042  0.00  0.00    -0.051 A 
ATOM      7  C   UNL     1       2.368   6.487  18.895  0.00  0.00    +0.014 C 
ATOM      8  C   UNL     1       1.224   5.681  19.478  0.00  0.00    -0.008 C 
ATOM      9  C   UNL     1       1.753   4.893  20.665  0.00  0.00    +0.090 C 
ATOM     10  O   UNL     1       2.725   3.921  20.255  0.00  0.00    -0.492 OA
ATOM     11  C   UNL     1       1.999   7.502  17.830  0.00  0.00    -0.030 C 
ATOM     12  C   UNL     1       2.482   7.987  19.181  0.00  0.00    +0.046 C 
ATOM     13  H   UNL     1       6.829   3.363  18.538  0.00  0.00    +0.062 HD
ATOM     14  H   UNL     1       4.904   2.661  19.902  0.00  0.00    +0.065 HD
ATOM     15  H   UNL     1       4.762   6.994  17.513  0.00  0.00    +0.062 HD
ATOM     16  H   UNL     1       0.853   4.995  18.710  0.00  0.00    +0.031 HD
ATOM     17  H   UNL     1       0.381   6.309  19.783  0.00  0.00    +0.031 HD
ATOM     18  H   UNL     1       0.931   4.346  21.140  0.00  0.00    +0.070 HD
ATOM     19  H   UNL     1       2.195   5.541  21.428  0.00  0.00    +0.070 HD
ATOM     20  H   UNL     1       2.645   7.634  16.971  0.00  0.00    +0.028 HD
ATOM     21  H   UNL     1       0.947   7.612  17.581  0.00  0.00    +0.028 HD
ATOM     22  H   UNL     1       3.488   8.395  19.228  0.00  0.00    +0.040 HD
ENDROOT
BRANCH  12  23
ATOM     23  C   UNL     1       1.558   8.681  20.113  0.00  0.00    +0.217 C 
ATOM     24  O   UNL     1       1.451   8.321  21.275  0.00  0.00    -0.275 OA
ATOM     25  N   UNL     1       0.911   9.750  19.553  0.00  0.00    -0.311 N 
ATOM     26  H   UNL     1       1.187  10.045  18.627  0.00  0.00    +0.149 HD
BRANCH  25  27
ATOM     27  C   UNL     1       0.117  10.651  20.352  0.00  0.00    +0.037 C 
ATOM     28  H   UNL     1       0.692  11.556  20.555  0.00  0.00    +0.051 HD
ATOM     29  H   UNL     1      -0.081  10.165  21.313  0.00  0.00    +0.051 HD
BRANCH  27  30
ATOM     30  C   UNL     1      -1.184  10.987  19.667  0.00  0.00    -0.030 A 
ATOM     31  C   UNL     1      -1.466  10.503  18.384  0.00  0.00    -0.057 A 
ATOM     32  C   UNL     1      -2.647  10.872  17.731  0.00  0.00    -0.061 A 
ATOM     33  C   UNL     1      -3.565  11.709  18.361  0.00  0.00    -0.050 A 
ATOM     34  C   UNL     1      -3.311  12.184  19.652  0.00  0.00    +0.037 A 
ATOM     35  C   UNL     1      -2.113  11.840  20.292  0.00  0.00    -0.045 A 
ATOM     36  H   UNL     1      -0.753   9.852  17.877  0.00  0.00    +0.062 HD
ATOM     37  H   UNL     1      -2.848  10.516  16.728  0.00  0.00    +0.062 HD
ATOM     38  H   UNL     1      -4.483  11.996  17.848  0.00  0.00    +0.063 HD
ATOM     39  H   UNL     1      -1.869  12.260  21.262  0.00  0.00    +0.063 HD
BRANCH  34  40
ATOM     40  C   UNL     1      -4.335  13.068  20.295  0.00  0.00    +0.242 C 
ATOM     41  N   UNL     1      -5.146  13.808  19.476  0.00  0.00    -0.325 N 
ATOM     42  O   UNL     1      -4.433  13.163  21.513  0.00  0.00    -0.270 OA
ATOM     43  H   UNL     1      -5.015  13.870  18.474  0.00  0.00    +0.145 HD
ATOM     44  H   UNL     1      -5.763  14.481  19.917  0.00  0.00    +0.145 HD
ENDBRANCH  34  40
ENDBRANCH  27  30
ENDBRANCH  25  27
ENDBRANCH  12  23
BRANCH   1  45
ATOM     45  C   UNL     1       7.097   5.713  17.075  0.00  0.00    -0.022 C 
ATOM     46  H   UNL     1       7.994   5.146  17.361  0.00  0.00    +0.034 HD
BRANCH  45  47
ATOM     47  C   UNL     1       6.859   5.445  15.587  0.00  0.00    -0.059 C 
ATOM     48  H   UNL     1       7.684   5.814  14.963  0.00  0.00    +0.024 HD
ATOM     49  H   UNL     1       6.756   4.368  15.401  0.00  0.00    +0.024 HD
ATOM     50  H   UNL     1       5.939   5.931  15.243  0.00  0.00    +0.024 HD
ENDBRANCH  45  47
BRANCH  45  51
ATOM     51  C   UNL     1       7.407   7.195  17.318  0.00  0.00    -0.059 C 
ATOM     52  H   UNL     1       8.444   7.428  17.055  0.00  0.00    +0.024 HD
ATOM     53  H   UNL     1       7.258   7.475  18.367  0.00  0.00    +0.024 HD
ATOM     54  H   UNL     1       6.754   7.830  16.708  0.00  0.00    +0.024 HD
ENDBRANCH  45  51
ENDBRANCH   1  45
TORSDOF 7
ENDMDL
MODEL 32
REMARK VINA RESULT:    -6.446      3.081      9.394
REMARK INTER + INTRA:          -9.192
REMARK INTER:                  -8.455
REMARK INTRA:                  -0.737
REMARK UNBOUND:                -0.484
REMARK  Name = 
REMARK  7 active torsions:
REMARK  status: ('A' for Active; 'I' for Inactive)
REMARK    1  A    between atoms: C_1  and  C_2
REMARK    2  A    between atoms: C_2  and  C_3
REMARK    3  A    between atoms: C_2  and  C_4
REMARK    4  A    between atoms: C_15  and  C_16
REMARK    5  A    between atoms: N_18  and  C_19
REMARK    6  A    between atoms: C_19  and  C_20
REMARK    7  A    between atoms: C_24  and  C_25
REMARK                            x       y       z     vdW  Elec       q    Type
REMARK                         _______ _______ _______ _____ _____    ______ ____
ROOT
ATOM      1  C   UNL     1       1.539  14.313  19.817  0.00  0.00    -0.044 A 
ATOM      2  C   UNL     1       0.671  14.740  18.803  0.00  0.00    -0.055 A 
ATOM      3  C   UNL     1      -0.255  13.857  18.254  0.00  0.00    -0.019 A 
ATOM      4  C   UNL     1      -0.326  12.537  18.710  0.00  0.00    +0.124 A 
ATOM      5  C   UNL     1       0.507  12.066  19.746  0.00  0.00    +0.002 A 
ATOM      6  C   UNL     1       1.443  12.982  20.268  0.00  0.00    -0.051 A 
ATOM      7  C   UNL     1       0.343  10.630  20.254  0.00  0.00    +0.014 C 
ATOM      8  C   UNL     1      -0.948  10.002  19.764  0.00  0.00    -0.008 C 
ATOM      9  C   UNL     1      -1.118  10.350  18.295  0.00  0.00    +0.090 C 
ATOM     10  O   UNL     1      -1.293  11.762  18.109  0.00  0.00    -0.492 OA
ATOM     11  C   UNL     1       0.800  10.225  21.642  0.00  0.00    -0.030 C 
ATOM     12  C   UNL     1       1.598   9.773  20.438  0.00  0.00    +0.046 C 
ATOM     13  H   UNL     1       0.703  15.763  18.436  0.00  0.00    +0.062 HD
ATOM     14  H   UNL     1      -0.928  14.194  17.468  0.00  0.00    +0.065 HD
ATOM     15  H   UNL     1       2.117  12.656  21.055  0.00  0.00    +0.062 HD
ATOM     16  H   UNL     1      -1.779  10.415  20.343  0.00  0.00    +0.031 HD
ATOM     17  H   UNL     1      -0.965   8.917  19.902  0.00  0.00    +0.031 HD
ATOM     18  H   UNL     1      -2.015   9.860  17.902  0.00  0.00    +0.070 HD
ATOM     19  H   UNL     1      -0.271  10.014  17.688  0.00  0.00    +0.070 HD
ATOM     20  H   UNL     1       1.232  10.969  22.300  0.00  0.00    +0.028 HD
ATOM     21  H   UNL     1       0.202   9.493  22.177  0.00  0.00    +0.028 HD
ATOM     22  H   UNL     1       2.550  10.267  20.263  0.00  0.00    +0.040 HD
ENDROOT
BRANCH  12  23
ATOM     23  C   UNL     1       1.637   8.342  20.046  0.00  0.00    +0.217 C 
ATOM     24  O   UNL     1       1.242   7.472  20.808  0.00  0.00    -0.275 OA
ATOM     25  N   UNL     1       2.100   8.130  18.775  0.00  0.00    -0.311 N 
ATOM     26  H   UNL     1       2.261   8.933  18.185  0.00  0.00    +0.149 HD
BRANCH  25  27
ATOM     27  C   UNL     1       2.038   6.827  18.160  0.00  0.00    +0.037 C 
ATOM     28  H   UNL     1       1.756   6.936  17.112  0.00  0.00    +0.051 HD
ATOM     29  H   UNL     1       1.246   6.256  18.655  0.00  0.00    +0.051 HD
BRANCH  27  30
ATOM     30  C   UNL     1       3.353   6.099  18.286  0.00  0.00    -0.030 A 
ATOM     31  C   UNL     1       3.469   4.962  19.094  0.00  0.00    -0.057 A 
ATOM     32  C   UNL     1       4.708   4.331  19.255  0.00  0.00    -0.061 A 
ATOM     33  C   UNL     1       5.834   4.816  18.594  0.00  0.00    -0.050 A 
ATOM     34  C   UNL     1       5.732   5.937  17.764  0.00  0.00    +0.037 A 
ATOM     35  C   UNL     1       4.499   6.588  17.630  0.00  0.00    -0.045 A 
ATOM     36  H   UNL     1       2.597   4.575  19.623  0.00  0.00    +0.062 HD
ATOM     37  H   UNL     1       4.798   3.467  19.904  0.00  0.00    +0.062 HD
ATOM     38  H   UNL     1       6.797   4.323  18.724  0.00  0.00    +0.063 HD
ATOM     39  H   UNL     1       4.420   7.501  17.048  0.00  0.00    +0.063 HD
BRANCH  34  40
ATOM     40  C   UNL     1       6.966   6.413  17.062  0.00  0.00    +0.242 C 
ATOM     41  N   UNL     1       7.329   5.776  15.904  0.00  0.00    -0.325 N 
ATOM     42  O   UNL     1       7.657   7.319  17.512  0.00  0.00    -0.270 OA
ATOM     43  H   UNL     1       6.872   4.940  15.565  0.00  0.00    +0.145 HD
ATOM     44  H   UNL     1       8.219   6.032  15.491  0.00  0.00    +0.145 HD
ENDBRANCH  34  40
ENDBRANCH  27  30
ENDBRANCH  25  27
ENDBRANCH  12  23
BRANCH   1  45
ATOM     45  C   UNL     1       2.558  15.249  20.444  0.00  0.00    -0.022 C 
ATOM     46  H   UNL     1       2.155  16.271  20.424  0.00  0.00    +0.034 HD
BRANCH  45  47
ATOM     47  C   UNL     1       2.822  14.906  21.913  0.00  0.00    -0.059 C 
ATOM     48  H   UNL     1       1.926  14.514  22.413  0.00  0.00    +0.024 HD
ATOM     49  H   UNL     1       3.609  14.145  21.996  0.00  0.00    +0.024 HD
ATOM     50  H   UNL     1       3.154  15.790  22.468  0.00  0.00    +0.024 HD
ENDBRANCH  45  47
BRANCH  45  51
ATOM     51  C   UNL     1       3.866  15.266  19.646  0.00  0.00    -0.059 C 
ATOM     52  H   UNL     1       4.571  15.993  20.063  0.00  0.00    +0.024 HD
ATOM     53  H   UNL     1       3.699  15.527  18.595  0.00  0.00    +0.024 HD
ATOM     54  H   UNL     1       4.346  14.280  19.672  0.00  0.00    +0.024 HD
ENDBRANCH  45  51
ENDBRANCH   1  45
TORSDOF 7
ENDMDL
MODEL 33
REMARK VINA RESULT:    -6.383      3.170      9.266
REMARK INTER + INTRA:          -9.107
REMARK INTER:                  -8.381
REMARK INTRA:                  -0.725
REMARK UNBOUND:                -0.484
REMARK  Name = 
REMARK  7 active torsions:
REMARK  status: ('A' for Active; 'I' for Inactive)
REMARK    1  A    between atoms: C_1  and  C_2
REMARK    2  A    between atoms: C_2  and  C_3
REMARK    3  A    between atoms: C_2  and  C_4
REMARK    4  A    between atoms: C_15  and  C_16
REMARK    5  A    between atoms: N_18  and  C_19
REMARK    6  A    between atoms: C_19  and  C_20
REMARK    7  A    between atoms: C_24  and  C_25
REMARK                            x       y       z     vdW  Elec       q    Type
REMARK                         _______ _______ _______ _____ _____    ______ ____
ROOT
ATOM      1  C   UNL     1       1.597  14.291  19.860  0.00  0.00    -0.044 A 
ATOM      2  C   UNL     1       0.715  14.752  18.874  0.00  0.00    -0.055 A 
ATOM      3  C   UNL     1      -0.233  13.893  18.323  0.00  0.00    -0.019 A 
ATOM      4  C   UNL     1      -0.312  12.564  18.750  0.00  0.00    +0.124 A 
ATOM      5  C   UNL     1       0.536  12.058  19.757  0.00  0.00    +0.002 A 
ATOM      6  C   UNL     1       1.494  12.951  20.281  0.00  0.00    -0.051 A 
ATOM      7  C   UNL     1       0.365  10.613  20.235  0.00  0.00    +0.014 C 
ATOM      8  C   UNL     1      -0.943  10.013  19.756  0.00  0.00    -0.008 C 
ATOM      9  C   UNL     1      -1.138  10.397  18.299  0.00  0.00    +0.090 C 
ATOM     10  O   UNL     1      -1.300  11.815  18.151  0.00  0.00    -0.492 OA
ATOM     11  C   UNL     1       0.845  10.170  21.604  0.00  0.00    -0.030 C 
ATOM     12  C   UNL     1       1.613   9.737  20.373  0.00  0.00    +0.046 C 
ATOM     13  H   UNL     1       0.752  15.783  18.531  0.00  0.00    +0.062 HD
ATOM     14  H   UNL     1      -0.918  14.257  17.559  0.00  0.00    +0.065 HD
ATOM     15  H   UNL     1       2.180  12.599  21.047  0.00  0.00    +0.062 HD
ATOM     16  H   UNL     1      -1.757  10.421  20.362  0.00  0.00    +0.031 HD
ATOM     17  H   UNL     1      -0.971   8.925  19.870  0.00  0.00    +0.031 HD
ATOM     18  H   UNL     1      -2.049   9.927  17.913  0.00  0.00    +0.070 HD
ATOM     19  H   UNL     1      -0.308  10.065  17.668  0.00  0.00    +0.070 HD
ATOM     20  H   UNL     1       1.299  10.892  22.270  0.00  0.00    +0.028 HD
ATOM     21  H   UNL     1       0.248   9.433  22.133  0.00  0.00    +0.028 HD
ATOM     22  H   UNL     1       2.568  10.224  20.190  0.00  0.00    +0.040 HD
ENDROOT
BRANCH  12  23
ATOM     23  C   UNL     1       1.626   8.315  19.947  0.00  0.00    +0.217 C 
ATOM     24  O   UNL     1       1.243   7.431  20.699  0.00  0.00    -0.275 OA
ATOM     25  N   UNL     1       2.052   8.129  18.659  0.00  0.00    -0.311 N 
ATOM     26  H   UNL     1       2.205   8.944  18.083  0.00  0.00    +0.149 HD
BRANCH  25  27
ATOM     27  C   UNL     1       1.959   6.841  18.016  0.00  0.00    +0.037 C 
ATOM     28  H   UNL     1       1.844   6.983  16.940  0.00  0.00    +0.051 HD
ATOM     29  H   UNL     1       1.054   6.345  18.380  0.00  0.00    +0.051 HD
BRANCH  27  30
ATOM     30  C   UNL     1       3.170   5.992  18.315  0.00  0.00    -0.030 A 
ATOM     31  C   UNL     1       4.431   6.341  17.818  0.00  0.00    -0.057 A 
ATOM     32  C   UNL     1       5.536   5.513  18.047  0.00  0.00    -0.061 A 
ATOM     33  C   UNL     1       5.395   4.344  18.791  0.00  0.00    -0.050 A 
ATOM     34  C   UNL     1       4.147   3.992  19.315  0.00  0.00    +0.037 A 
ATOM     35  C   UNL     1       3.035   4.804  19.057  0.00  0.00    -0.045 A 
ATOM     36  H   UNL     1       4.555   7.251  17.228  0.00  0.00    +0.062 HD
ATOM     37  H   UNL     1       6.505   5.775  17.637  0.00  0.00    +0.062 HD
ATOM     38  H   UNL     1       6.258   3.702  18.965  0.00  0.00    +0.063 HD
ATOM     39  H   UNL     1       2.047   4.505  19.393  0.00  0.00    +0.063 HD
BRANCH  34  40
ATOM     40  C   UNL     1       4.048   2.734  20.121  0.00  0.00    +0.242 C 
ATOM     41  N   UNL     1       5.002   1.770  19.924  0.00  0.00    -0.325 N 
ATOM     42  O   UNL     1       3.131   2.544  20.911  0.00  0.00    -0.270 OA
ATOM     43  H   UNL     1       5.696   1.820  19.189  0.00  0.00    +0.145 HD
ATOM     44  H   UNL     1       4.869   0.882  20.393  0.00  0.00    +0.145 HD
ENDBRANCH  34  40
ENDBRANCH  27  30
ENDBRANCH  25  27
ENDBRANCH  12  23
BRANCH   1  45
ATOM     45  C   UNL     1       2.640  15.199  20.488  0.00  0.00    -0.022 C 
ATOM     46  H   UNL     1       2.275  16.236  20.444  0.00  0.00    +0.034 HD
BRANCH  45  47
ATOM     47  C   UNL     1       2.868  14.873  21.967  0.00  0.00    -0.059 C 
ATOM     48  H   UNL     1       3.220  13.843  22.113  0.00  0.00    +0.024 HD
ATOM     49  H   UNL     1       3.619  15.547  22.399  0.00  0.00    +0.024 HD
ATOM     50  H   UNL     1       1.943  14.994  22.542  0.00  0.00    +0.024 HD
ENDBRANCH  45  47
BRANCH  45  51
ATOM     51  C   UNL     1       3.961  15.154  19.712  0.00  0.00    -0.059 C 
ATOM     52  H   UNL     1       3.789  15.280  18.637  0.00  0.00    +0.024 HD
ATOM     53  H   UNL     1       4.487  14.204  19.857  0.00  0.00    +0.024 HD
ATOM     54  H   UNL     1       4.629  15.958  20.041  0.00  0.00    +0.024 HD
ENDBRANCH  45  51
ENDBRANCH   1  45
TORSDOF 7
ENDMDL
