MODEL 1
REMARK VINA RESULT:    -9.167      0.000      0.000
REMARK INTER + INTRA:         -14.499
REMARK INTER:                 -13.915
REMARK INTRA:                  -0.584
REMARK UNBOUND:                -1.044
REMARK  Name = 
REMARK  9 active torsions:
REMARK  status: ('A' for Active; 'I' for Inactive)
REMARK    1  A    between atoms: C_1  and  C_2
REMARK    2  A    between atoms: C_2  and  S_3
REMARK    3  A    between atoms: C_2  and  C_10
REMARK    4  A    between atoms: S_3  and  C_4
REMARK    5  A    between atoms: N_8  and  C_9
REMARK    6  A    between atoms: C_14  and  N_15
REMARK    7  A    between atoms: C_16  and  C_18
REMARK    8  A    between atoms: C_20  and  C_21
REMARK    9  A    between atoms: C_29  and  C_30
REMARK                            x       y       z     vdW  Elec       q    Type
REMARK                         _______ _______ _______ _____ _____    ______ ____
ROOT
ATOM      1  N   UNL     1       1.373   7.882  20.963  0.00  0.00    -0.280 N 
ATOM      2  C   UNL     1       1.982   7.668  19.741  0.00  0.00    +0.267 C 
ATOM      3  O   UNL     1       1.981   8.409  18.765  0.00  0.00    -0.268 OA
ATOM      4  H   UNL     1       1.524   7.140  21.641  0.00  0.00    +0.155 HD
ENDROOT
BRANCH   1   9
ATOM      5  C   UNL     1      -0.570  11.028  20.670  0.00  0.00    -0.033 A 
ATOM      6  C   UNL     1      -0.973  11.218  21.998  0.00  0.00    -0.057 A 
ATOM      7  C   UNL     1      -0.612  10.305  22.989  0.00  0.00    -0.060 A 
ATOM      8  C   UNL     1       0.162   9.186  22.673  0.00  0.00    -0.040 A 
ATOM      9  C   UNL     1       0.579   8.971  21.362  0.00  0.00    +0.034 A 
ATOM     10  C   UNL     1       0.203   9.888  20.369  0.00  0.00    -0.036 A 
ATOM     11  H   UNL     1      -1.577  12.077  22.284  0.00  0.00    +0.062 HD
ATOM     12  H   UNL     1      -0.938  10.463  24.014  0.00  0.00    +0.062 HD
ATOM     13  H   UNL     1       0.424   8.505  23.476  0.00  0.00    +0.064 HD
ATOM     14  H   UNL     1       0.516   9.718  19.340  0.00  0.00    +0.064 HD
BRANCH   5  15
ATOM     15  C   UNL     1      -0.943  11.996  19.560  0.00  0.00    +0.035 C 
ATOM     16  H   UNL     1      -0.477  11.603  18.646  0.00  0.00    +0.046 HD
BRANCH  15  17
ATOM     17  C   UNL     1      -0.345  13.401  19.702  0.00  0.00    -0.049 C 
ATOM     18  H   UNL     1      -0.911  14.176  19.177  0.00  0.00    +0.024 HD
ATOM     19  H   UNL     1      -0.331  13.688  20.760  0.00  0.00    +0.024 HD
ATOM     20  H   UNL     1       0.689  13.427  19.344  0.00  0.00    +0.024 HD
ENDBRANCH  15  17
BRANCH  15  21
ATOM     21  S   UNL     1      -2.721  11.948  19.151  0.00  0.00    -0.078 S 
BRANCH  21  22
ATOM     22  C   UNL     1      -2.829  11.170  17.616  0.00  0.00    +0.192 A 
ATOM     23  N   UNL     1      -1.936  10.406  17.032  0.00  0.00    -0.123 NA
ATOM     24  N   UNL     1      -2.473   9.955  15.847  0.00  0.00    -0.137 NA
ATOM     25  C   UNL     1      -3.681  10.458  15.745  0.00  0.00    +0.120 A 
ATOM     26  N   UNL     1      -3.938  11.252  16.822  0.00  0.00    -0.312 N 
ATOM     27  H   UNL     1      -4.378  10.286  14.934  0.00  0.00    +0.105 HD
BRANCH  26  28
ATOM     28  C   UNL     1      -5.145  11.997  17.049  0.00  0.00    +0.015 C 
ATOM     29  H   UNL     1      -4.893  12.990  17.433  0.00  0.00    +0.046 HD
ATOM     30  H   UNL     1      -5.751  11.468  17.789  0.00  0.00    +0.046 HD
ATOM     31  H   UNL     1      -5.685  12.093  16.104  0.00  0.00    +0.046 HD
ENDBRANCH  26  28
ENDBRANCH  21  22
ENDBRANCH  15  21
ENDBRANCH   5  15
ENDBRANCH   1   9
BRANCH   2  32
ATOM     32  C   UNL     1       2.724   6.365  19.682  0.00  0.00    +0.127 A 
ATOM     33  C   UNL     1       3.983   6.307  19.117  0.00  0.00    -0.019 A 
ATOM     34  C   UNL     1       4.621   5.073  19.121  0.00  0.00    +0.041 A 
ATOM     35  C   UNL     1       3.988   3.938  19.637  0.00  0.00    -0.019 A 
ATOM     36  C   UNL     1       2.712   4.075  20.175  0.00  0.00    +0.145 A 
ATOM     37  N   UNL     1       2.079   5.285  20.220  0.00  0.00    -0.238 NA
ATOM     38  H   UNL     1       4.454   7.184  18.688  0.00  0.00    +0.065 HD
ATOM     39  H   UNL     1       4.476   2.967  19.598  0.00  0.00    +0.065 HD
BRANCH  34  40
ATOM     40  C   UNL     1       5.961   4.963  18.514  0.00  0.00    +0.247 C 
ATOM     41  O   UNL     1       6.934   5.025  19.254  0.00  0.00    -0.270 OA
ATOM     42  N   UNL     1       6.041   4.800  17.146  0.00  0.00    -0.298 N 
ATOM     43  C   UNL     1       7.332   4.669  16.495  0.00  0.00    +0.015 C 
ATOM     44  C   UNL     1       6.997   4.645  15.013  0.00  0.00    -0.036 C 
ATOM     45  C   UNL     1       5.648   3.935  14.989  0.00  0.00    -0.036 C 
ATOM     46  C   UNL     1       4.954   4.475  16.230  0.00  0.00    +0.015 C 
ATOM     47  H   UNL     1       7.997   5.492  16.778  0.00  0.00    +0.046 HD
ATOM     48  H   UNL     1       7.781   3.723  16.820  0.00  0.00    +0.046 HD
ATOM     49  H   UNL     1       7.759   4.141  14.417  0.00  0.00    +0.028 HD
ATOM     50  H   UNL     1       6.879   5.667  14.635  0.00  0.00    +0.028 HD
ATOM     51  H   UNL     1       5.796   2.852  15.086  0.00  0.00    +0.028 HD
ATOM     52  H   UNL     1       5.081   4.124  14.072  0.00  0.00    +0.028 HD
ATOM     53  H   UNL     1       4.267   3.753  16.679  0.00  0.00    +0.046 HD
ATOM     54  H   UNL     1       4.413   5.397  16.004  0.00  0.00    +0.046 HD
ENDBRANCH  34  40
BRANCH  36  55
ATOM     55  C   UNL     1       2.012   2.838  20.723  0.00  0.00    +0.434 C 
ATOM     56  F   UNL     1       0.728   3.097  21.106  0.00  0.00    -0.164 F 
ATOM     57  F   UNL     1       2.631   2.337  21.830  0.00  0.00    -0.164 F 
ATOM     58  F   UNL     1       1.936   1.807  19.835  0.00  0.00    -0.164 F 
ENDBRANCH  36  55
ENDBRANCH   2  32
TORSDOF 9
ENDMDL
MODEL 2
REMARK VINA RESULT:    -8.804      1.097      1.477
REMARK INTER + INTRA:         -13.966
REMARK INTER:                 -13.293
REMARK INTRA:                  -0.673
REMARK UNBOUND:                -1.044
REMARK  Name = 
REMARK  9 active torsions:
REMARK  status: ('A' for Active; 'I' for Inactive)
REMARK    1  A    between atoms: C_1  and  C_2
REMARK    2  A    between atoms: C_2  and  S_3
REMARK    3  A    between atoms: C_2  and  C_10
REMARK    4  A    between atoms: S_3  and  C_4
REMARK    5  A    between atoms: N_8  and  C_9
REMARK    6  A    between atoms: C_14  and  N_15
REMARK    7  A    between atoms: C_16  and  C_18
REMARK    8  A    between atoms: C_20  and  C_21
REMARK    9  A    between atoms: C_29  and  C_30
REMARK                            x       y       z     vdW  Elec       q    Type
REMARK                         _______ _______ _______ _____ _____    ______ ____
ROOT
ATOM      1  N   UNL     1       1.525   7.876  21.076  0.00  0.00    -0.280 N 
ATOM      2  C   UNL     1       1.964   7.602  19.795  0.00  0.00    +0.267 C 
ATOM      3  O   UNL     1       1.816   8.289  18.791  0.00  0.00    -0.268 OA
ATOM      4  H   UNL     1       1.780   7.173  21.765  0.00  0.00    +0.155 HD
ENDROOT
BRANCH   1   9
ATOM      5  C   UNL     1       0.231  11.351  21.197  0.00  0.00    -0.033 A 
ATOM      6  C   UNL     1      -0.618  11.281  22.308  0.00  0.00    -0.057 A 
ATOM      7  C   UNL     1      -0.773  10.087  23.012  0.00  0.00    -0.060 A 
ATOM      8  C   UNL     1      -0.078   8.940  22.623  0.00  0.00    -0.040 A 
ATOM      9  C   UNL     1       0.776   8.979  21.524  0.00  0.00    +0.034 A 
ATOM     10  C   UNL     1       0.918  10.181  20.813  0.00  0.00    -0.036 A 
ATOM     11  H   UNL     1      -1.178  12.152  22.642  0.00  0.00    +0.062 HD
ATOM     12  H   UNL     1      -1.442  10.047  23.869  0.00  0.00    +0.062 HD
ATOM     13  H   UNL     1      -0.224   8.034  23.202  0.00  0.00    +0.064 HD
ATOM     14  H   UNL     1       1.575  10.214  19.946  0.00  0.00    +0.064 HD
BRANCH   5  15
ATOM     15  C   UNL     1       0.426  12.630  20.401  0.00  0.00    +0.035 C 
ATOM     16  H   UNL     1       1.506  12.708  20.213  0.00  0.00    +0.046 HD
BRANCH  15  17
ATOM     17  C   UNL     1       0.093  13.919  21.161  0.00  0.00    -0.049 C 
ATOM     18  H   UNL     1       0.944  14.348  21.697  0.00  0.00    +0.024 HD
ATOM     19  H   UNL     1      -0.247  14.685  20.454  0.00  0.00    +0.024 HD
ATOM     20  H   UNL     1      -0.719  13.755  21.878  0.00  0.00    +0.024 HD
ENDBRANCH  15  17
BRANCH  15  21
ATOM     21  S   UNL     1      -0.265  12.523  18.715  0.00  0.00    -0.078 S 
BRANCH  21  22
ATOM     22  C   UNL     1      -1.953  12.238  18.918  0.00  0.00    +0.192 A 
ATOM     23  N   UNL     1      -2.756  12.741  19.825  0.00  0.00    -0.123 NA
ATOM     24  N   UNL     1      -4.029  12.285  19.568  0.00  0.00    -0.137 NA
ATOM     25  C   UNL     1      -3.964  11.514  18.506  0.00  0.00    +0.120 A 
ATOM     26  N   UNL     1      -2.673  11.433  18.079  0.00  0.00    -0.312 N 
ATOM     27  H   UNL     1      -4.796  11.008  18.034  0.00  0.00    +0.105 HD
BRANCH  26  28
ATOM     28  C   UNL     1      -2.203  10.659  16.964  0.00  0.00    +0.015 C 
ATOM     29  H   UNL     1      -1.301  11.122  16.554  0.00  0.00    +0.046 HD
ATOM     30  H   UNL     1      -2.980  10.644  16.196  0.00  0.00    +0.046 HD
ATOM     31  H   UNL     1      -1.976   9.647  17.306  0.00  0.00    +0.046 HD
ENDBRANCH  26  28
ENDBRANCH  21  22
ENDBRANCH  15  21
ENDBRANCH   5  15
ENDBRANCH   1   9
BRANCH   2  32
ATOM     32  C   UNL     1       2.711   6.304  19.703  0.00  0.00    +0.127 A 
ATOM     33  C   UNL     1       3.957   6.260  19.106  0.00  0.00    -0.019 A 
ATOM     34  C   UNL     1       4.602   5.030  19.080  0.00  0.00    +0.041 A 
ATOM     35  C   UNL     1       3.988   3.886  19.598  0.00  0.00    -0.019 A 
ATOM     36  C   UNL     1       2.724   4.009  20.169  0.00  0.00    +0.145 A 
ATOM     37  N   UNL     1       2.086   5.214  20.244  0.00  0.00    -0.238 NA
ATOM     38  H   UNL     1       4.412   7.145  18.676  0.00  0.00    +0.065 HD
ATOM     39  H   UNL     1       4.480   2.918  19.536  0.00  0.00    +0.065 HD
BRANCH  34  40
ATOM     40  C   UNL     1       5.926   4.935  18.438  0.00  0.00    +0.247 C 
ATOM     41  O   UNL     1       6.918   5.004  19.154  0.00  0.00    -0.270 OA
ATOM     42  N   UNL     1       5.973   4.778  17.068  0.00  0.00    -0.298 N 
ATOM     43  C   UNL     1       7.248   4.661  16.384  0.00  0.00    +0.015 C 
ATOM     44  C   UNL     1       6.875   4.640  14.911  0.00  0.00    -0.036 C 
ATOM     45  C   UNL     1       5.534   3.917  14.919  0.00  0.00    -0.036 C 
ATOM     46  C   UNL     1       4.866   4.445  16.179  0.00  0.00    +0.015 C 
ATOM     47  H   UNL     1       7.912   5.490  16.654  0.00  0.00    +0.046 HD
ATOM     48  H   UNL     1       7.715   3.718  16.694  0.00  0.00    +0.046 HD
ATOM     49  H   UNL     1       7.627   4.145  14.293  0.00  0.00    +0.028 HD
ATOM     50  H   UNL     1       6.739   5.662  14.540  0.00  0.00    +0.028 HD
ATOM     51  H   UNL     1       5.694   2.835  15.007  0.00  0.00    +0.028 HD
ATOM     52  H   UNL     1       4.942   4.104  14.017  0.00  0.00    +0.028 HD
ATOM     53  H   UNL     1       4.198   3.715  16.642  0.00  0.00    +0.046 HD
ATOM     54  H   UNL     1       4.311   5.363  15.970  0.00  0.00    +0.046 HD
ENDBRANCH  34  40
BRANCH  36  55
ATOM     55  C   UNL     1       2.045   2.761  20.720  0.00  0.00    +0.434 C 
ATOM     56  F   UNL     1       0.779   3.014  21.160  0.00  0.00    -0.164 F 
ATOM     57  F   UNL     1       2.708   2.237  21.790  0.00  0.00    -0.164 F 
ATOM     58  F   UNL     1       1.931   1.749  19.814  0.00  0.00    -0.164 F 
ENDBRANCH  36  55
ENDBRANCH   2  32
TORSDOF 9
ENDMDL
MODEL 3
REMARK VINA RESULT:    -8.759      1.859      2.863
REMARK INTER + INTRA:         -13.899
REMARK INTER:                 -13.046
REMARK INTRA:                  -0.853
REMARK UNBOUND:                -1.044
REMARK  Name = 
REMARK  9 active torsions:
REMARK  status: ('A' for Active; 'I' for Inactive)
REMARK    1  A    between atoms: C_1  and  C_2
REMARK    2  A    between atoms: C_2  and  S_3
REMARK    3  A    between atoms: C_2  and  C_10
REMARK    4  A    between atoms: S_3  and  C_4
REMARK    5  A    between atoms: N_8  and  C_9
REMARK    6  A    between atoms: C_14  and  N_15
REMARK    7  A    between atoms: C_16  and  C_18
REMARK    8  A    between atoms: C_20  and  C_21
REMARK    9  A    between atoms: C_29  and  C_30
REMARK                            x       y       z     vdW  Elec       q    Type
REMARK                         _______ _______ _______ _____ _____    ______ ____
ROOT
ATOM      1  N   UNL     1       1.389   7.821  20.960  0.00  0.00    -0.280 N 
ATOM      2  C   UNL     1       2.001   7.622  19.738  0.00  0.00    +0.267 C 
ATOM      3  O   UNL     1       1.997   8.371  18.769  0.00  0.00    -0.268 OA
ATOM      4  H   UNL     1       1.542   7.074  21.632  0.00  0.00    +0.155 HD
ENDROOT
BRANCH   1   9
ATOM      5  C   UNL     1      -0.849  10.765  20.664  0.00  0.00    -0.033 A 
ATOM      6  C   UNL     1      -1.013  11.113  22.010  0.00  0.00    -0.057 A 
ATOM      7  C   UNL     1      -0.393  10.373  23.018  0.00  0.00    -0.060 A 
ATOM      8  C   UNL     1       0.405   9.273  22.699  0.00  0.00    -0.040 A 
ATOM      9  C   UNL     1       0.588   8.903  21.369  0.00  0.00    +0.034 A 
ATOM     10  C   UNL     1      -0.047   9.646  20.362  0.00  0.00    -0.036 A 
ATOM     11  H   UNL     1      -1.628  11.963  22.300  0.00  0.00    +0.062 HD
ATOM     12  H   UNL     1      -0.536  10.652  24.059  0.00  0.00    +0.062 HD
ATOM     13  H   UNL     1       0.873   8.729  23.513  0.00  0.00    +0.064 HD
ATOM     14  H   UNL     1       0.083   9.354  19.321  0.00  0.00    +0.064 HD
BRANCH   5  15
ATOM     15  C   UNL     1      -1.508  11.542  19.537  0.00  0.00    +0.035 C 
ATOM     16  H   UNL     1      -2.578  11.583  19.782  0.00  0.00    +0.046 HD
BRANCH  15  17
ATOM     17  C   UNL     1      -1.471  10.849  18.170  0.00  0.00    -0.049 C 
ATOM     18  H   UNL     1      -2.113   9.966  18.105  0.00  0.00    +0.024 HD
ATOM     19  H   UNL     1      -1.819  11.544  17.396  0.00  0.00    +0.024 HD
ATOM     20  H   UNL     1      -0.451  10.552  17.905  0.00  0.00    +0.024 HD
ENDBRANCH  15  17
BRANCH  15  21
ATOM     21  S   UNL     1      -1.034  13.305  19.526  0.00  0.00    -0.078 S 
BRANCH  21  22
ATOM     22  C   UNL     1       0.687  13.327  19.416  0.00  0.00    +0.192 A 
ATOM     23  N   UNL     1       1.440  12.918  18.423  0.00  0.00    -0.123 NA
ATOM     24  N   UNL     1       2.752  13.184  18.746  0.00  0.00    -0.137 NA
ATOM     25  C   UNL     1       2.758  13.750  19.931  0.00  0.00    +0.120 A 
ATOM     26  N   UNL     1       1.483  13.836  20.404  0.00  0.00    -0.312 N 
ATOM     27  H   UNL     1       3.633  14.096  20.468  0.00  0.00    +0.105 HD
BRANCH  26  28
ATOM     28  C   UNL     1       1.093  14.369  21.679  0.00  0.00    +0.015 C 
ATOM     29  H   UNL     1       0.270  13.776  22.086  0.00  0.00    +0.046 HD
ATOM     30  H   UNL     1       0.759  15.400  21.541  0.00  0.00    +0.046 HD
ATOM     31  H   UNL     1       1.948  14.327  22.357  0.00  0.00    +0.046 HD
ENDBRANCH  26  28
ENDBRANCH  21  22
ENDBRANCH  15  21
ENDBRANCH   5  15
ENDBRANCH   1   9
BRANCH   2  32
ATOM     32  C   UNL     1       2.749   6.323  19.669  0.00  0.00    +0.127 A 
ATOM     33  C   UNL     1       3.994   6.269  19.072  0.00  0.00    -0.019 A 
ATOM     34  C   UNL     1       4.640   5.039  19.067  0.00  0.00    +0.041 A 
ATOM     35  C   UNL     1       4.027   3.904  19.606  0.00  0.00    -0.019 A 
ATOM     36  C   UNL     1       2.764   4.036  20.176  0.00  0.00    +0.145 A 
ATOM     37  N   UNL     1       2.125   5.242  20.229  0.00  0.00    -0.238 NA
ATOM     38  H   UNL     1       4.448   7.147  18.626  0.00  0.00    +0.065 HD
ATOM     39  H   UNL     1       4.520   2.935  19.561  0.00  0.00    +0.065 HD
BRANCH  34  40
ATOM     40  C   UNL     1       5.964   4.934  18.427  0.00  0.00    +0.247 C 
ATOM     41  O   UNL     1       6.955   4.996  19.144  0.00  0.00    -0.270 OA
ATOM     42  N   UNL     1       6.011   4.776  17.057  0.00  0.00    -0.298 N 
ATOM     43  C   UNL     1       7.286   4.649  16.374  0.00  0.00    +0.015 C 
ATOM     44  C   UNL     1       6.914   4.630  14.901  0.00  0.00    -0.036 C 
ATOM     45  C   UNL     1       5.567   3.918  14.908  0.00  0.00    -0.036 C 
ATOM     46  C   UNL     1       4.902   4.452  16.167  0.00  0.00    +0.015 C 
ATOM     47  H   UNL     1       7.956   5.473  16.644  0.00  0.00    +0.046 HD
ATOM     48  H   UNL     1       7.745   3.703  16.685  0.00  0.00    +0.046 HD
ATOM     49  H   UNL     1       7.663   4.129  14.284  0.00  0.00    +0.028 HD
ATOM     50  H   UNL     1       6.786   5.654  14.529  0.00  0.00    +0.028 HD
ATOM     51  H   UNL     1       5.719   2.835  14.997  0.00  0.00    +0.028 HD
ATOM     52  H   UNL     1       4.977   4.109  14.005  0.00  0.00    +0.028 HD
ATOM     53  H   UNL     1       4.228   3.727  16.630  0.00  0.00    +0.046 HD
ATOM     54  H   UNL     1       4.354   5.374  15.958  0.00  0.00    +0.046 HD
ENDBRANCH  34  40
BRANCH  36  55
ATOM     55  C   UNL     1       2.086   2.798  20.749  0.00  0.00    +0.434 C 
ATOM     56  F   UNL     1       0.849   3.073  21.254  0.00  0.00    -0.164 F 
ATOM     57  F   UNL     1       2.790   2.249  21.779  0.00  0.00    -0.164 F 
ATOM     58  F   UNL     1       1.905   1.797  19.841  0.00  0.00    -0.164 F 
ENDBRANCH  36  55
ENDBRANCH   2  32
TORSDOF 9
ENDMDL
MODEL 4
REMARK VINA RESULT:    -8.421      1.776      2.323
REMARK INTER + INTRA:         -13.403
REMARK INTER:                 -12.968
REMARK INTRA:                  -0.435
REMARK UNBOUND:                -1.044
REMARK  Name = 
REMARK  9 active torsions:
REMARK  status: ('A' for Active; 'I' for Inactive)
REMARK    1  A    between atoms: C_1  and  C_2
REMARK    2  A    between atoms: C_2  and  S_3
REMARK    3  A    between atoms: C_2  and  C_10
REMARK    4  A    between atoms: S_3  and  C_4
REMARK    5  A    between atoms: N_8  and  C_9
REMARK    6  A    between atoms: C_14  and  N_15
REMARK    7  A    between atoms: C_16  and  C_18
REMARK    8  A    between atoms: C_20  and  C_21
REMARK    9  A    between atoms: C_29  and  C_30
REMARK                            x       y       z     vdW  Elec       q    Type
REMARK                         _______ _______ _______ _____ _____    ______ ____
ROOT
ATOM      1  N   UNL     1       1.383   7.866  20.963  0.00  0.00    -0.280 N 
ATOM      2  C   UNL     1       1.992   7.672  19.739  0.00  0.00    +0.267 C 
ATOM      3  O   UNL     1       2.013   8.439  18.784  0.00  0.00    -0.268 OA
ATOM      4  H   UNL     1       1.513   7.101  21.621  0.00  0.00    +0.155 HD
ENDROOT
BRANCH   1   9
ATOM      5  C   UNL     1      -0.385  11.122  20.784  0.00  0.00    -0.033 A 
ATOM      6  C   UNL     1      -0.873  11.234  22.091  0.00  0.00    -0.057 A 
ATOM      7  C   UNL     1      -0.628  10.232  23.031  0.00  0.00    -0.060 A 
ATOM      8  C   UNL     1       0.113   9.101  22.683  0.00  0.00    -0.040 A 
ATOM      9  C   UNL     1       0.614   8.962  21.391  0.00  0.00    +0.034 A 
ATOM     10  C   UNL     1       0.354   9.969  20.448  0.00  0.00    -0.036 A 
ATOM     11  H   UNL     1      -1.456  12.099  22.401  0.00  0.00    +0.062 HD
ATOM     12  H   UNL     1      -1.020  10.330  24.040  0.00  0.00    +0.062 HD
ATOM     13  H   UNL     1       0.284   8.349  23.447  0.00  0.00    +0.064 HD
ATOM     14  H   UNL     1       0.733   9.860  19.433  0.00  0.00    +0.064 HD
BRANCH   5  15
ATOM     15  C   UNL     1      -0.630  12.188  19.729  0.00  0.00    +0.035 C 
ATOM     16  H   UNL     1      -1.341  11.749  19.015  0.00  0.00    +0.046 HD
BRANCH  15  17
ATOM     17  C   UNL     1       0.589  12.535  18.868  0.00  0.00    -0.049 C 
ATOM     18  H   UNL     1       0.685  13.602  18.648  0.00  0.00    +0.024 HD
ATOM     19  H   UNL     1       1.505  12.242  19.393  0.00  0.00    +0.024 HD
ATOM     20  H   UNL     1       0.569  11.989  17.918  0.00  0.00    +0.024 HD
ENDBRANCH  15  17
BRANCH  15  21
ATOM     21  S   UNL     1      -1.554  13.622  20.379  0.00  0.00    -0.078 S 
BRANCH  21  22
ATOM     22  C   UNL     1      -3.195  13.107  20.500  0.00  0.00    +0.192 A 
ATOM     23  N   UNL     1      -3.911  12.470  19.604  0.00  0.00    -0.123 NA
ATOM     24  N   UNL     1      -5.147  12.210  20.154  0.00  0.00    -0.137 NA
ATOM     25  C   UNL     1      -5.146  12.697  21.373  0.00  0.00    +0.120 A 
ATOM     26  N   UNL     1      -3.948  13.295  21.625  0.00  0.00    -0.312 N 
ATOM     27  H   UNL     1      -5.964  12.646  22.081  0.00  0.00    +0.105 HD
BRANCH  26  28
ATOM     28  C   UNL     1      -3.583  13.966  22.842  0.00  0.00    +0.015 C 
ATOM     29  H   UNL     1      -2.579  13.653  23.143  0.00  0.00    +0.046 HD
ATOM     30  H   UNL     1      -4.295  13.690  23.623  0.00  0.00    +0.046 HD
ATOM     31  H   UNL     1      -3.596  15.045  22.669  0.00  0.00    +0.046 HD
ENDBRANCH  26  28
ENDBRANCH  21  22
ENDBRANCH  15  21
ENDBRANCH   5  15
ENDBRANCH   1   9
BRANCH   2  32
ATOM     32  C   UNL     1       2.702   6.353  19.646  0.00  0.00    +0.127 A 
ATOM     33  C   UNL     1       3.969   6.283  19.098  0.00  0.00    -0.019 A 
ATOM     34  C   UNL     1       4.576   5.034  19.068  0.00  0.00    +0.041 A 
ATOM     35  C   UNL     1       3.907   3.899  19.535  0.00  0.00    -0.019 A 
ATOM     36  C   UNL     1       2.625   4.049  20.058  0.00  0.00    +0.145 A 
ATOM     37  N   UNL     1       2.022   5.272  20.135  0.00  0.00    -0.238 NA
ATOM     38  H   UNL     1       4.468   7.162  18.708  0.00  0.00    +0.065 HD
ATOM     39  H   UNL     1       4.371   2.917  19.469  0.00  0.00    +0.065 HD
BRANCH  34  40
ATOM     40  C   UNL     1       5.922   4.911  18.478  0.00  0.00    +0.247 C 
ATOM     41  O   UNL     1       6.885   4.934  19.234  0.00  0.00    -0.270 OA
ATOM     42  N   UNL     1       6.019   4.782  17.108  0.00  0.00    -0.298 N 
ATOM     43  C   UNL     1       7.318   4.640  16.473  0.00  0.00    +0.015 C 
ATOM     44  C   UNL     1       7.004   4.661  14.986  0.00  0.00    -0.036 C 
ATOM     45  C   UNL     1       5.642   3.980  14.924  0.00  0.00    -0.036 C 
ATOM     46  C   UNL     1       4.940   4.503  16.168  0.00  0.00    +0.015 C 
ATOM     47  H   UNL     1       7.994   5.441  16.787  0.00  0.00    +0.046 HD
ATOM     48  H   UNL     1       7.742   3.676  16.780  0.00  0.00    +0.046 HD
ATOM     49  H   UNL     1       7.765   4.156  14.388  0.00  0.00    +0.028 HD
ATOM     50  H   UNL     1       6.913   5.695  14.633  0.00  0.00    +0.028 HD
ATOM     51  H   UNL     1       5.766   2.892  14.995  0.00  0.00    +0.028 HD
ATOM     52  H   UNL     1       5.093   4.205  14.004  0.00  0.00    +0.028 HD
ATOM     53  H   UNL     1       4.232   3.784  16.588  0.00  0.00    +0.046 HD
ATOM     54  H   UNL     1       4.422   5.442  15.958  0.00  0.00    +0.046 HD
ENDBRANCH  34  40
BRANCH  36  55
ATOM     55  C   UNL     1       1.886   2.811  20.551  0.00  0.00    +0.434 C 
ATOM     56  F   UNL     1       2.170   1.707  19.801  0.00  0.00    -0.164 F 
ATOM     57  F   UNL     1       0.532   2.956  20.493  0.00  0.00    -0.164 F 
ATOM     58  F   UNL     1       2.174   2.472  21.839  0.00  0.00    -0.164 F 
ENDBRANCH  36  55
ENDBRANCH   2  32
TORSDOF 9
ENDMDL
MODEL 5
REMARK VINA RESULT:    -8.420      1.414      1.622
REMARK INTER + INTRA:         -13.401
REMARK INTER:                 -12.995
REMARK INTRA:                  -0.407
REMARK UNBOUND:                -1.044
REMARK  Name = 
REMARK  9 active torsions:
REMARK  status: ('A' for Active; 'I' for Inactive)
REMARK    1  A    between atoms: C_1  and  C_2
REMARK    2  A    between atoms: C_2  and  S_3
REMARK    3  A    between atoms: C_2  and  C_10
REMARK    4  A    between atoms: S_3  and  C_4
REMARK    5  A    between atoms: N_8  and  C_9
REMARK    6  A    between atoms: C_14  and  N_15
REMARK    7  A    between atoms: C_16  and  C_18
REMARK    8  A    between atoms: C_20  and  C_21
REMARK    9  A    between atoms: C_29  and  C_30
REMARK                            x       y       z     vdW  Elec       q    Type
REMARK                         _______ _______ _______ _____ _____    ______ ____
ROOT
ATOM      1  N   UNL     1       1.960   7.655  19.851  0.00  0.00    -0.280 N 
ATOM      2  C   UNL     1       2.305   7.644  18.513  0.00  0.00    +0.267 C 
ATOM      3  O   UNL     1       2.081   8.510  17.676  0.00  0.00    -0.268 OA
ATOM      4  H   UNL     1       2.267   6.836  20.369  0.00  0.00    +0.155 HD
ENDROOT
BRANCH   1   9
ATOM      5  C   UNL     1       0.153  10.834  20.472  0.00  0.00    -0.033 A 
ATOM      6  C   UNL     1      -0.169  10.699  21.828  0.00  0.00    -0.057 A 
ATOM      7  C   UNL     1       0.200   9.555  22.537  0.00  0.00    -0.060 A 
ATOM      8  C   UNL     1       0.903   8.527  21.905  0.00  0.00    -0.040 A 
ATOM      9  C   UNL     1       1.239   8.634  20.558  0.00  0.00    +0.034 A 
ATOM     10  C   UNL     1       0.854   9.782  19.849  0.00  0.00    -0.036 A 
ATOM     11  H   UNL     1      -0.717  11.477  22.356  0.00  0.00    +0.062 HD
ATOM     12  H   UNL     1      -0.063   9.462  23.587  0.00  0.00    +0.062 HD
ATOM     13  H   UNL     1       1.176   7.658  22.495  0.00  0.00    +0.064 HD
ATOM     14  H   UNL     1       1.104   9.866  18.792  0.00  0.00    +0.064 HD
BRANCH   5  15
ATOM     15  C   UNL     1      -0.232  12.061  19.663  0.00  0.00    +0.035 C 
ATOM     16  H   UNL     1       0.096  11.861  18.634  0.00  0.00    +0.046 HD
BRANCH  15  17
ATOM     17  C   UNL     1       0.515  13.345  20.043  0.00  0.00    -0.049 C 
ATOM     18  H   UNL     1       0.203  14.223  19.471  0.00  0.00    +0.024 HD
ATOM     19  H   UNL     1       0.330  13.579  21.098  0.00  0.00    +0.024 HD
ATOM     20  H   UNL     1       1.597  13.222  19.922  0.00  0.00    +0.024 HD
ENDBRANCH  15  17
BRANCH  15  21
ATOM     21  S   UNL     1      -2.039  12.243  19.476  0.00  0.00    -0.078 S 
BRANCH  21  22
ATOM     22  C   UNL     1      -2.459  11.335  18.071  0.00  0.00    +0.192 A 
ATOM     23  N   UNL     1      -1.674  10.605  17.316  0.00  0.00    -0.123 NA
ATOM     24  N   UNL     1      -2.448  10.013  16.343  0.00  0.00    -0.137 NA
ATOM     25  C   UNL     1      -3.688  10.402  16.537  0.00  0.00    +0.120 A 
ATOM     26  N   UNL     1      -3.738  11.257  17.597  0.00  0.00    -0.312 N 
ATOM     27  H   UNL     1      -4.548  10.105  15.951  0.00  0.00    +0.105 HD
BRANCH  26  28
ATOM     28  C   UNL     1      -4.916  11.912  18.093  0.00  0.00    +0.015 C 
ATOM     29  H   UNL     1      -5.333  11.334  18.922  0.00  0.00    +0.046 HD
ATOM     30  H   UNL     1      -5.652  11.968  17.288  0.00  0.00    +0.046 HD
ATOM     31  H   UNL     1      -4.645  12.912  18.440  0.00  0.00    +0.046 HD
ENDBRANCH  26  28
ENDBRANCH  21  22
ENDBRANCH  15  21
ENDBRANCH   5  15
ENDBRANCH   1   9
BRANCH   2  32
ATOM     32  C   UNL     1       3.049   6.403  18.116  0.00  0.00    +0.127 A 
ATOM     33  C   UNL     1       4.273   6.500  17.481  0.00  0.00    -0.019 A 
ATOM     34  C   UNL     1       4.918   5.311  17.167  0.00  0.00    +0.041 A 
ATOM     35  C   UNL     1       4.324   4.076  17.446  0.00  0.00    -0.019 A 
ATOM     36  C   UNL     1       3.082   4.062  18.073  0.00  0.00    +0.145 A 
ATOM     37  N   UNL     1       2.445   5.217  18.429  0.00  0.00    -0.238 NA
ATOM     38  H   UNL     1       4.712   7.461  17.238  0.00  0.00    +0.065 HD
ATOM     39  H   UNL     1       4.815   3.149  17.157  0.00  0.00    +0.065 HD
BRANCH  34  40
ATOM     40  C   UNL     1       6.219   5.369  16.475  0.00  0.00    +0.247 C 
ATOM     41  O   UNL     1       7.193   5.748  17.113  0.00  0.00    -0.270 OA
ATOM     42  N   UNL     1       6.264   4.997  15.147  0.00  0.00    -0.298 N 
ATOM     43  C   UNL     1       7.521   5.017  14.420  0.00  0.00    +0.015 C 
ATOM     44  C   UNL     1       7.125   4.677  12.992  0.00  0.00    -0.036 C 
ATOM     45  C   UNL     1       5.956   3.719  13.191  0.00  0.00    -0.036 C 
ATOM     46  C   UNL     1       5.226   4.311  14.386  0.00  0.00    +0.015 C 
ATOM     47  H   UNL     1       8.010   5.992  14.516  0.00  0.00    +0.046 HD
ATOM     48  H   UNL     1       8.174   4.248  14.849  0.00  0.00    +0.046 HD
ATOM     49  H   UNL     1       7.946   4.241  12.420  0.00  0.00    +0.028 HD
ATOM     50  H   UNL     1       6.777   5.576  12.471  0.00  0.00    +0.028 HD
ATOM     51  H   UNL     1       6.333   2.719  13.441  0.00  0.00    +0.028 HD
ATOM     52  H   UNL     1       5.318   3.634  12.306  0.00  0.00    +0.028 HD
ATOM     53  H   UNL     1       4.729   3.553  14.997  0.00  0.00    +0.046 HD
ATOM     54  H   UNL     1       4.493   5.056  14.065  0.00  0.00    +0.046 HD
ENDBRANCH  34  40
BRANCH  36  55
ATOM     55  C   UNL     1       2.424   2.718  18.363  0.00  0.00    +0.434 C 
ATOM     56  F   UNL     1       1.068   2.820  18.473  0.00  0.00    -0.164 F 
ATOM     57  F   UNL     1       2.849   2.174  19.538  0.00  0.00    -0.164 F 
ATOM     58  F   UNL     1       2.651   1.774  17.406  0.00  0.00    -0.164 F 
ENDBRANCH  36  55
ENDBRANCH   2  32
TORSDOF 9
ENDMDL
MODEL 6
REMARK VINA RESULT:    -8.417      2.200      3.176
REMARK INTER + INTRA:         -13.397
REMARK INTER:                 -12.360
REMARK INTRA:                  -1.037
REMARK UNBOUND:                -1.044
REMARK  Name = 
REMARK  9 active torsions:
REMARK  status: ('A' for Active; 'I' for Inactive)
REMARK    1  A    between atoms: C_1  and  C_2
REMARK    2  A    between atoms: C_2  and  S_3
REMARK    3  A    between atoms: C_2  and  C_10
REMARK    4  A    between atoms: S_3  and  C_4
REMARK    5  A    between atoms: N_8  and  C_9
REMARK    6  A    between atoms: C_14  and  N_15
REMARK    7  A    between atoms: C_16  and  C_18
REMARK    8  A    between atoms: C_20  and  C_21
REMARK    9  A    between atoms: C_29  and  C_30
REMARK                            x       y       z     vdW  Elec       q    Type
REMARK                         _______ _______ _______ _____ _____    ______ ____
ROOT
ATOM      1  N   UNL     1       1.654   8.575  18.982  0.00  0.00    -0.280 N 
ATOM      2  C   UNL     1       1.690   7.777  20.109  0.00  0.00    +0.267 C 
ATOM      3  O   UNL     1       1.235   8.028  21.219  0.00  0.00    -0.268 OA
ATOM      4  H   UNL     1       2.076   8.155  18.158  0.00  0.00    +0.155 HD
ENDROOT
BRANCH   1   9
ATOM      5  C   UNL     1      -0.896  11.261  18.772  0.00  0.00    -0.033 A 
ATOM      6  C   UNL     1      -0.086  12.383  18.565  0.00  0.00    -0.057 A 
ATOM      7  C   UNL     1       1.302  12.258  18.505  0.00  0.00    -0.060 A 
ATOM      8  C   UNL     1       1.907  11.007  18.644  0.00  0.00    -0.040 A 
ATOM      9  C   UNL     1       1.127   9.872  18.849  0.00  0.00    +0.034 A 
ATOM     10  C   UNL     1      -0.268  10.008  18.920  0.00  0.00    -0.036 A 
ATOM     11  H   UNL     1      -0.519  13.375  18.452  0.00  0.00    +0.062 HD
ATOM     12  H   UNL     1       1.918  13.141  18.350  0.00  0.00    +0.062 HD
ATOM     13  H   UNL     1       2.990  10.955  18.585  0.00  0.00    +0.064 HD
ATOM     14  H   UNL     1      -0.881   9.125  19.092  0.00  0.00    +0.064 HD
BRANCH   5  15
ATOM     15  C   UNL     1      -2.411  11.353  18.847  0.00  0.00    +0.035 C 
ATOM     16  H   UNL     1      -2.734  10.522  19.489  0.00  0.00    +0.046 HD
BRANCH  15  17
ATOM     17  C   UNL     1      -3.139  11.098  17.522  0.00  0.00    -0.049 C 
ATOM     18  H   UNL     1      -2.959  10.103  17.105  0.00  0.00    +0.024 HD
ATOM     19  H   UNL     1      -4.221  11.180  17.675  0.00  0.00    +0.024 HD
ATOM     20  H   UNL     1      -2.859  11.842  16.769  0.00  0.00    +0.024 HD
ENDBRANCH  15  17
BRANCH  15  21
ATOM     21  S   UNL     1      -2.982  12.817  19.775  0.00  0.00    -0.078 S 
BRANCH  21  22
ATOM     22  C   UNL     1      -2.811  12.411  21.442  0.00  0.00    +0.192 A 
ATOM     23  N   UNL     1      -1.764  11.904  22.048  0.00  0.00    -0.123 NA
ATOM     24  N   UNL     1      -2.056  11.803  23.390  0.00  0.00    -0.137 NA
ATOM     25  C   UNL     1      -3.277  12.254  23.562  0.00  0.00    +0.120 A 
ATOM     26  N   UNL     1      -3.801  12.622  22.360  0.00  0.00    -0.312 N 
ATOM     27  H   UNL     1      -3.804  12.324  24.506  0.00  0.00    +0.105 HD
BRANCH  26  28
ATOM     28  C   UNL     1      -5.126  13.136  22.142  0.00  0.00    +0.015 C 
ATOM     29  H   UNL     1      -5.804  12.721  22.893  0.00  0.00    +0.046 HD
ATOM     30  H   UNL     1      -5.461  12.831  21.148  0.00  0.00    +0.046 HD
ATOM     31  H   UNL     1      -5.102  14.224  22.227  0.00  0.00    +0.046 HD
ENDBRANCH  26  28
ENDBRANCH  21  22
ENDBRANCH  15  21
ENDBRANCH   5  15
ENDBRANCH   1   9
BRANCH   2  32
ATOM     32  C   UNL     1       2.368   6.460  19.867  0.00  0.00    +0.127 A 
ATOM     33  C   UNL     1       3.669   6.424  19.401  0.00  0.00    -0.019 A 
ATOM     34  C   UNL     1       4.242   5.171  19.225  0.00  0.00    +0.041 A 
ATOM     35  C   UNL     1       3.510   4.005  19.468  0.00  0.00    -0.019 A 
ATOM     36  C   UNL     1       2.199   4.125  19.921  0.00  0.00    +0.145 A 
ATOM     37  N   UNL     1       1.625   5.345  20.141  0.00  0.00    -0.238 NA
ATOM     38  H   UNL     1       4.219   7.332  19.182  0.00  0.00    +0.065 HD
ATOM     39  H   UNL     1       3.951   3.027  19.287  0.00  0.00    +0.065 HD
BRANCH  34  40
ATOM     40  C   UNL     1       5.623   5.087  18.714  0.00  0.00    +0.247 C 
ATOM     41  O   UNL     1       6.540   5.173  19.522  0.00  0.00    -0.270 OA
ATOM     42  N   UNL     1       5.803   4.919  17.357  0.00  0.00    -0.298 N 
ATOM     43  C   UNL     1       7.140   4.812  16.800  0.00  0.00    +0.015 C 
ATOM     44  C   UNL     1       6.911   4.774  15.298  0.00  0.00    -0.036 C 
ATOM     45  C   UNL     1       5.583   4.036  15.183  0.00  0.00    -0.036 C 
ATOM     46  C   UNL     1       4.791   4.567  16.368  0.00  0.00    +0.015 C 
ATOM     47  H   UNL     1       7.766   5.650  17.125  0.00  0.00    +0.046 HD
ATOM     48  H   UNL     1       7.585   3.877  17.161  0.00  0.00    +0.046 HD
ATOM     49  H   UNL     1       7.725   4.284  14.760  0.00  0.00    +0.028 HD
ATOM     50  H   UNL     1       6.800   5.792  14.906  0.00  0.00    +0.028 HD
ATOM     51  H   UNL     1       5.746   2.957  15.296  0.00  0.00    +0.028 HD
ATOM     52  H   UNL     1       5.079   4.209  14.227  0.00  0.00    +0.028 HD
ATOM     53  H   UNL     1       4.090   3.833  16.771  0.00  0.00    +0.046 HD
ATOM     54  H   UNL     1       4.249   5.477  16.099  0.00  0.00    +0.046 HD
ENDBRANCH  34  40
BRANCH  36  55
ATOM     55  C   UNL     1       1.392   2.856  20.171  0.00  0.00    +0.434 C 
ATOM     56  F   UNL     1       1.231   2.601  21.502  0.00  0.00    -0.164 F 
ATOM     57  F   UNL     1       1.993   1.747  19.655  0.00  0.00    -0.164 F 
ATOM     58  F   UNL     1       0.137   2.886  19.641  0.00  0.00    -0.164 F 
ENDBRANCH  36  55
ENDBRANCH   2  32
TORSDOF 9
ENDMDL
MODEL 7
REMARK VINA RESULT:    -8.278      2.259      3.405
REMARK INTER + INTRA:         -13.193
REMARK INTER:                 -12.174
REMARK INTRA:                  -1.019
REMARK UNBOUND:                -1.044
REMARK  Name = 
REMARK  9 active torsions:
REMARK  status: ('A' for Active; 'I' for Inactive)
REMARK    1  A    between atoms: C_1  and  C_2
REMARK    2  A    between atoms: C_2  and  S_3
REMARK    3  A    between atoms: C_2  and  C_10
REMARK    4  A    between atoms: S_3  and  C_4
REMARK    5  A    between atoms: N_8  and  C_9
REMARK    6  A    between atoms: C_14  and  N_15
REMARK    7  A    between atoms: C_16  and  C_18
REMARK    8  A    between atoms: C_20  and  C_21
REMARK    9  A    between atoms: C_29  and  C_30
REMARK                            x       y       z     vdW  Elec       q    Type
REMARK                         _______ _______ _______ _____ _____    ______ ____
ROOT
ATOM      1  N   UNL     1       1.164   8.580  19.451  0.00  0.00    -0.280 N 
ATOM      2  C   UNL     1       2.068   8.237  18.464  0.00  0.00    +0.267 C 
ATOM      3  O   UNL     1       2.328   8.857  17.440  0.00  0.00    -0.268 OA
ATOM      4  H   UNL     1       1.126   7.926  20.229  0.00  0.00    +0.155 HD
ENDROOT
BRANCH   1   9
ATOM      5  C   UNL     1      -0.546  11.566  20.838  0.00  0.00    -0.033 A 
ATOM      6  C   UNL     1      -1.379  11.917  19.769  0.00  0.00    -0.057 A 
ATOM      7  C   UNL     1      -1.372  11.176  18.587  0.00  0.00    -0.060 A 
ATOM      8  C   UNL     1      -0.535  10.067  18.452  0.00  0.00    -0.040 A 
ATOM      9  C   UNL     1       0.304   9.692  19.498  0.00  0.00    +0.034 A 
ATOM     10  C   UNL     1       0.300  10.449  20.680  0.00  0.00    -0.036 A 
ATOM     11  H   UNL     1      -2.045  12.775  19.835  0.00  0.00    +0.062 HD
ATOM     12  H   UNL     1      -2.021  11.466  17.764  0.00  0.00    +0.062 HD
ATOM     13  H   UNL     1      -0.565   9.516  17.517  0.00  0.00    +0.064 HD
ATOM     14  H   UNL     1       0.962  10.168  21.496  0.00  0.00    +0.064 HD
BRANCH   5  15
ATOM     15  C   UNL     1      -0.520  12.347  22.141  0.00  0.00    +0.035 C 
ATOM     16  H   UNL     1       0.328  11.950  22.716  0.00  0.00    +0.046 HD
BRANCH  15  17
ATOM     17  C   UNL     1      -1.727  12.112  23.056  0.00  0.00    -0.049 C 
ATOM     18  H   UNL     1      -1.544  12.373  24.102  0.00  0.00    +0.024 HD
ATOM     19  H   UNL     1      -2.567  12.732  22.723  0.00  0.00    +0.024 HD
ATOM     20  H   UNL     1      -2.057  11.068  23.015  0.00  0.00    +0.024 HD
ENDBRANCH  15  17
BRANCH  15  21
ATOM     21  S   UNL     1      -0.056  14.097  21.904  0.00  0.00    -0.078 S 
BRANCH  21  22
ATOM     22  C   UNL     1       1.201  14.092  20.723  0.00  0.00    +0.192 A 
ATOM     23  N   UNL     1       2.411  13.600  20.831  0.00  0.00    -0.123 NA
ATOM     24  N   UNL     1       3.048  13.765  19.622  0.00  0.00    -0.137 NA
ATOM     25  C   UNL     1       2.202  14.356  18.809  0.00  0.00    +0.120 A 
ATOM     26  N   UNL     1       1.035  14.606  19.467  0.00  0.00    -0.312 N 
ATOM     27  H   UNL     1       2.387  14.617  17.774  0.00  0.00    +0.105 HD
BRANCH  26  28
ATOM     28  C   UNL     1      -0.116  15.266  18.916  0.00  0.00    +0.015 C 
ATOM     29  H   UNL     1      -0.023  15.311  17.828  0.00  0.00    +0.046 HD
ATOM     30  H   UNL     1      -0.162  16.282  19.315  0.00  0.00    +0.046 HD
ATOM     31  H   UNL     1      -1.011  14.701  19.187  0.00  0.00    +0.046 HD
ENDBRANCH  26  28
ENDBRANCH  21  22
ENDBRANCH  15  21
ENDBRANCH   5  15
ENDBRANCH   1   9
BRANCH   2  32
ATOM     32  C   UNL     1       2.785   6.952  18.756  0.00  0.00    +0.127 A 
ATOM     33  C   UNL     1       4.040   6.721  18.225  0.00  0.00    -0.019 A 
ATOM     34  C   UNL     1       4.656   5.521  18.558  0.00  0.00    +0.041 A 
ATOM     35  C   UNL     1       4.006   4.579  19.361  0.00  0.00    -0.019 A 
ATOM     36  C   UNL     1       2.736   4.879  19.845  0.00  0.00    +0.145 A 
ATOM     37  N   UNL     1       2.126   6.068  19.564  0.00  0.00    -0.238 NA
ATOM     38  H   UNL     1       4.524   7.442  17.576  0.00  0.00    +0.065 HD
ATOM     39  H   UNL     1       4.477   3.623  19.582  0.00  0.00    +0.065 HD
BRANCH  34  40
ATOM     40  C   UNL     1       5.990   5.227  18.000  0.00  0.00    +0.247 C 
ATOM     41  O   UNL     1       6.934   5.156  18.776  0.00  0.00    -0.270 OA
ATOM     42  N   UNL     1       6.096   5.053  16.636  0.00  0.00    -0.298 N 
ATOM     43  C   UNL     1       7.381   4.744  16.032  0.00  0.00    +0.015 C 
ATOM     44  C   UNL     1       7.100   4.764  14.538  0.00  0.00    -0.036 C 
ATOM     45  C   UNL     1       5.669   4.246  14.463  0.00  0.00    -0.036 C 
ATOM     46  C   UNL     1       5.009   4.878  15.679  0.00  0.00    +0.015 C 
ATOM     47  H   UNL     1       8.141   5.468  16.342  0.00  0.00    +0.046 HD
ATOM     48  H   UNL     1       7.683   3.745  16.370  0.00  0.00    +0.046 HD
ATOM     49  H   UNL     1       7.807   4.159  13.969  0.00  0.00    +0.028 HD
ATOM     50  H   UNL     1       7.138   5.792  14.160  0.00  0.00    +0.028 HD
ATOM     51  H   UNL     1       5.663   3.153  14.561  0.00  0.00    +0.028 HD
ATOM     52  H   UNL     1       5.167   4.509  13.526  0.00  0.00    +0.028 HD
ATOM     53  H   UNL     1       4.214   4.258  16.100  0.00  0.00    +0.046 HD
ATOM     54  H   UNL     1       4.609   5.865  15.437  0.00  0.00    +0.046 HD
ENDBRANCH  34  40
BRANCH  36  55
ATOM     55  C   UNL     1       2.018   3.847  20.706  0.00  0.00    +0.434 C 
ATOM     56  F   UNL     1       2.256   2.570  20.287  0.00  0.00    -0.164 F 
ATOM     57  F   UNL     1       0.664   3.997  20.677  0.00  0.00    -0.164 F 
ATOM     58  F   UNL     1       2.373   3.881  22.021  0.00  0.00    -0.164 F 
ENDBRANCH  36  55
ENDBRANCH   2  32
TORSDOF 9
ENDMDL
MODEL 8
REMARK VINA RESULT:    -8.260      1.482      2.023
REMARK INTER + INTRA:         -13.167
REMARK INTER:                 -12.079
REMARK INTRA:                  -1.088
REMARK UNBOUND:                -1.044
REMARK  Name = 
REMARK  9 active torsions:
REMARK  status: ('A' for Active; 'I' for Inactive)
REMARK    1  A    between atoms: C_1  and  C_2
REMARK    2  A    between atoms: C_2  and  S_3
REMARK    3  A    between atoms: C_2  and  C_10
REMARK    4  A    between atoms: S_3  and  C_4
REMARK    5  A    between atoms: N_8  and  C_9
REMARK    6  A    between atoms: C_14  and  N_15
REMARK    7  A    between atoms: C_16  and  C_18
REMARK    8  A    between atoms: C_20  and  C_21
REMARK    9  A    between atoms: C_29  and  C_30
REMARK                            x       y       z     vdW  Elec       q    Type
REMARK                         _______ _______ _______ _____ _____    ______ ____
ROOT
ATOM      1  N   UNL     1       1.789   8.745  18.902  0.00  0.00    -0.280 N 
ATOM      2  C   UNL     1       1.729   7.919  20.007  0.00  0.00    +0.267 C 
ATOM      3  O   UNL     1       1.221   8.162  21.095  0.00  0.00    -0.268 OA
ATOM      4  H   UNL     1       2.241   8.329  18.092  0.00  0.00    +0.155 HD
ENDROOT
BRANCH   1   9
ATOM      5  C   UNL     1      -0.634  11.551  18.762  0.00  0.00    -0.033 A 
ATOM      6  C   UNL     1       0.221  12.630  18.507  0.00  0.00    -0.057 A 
ATOM      7  C   UNL     1       1.598  12.436  18.390  0.00  0.00    -0.060 A 
ATOM      8  C   UNL     1       2.146  11.159  18.521  0.00  0.00    -0.040 A 
ATOM      9  C   UNL     1       1.321  10.065  18.773  0.00  0.00    +0.034 A 
ATOM     10  C   UNL     1      -0.061  10.271  18.901  0.00  0.00    -0.036 A 
ATOM     11  H   UNL     1      -0.168  13.641  18.399  0.00  0.00    +0.062 HD
ATOM     12  H   UNL     1       2.248  13.285  18.198  0.00  0.00    +0.062 HD
ATOM     13  H   UNL     1       3.221  11.052  18.417  0.00  0.00    +0.064 HD
ATOM     14  H   UNL     1      -0.710   9.421  19.110  0.00  0.00    +0.064 HD
BRANCH   5  15
ATOM     15  C   UNL     1      -2.138  11.719  18.899  0.00  0.00    +0.035 C 
ATOM     16  H   UNL     1      -2.436  12.433  18.119  0.00  0.00    +0.046 HD
BRANCH  15  17
ATOM     17  C   UNL     1      -2.595  12.387  20.201  0.00  0.00    -0.049 C 
ATOM     18  H   UNL     1      -2.993  13.396  20.063  0.00  0.00    +0.024 HD
ATOM     19  H   UNL     1      -3.399  11.796  20.655  0.00  0.00    +0.024 HD
ATOM     20  H   UNL     1      -1.777  12.436  20.928  0.00  0.00    +0.024 HD
ENDBRANCH  15  17
BRANCH  15  21
ATOM     21  S   UNL     1      -3.060  10.214  18.435  0.00  0.00    -0.078 S 
BRANCH  21  22
ATOM     22  C   UNL     1      -3.191  10.256  16.716  0.00  0.00    +0.192 A 
ATOM     23  N   UNL     1      -2.461   9.617  15.833  0.00  0.00    -0.123 NA
ATOM     24  N   UNL     1      -2.960   9.901  14.582  0.00  0.00    -0.137 NA
ATOM     25  C   UNL     1      -3.984  10.708  14.740  0.00  0.00    +0.120 A 
ATOM     26  N   UNL     1      -4.149  10.981  16.065  0.00  0.00    -0.312 N 
ATOM     27  H   UNL     1      -4.608  11.110  13.952  0.00  0.00    +0.105 HD
BRANCH  26  28
ATOM     28  C   UNL     1      -5.147  11.849  16.627  0.00  0.00    +0.015 C 
ATOM     29  H   UNL     1      -4.780  12.880  16.617  0.00  0.00    +0.046 HD
ATOM     30  H   UNL     1      -5.336  11.545  17.659  0.00  0.00    +0.046 HD
ATOM     31  H   UNL     1      -6.058  11.776  16.028  0.00  0.00    +0.046 HD
ENDBRANCH  26  28
ENDBRANCH  21  22
ENDBRANCH  15  21
ENDBRANCH   5  15
ENDBRANCH   1   9
BRANCH   2  32
ATOM     32  C   UNL     1       2.369   6.584  19.768  0.00  0.00    +0.127 A 
ATOM     33  C   UNL     1       3.669   6.508  19.307  0.00  0.00    -0.019 A 
ATOM     34  C   UNL     1       4.206   5.239  19.134  0.00  0.00    +0.041 A 
ATOM     35  C   UNL     1       3.439   4.096  19.377  0.00  0.00    -0.019 A 
ATOM     36  C   UNL     1       2.131   4.254  19.825  0.00  0.00    +0.145 A 
ATOM     37  N   UNL     1       1.593   5.491  20.041  0.00  0.00    -0.238 NA
ATOM     38  H   UNL     1       4.247   7.399  19.089  0.00  0.00    +0.065 HD
ATOM     39  H   UNL     1       3.852   3.104  19.198  0.00  0.00    +0.065 HD
BRANCH  34  40
ATOM     40  C   UNL     1       5.586   5.113  18.629  0.00  0.00    +0.247 C 
ATOM     41  O   UNL     1       6.503   5.174  19.439  0.00  0.00    -0.270 OA
ATOM     42  N   UNL     1       5.766   4.938  17.273  0.00  0.00    -0.298 N 
ATOM     43  C   UNL     1       7.101   4.790  16.720  0.00  0.00    +0.015 C 
ATOM     44  C   UNL     1       6.876   4.756  15.217  0.00  0.00    -0.036 C 
ATOM     45  C   UNL     1       5.527   4.057  15.099  0.00  0.00    -0.036 C 
ATOM     46  C   UNL     1       4.747   4.613  16.281  0.00  0.00    +0.015 C 
ATOM     47  H   UNL     1       7.749   5.611  17.045  0.00  0.00    +0.046 HD
ATOM     48  H   UNL     1       7.517   3.843  17.085  0.00  0.00    +0.046 HD
ATOM     49  H   UNL     1       7.676   4.241  14.683  0.00  0.00    +0.028 HD
ATOM     50  H   UNL     1       6.795   5.776  14.824  0.00  0.00    +0.028 HD
ATOM     51  H   UNL     1       5.658   2.973  15.215  0.00  0.00    +0.028 HD
ATOM     52  H   UNL     1       5.031   4.242  14.141  0.00  0.00    +0.028 HD
ATOM     53  H   UNL     1       4.023   3.900  16.683  0.00  0.00    +0.046 HD
ATOM     54  H   UNL     1       4.232   5.537  16.008  0.00  0.00    +0.046 HD
ENDBRANCH  34  40
BRANCH  36  55
ATOM     55  C   UNL     1       1.287   3.010  20.074  0.00  0.00    +0.434 C 
ATOM     56  F   UNL     1       1.949   1.863  19.747  0.00  0.00    -0.164 F 
ATOM     57  F   UNL     1       0.144   3.000  19.331  0.00  0.00    -0.164 F 
ATOM     58  F   UNL     1       0.895   2.859  21.371  0.00  0.00    -0.164 F 
ENDBRANCH  36  55
ENDBRANCH   2  32
TORSDOF 9
ENDMDL
MODEL 9
REMARK VINA RESULT:    -8.180      2.274      3.411
REMARK INTER + INTRA:         -13.050
REMARK INTER:                 -12.133
REMARK INTRA:                  -0.916
REMARK UNBOUND:                -1.044
REMARK  Name = 
REMARK  9 active torsions:
REMARK  status: ('A' for Active; 'I' for Inactive)
REMARK    1  A    between atoms: C_1  and  C_2
REMARK    2  A    between atoms: C_2  and  S_3
REMARK    3  A    between atoms: C_2  and  C_10
REMARK    4  A    between atoms: S_3  and  C_4
REMARK    5  A    between atoms: N_8  and  C_9
REMARK    6  A    between atoms: C_14  and  N_15
REMARK    7  A    between atoms: C_16  and  C_18
REMARK    8  A    between atoms: C_20  and  C_21
REMARK    9  A    between atoms: C_29  and  C_30
REMARK                            x       y       z     vdW  Elec       q    Type
REMARK                         _______ _______ _______ _____ _____    ______ ____
ROOT
ATOM      1  N   UNL     1       2.023   8.451  18.612  0.00  0.00    -0.280 N 
ATOM      2  C   UNL     1       1.998   7.555  19.663  0.00  0.00    +0.267 C 
ATOM      3  O   UNL     1       1.542   7.732  20.787  0.00  0.00    -0.268 OA
ATOM      4  H   UNL     1       2.433   8.082  17.758  0.00  0.00    +0.155 HD
ENDROOT
BRANCH   1   9
ATOM      5  C   UNL     1      -0.317  11.310  18.949  0.00  0.00    -0.033 A 
ATOM      6  C   UNL     1       0.507  12.375  18.566  0.00  0.00    -0.057 A 
ATOM      7  C   UNL     1       1.836  12.155  18.207  0.00  0.00    -0.060 A 
ATOM      8  C   UNL     1       2.368  10.863  18.217  0.00  0.00    -0.040 A 
ATOM      9  C   UNL     1       1.573   9.783  18.591  0.00  0.00    +0.034 A 
ATOM     10  C   UNL     1       0.240  10.014  18.963  0.00  0.00    -0.036 A 
ATOM     11  H   UNL     1       0.130  13.396  18.546  0.00  0.00    +0.062 HD
ATOM     12  H   UNL     1       2.464  12.994  17.918  0.00  0.00    +0.062 HD
ATOM     13  H   UNL     1       3.405  10.737  17.924  0.00  0.00    +0.064 HD
ATOM     14  H   UNL     1      -0.383   9.174  19.268  0.00  0.00    +0.064 HD
BRANCH   5  15
ATOM     15  C   UNL     1      -1.769  11.506  19.351  0.00  0.00    +0.035 C 
ATOM     16  H   UNL     1      -1.936  10.847  20.214  0.00  0.00    +0.046 HD
BRANCH  15  17
ATOM     17  C   UNL     1      -2.794  11.025  18.318  0.00  0.00    -0.049 C 
ATOM     18  H   UNL     1      -2.452  11.113  17.283  0.00  0.00    +0.024 HD
ATOM     19  H   UNL     1      -3.013   9.964  18.484  0.00  0.00    +0.024 HD
ATOM     20  H   UNL     1      -3.738  11.572  18.415  0.00  0.00    +0.024 HD
ENDBRANCH  15  17
BRANCH  15  21
ATOM     21  S   UNL     1      -2.089  13.163  20.047  0.00  0.00    -0.078 S 
BRANCH  21  22
ATOM     22  C   UNL     1      -2.967  12.896  21.507  0.00  0.00    +0.192 A 
ATOM     23  N   UNL     1      -4.250  13.067  21.722  0.00  0.00    -0.123 NA
ATOM     24  N   UNL     1      -4.521  12.672  23.013  0.00  0.00    -0.137 NA
ATOM     25  C   UNL     1      -3.391  12.269  23.548  0.00  0.00    +0.120 A 
ATOM     26  N   UNL     1      -2.381  12.418  22.645  0.00  0.00    -0.312 N 
ATOM     27  H   UNL     1      -3.262  11.881  24.550  0.00  0.00    +0.105 HD
BRANCH  26  28
ATOM     28  C   UNL     1      -0.996  12.112  22.876  0.00  0.00    +0.015 C 
ATOM     29  H   UNL     1      -0.887  11.634  23.854  0.00  0.00    +0.046 HD
ATOM     30  H   UNL     1      -0.425  13.043  22.865  0.00  0.00    +0.046 HD
ATOM     31  H   UNL     1      -0.648  11.434  22.094  0.00  0.00    +0.046 HD
ENDBRANCH  26  28
ENDBRANCH  21  22
ENDBRANCH  15  21
ENDBRANCH   5  15
ENDBRANCH   1   9
BRANCH   2  32
ATOM     32  C   UNL     1       2.604   6.229  19.310  0.00  0.00    +0.127 A 
ATOM     33  C   UNL     1       3.896   6.162  18.825  0.00  0.00    -0.019 A 
ATOM     34  C   UNL     1       4.402   4.899  18.544  0.00  0.00    +0.041 A 
ATOM     35  C   UNL     1       3.612   3.757  18.707  0.00  0.00    -0.019 A 
ATOM     36  C   UNL     1       2.314   3.908  19.185  0.00  0.00    +0.145 A 
ATOM     37  N   UNL     1       1.807   5.135  19.507  0.00  0.00    -0.238 NA
ATOM     38  H   UNL     1       4.491   7.055  18.669  0.00  0.00    +0.065 HD
ATOM     39  H   UNL     1       4.000   2.775  18.444  0.00  0.00    +0.065 HD
BRANCH  34  40
ATOM     40  C   UNL     1       5.772   4.784  18.009  0.00  0.00    +0.247 C 
ATOM     41  O   UNL     1       6.696   4.708  18.809  0.00  0.00    -0.270 OA
ATOM     42  N   UNL     1       5.934   4.772  16.640  0.00  0.00    -0.298 N 
ATOM     43  C   UNL     1       7.257   4.643  16.057  0.00  0.00    +0.015 C 
ATOM     44  C   UNL     1       7.020   4.805  14.564  0.00  0.00    -0.036 C 
ATOM     45  C   UNL     1       5.644   4.179  14.377  0.00  0.00    -0.036 C 
ATOM     46  C   UNL     1       4.895   4.613  15.628  0.00  0.00    +0.015 C 
ATOM     47  H   UNL     1       7.941   5.391  16.473  0.00  0.00    +0.046 HD
ATOM     48  H   UNL     1       7.638   3.643  16.296  0.00  0.00    +0.046 HD
ATOM     49  H   UNL     1       7.795   4.330  13.960  0.00  0.00    +0.028 HD
ATOM     50  H   UNL     1       6.977   5.869  14.301  0.00  0.00    +0.028 HD
ATOM     51  H   UNL     1       5.732   3.085  14.356  0.00  0.00    +0.028 HD
ATOM     52  H   UNL     1       5.148   4.501  13.456  0.00  0.00    +0.028 HD
ATOM     53  H   UNL     1       4.147   3.884  15.948  0.00  0.00    +0.046 HD
ATOM     54  H   UNL     1       4.416   5.583  15.479  0.00  0.00    +0.046 HD
ENDBRANCH  34  40
BRANCH  36  55
ATOM     55  C   UNL     1       1.445   2.666  19.348  0.00  0.00    +0.434 C 
ATOM     56  F   UNL     1       0.443   2.613  18.423  0.00  0.00    -0.164 F 
ATOM     57  F   UNL     1       0.827   2.619  20.562  0.00  0.00    -0.164 F 
ATOM     58  F   UNL     1       2.128   1.493  19.227  0.00  0.00    -0.164 F 
ENDBRANCH  36  55
ENDBRANCH   2  32
TORSDOF 9
ENDMDL
MODEL 10
REMARK VINA RESULT:    -8.138      3.013      3.885
REMARK INTER + INTRA:         -12.988
REMARK INTER:                 -12.208
REMARK INTRA:                  -0.780
REMARK UNBOUND:                -1.044
REMARK  Name = 
REMARK  9 active torsions:
REMARK  status: ('A' for Active; 'I' for Inactive)
REMARK    1  A    between atoms: C_1  and  C_2
REMARK    2  A    between atoms: C_2  and  S_3
REMARK    3  A    between atoms: C_2  and  C_10
REMARK    4  A    between atoms: S_3  and  C_4
REMARK    5  A    between atoms: N_8  and  C_9
REMARK    6  A    between atoms: C_14  and  N_15
REMARK    7  A    between atoms: C_16  and  C_18
REMARK    8  A    between atoms: C_20  and  C_21
REMARK    9  A    between atoms: C_29  and  C_30
REMARK                            x       y       z     vdW  Elec       q    Type
REMARK                         _______ _______ _______ _____ _____    ______ ____
ROOT
ATOM      1  N   UNL     1       1.216   8.674  19.506  0.00  0.00    -0.280 N 
ATOM      2  C   UNL     1       2.055   8.285  18.480  0.00  0.00    +0.267 C 
ATOM      3  O   UNL     1       2.282   8.880  17.433  0.00  0.00    -0.268 OA
ATOM      4  H   UNL     1       1.196   8.034  20.296  0.00  0.00    +0.155 HD
ENDROOT
BRANCH   1   9
ATOM      5  C   UNL     1      -0.584  11.541  21.023  0.00  0.00    -0.033 A 
ATOM      6  C   UNL     1      -1.231  12.074  19.902  0.00  0.00    -0.057 A 
ATOM      7  C   UNL     1      -1.068  11.495  18.643  0.00  0.00    -0.060 A 
ATOM      8  C   UNL     1      -0.258  10.369  18.482  0.00  0.00    -0.040 A 
ATOM      9  C   UNL     1       0.397   9.815  19.578  0.00  0.00    +0.034 A 
ATOM     10  C   UNL     1       0.237  10.410  20.839  0.00  0.00    -0.036 A 
ATOM     11  H   UNL     1      -1.870  12.951  19.987  0.00  0.00    +0.062 HD
ATOM     12  H   UNL     1      -1.572  11.925  17.782  0.00  0.00    +0.062 HD
ATOM     13  H   UNL     1      -0.164   9.948  17.486  0.00  0.00    +0.064 HD
ATOM     14  H   UNL     1       0.757   9.988  21.698  0.00  0.00    +0.064 HD
BRANCH   5  15
ATOM     15  C   UNL     1      -0.732  12.142  22.411  0.00  0.00    +0.035 C 
ATOM     16  H   UNL     1       0.193  11.894  22.949  0.00  0.00    +0.046 HD
BRANCH  15  17
ATOM     17  C   UNL     1      -1.836  11.514  23.270  0.00  0.00    -0.049 C 
ATOM     18  H   UNL     1      -2.820  11.515  22.795  0.00  0.00    +0.024 HD
ATOM     19  H   UNL     1      -1.590  10.465  23.474  0.00  0.00    +0.024 HD
ATOM     20  H   UNL     1      -1.920  12.022  24.237  0.00  0.00    +0.024 HD
ENDBRANCH  15  17
BRANCH  15  21
ATOM     21  S   UNL     1      -0.707  13.967  22.395  0.00  0.00    -0.078 S 
BRANCH  21  22
ATOM     22  C   UNL     1      -1.949  14.463  23.483  0.00  0.00    +0.192 A 
ATOM     23  N   UNL     1      -1.834  14.785  24.749  0.00  0.00    -0.123 NA
ATOM     24  N   UNL     1      -3.074  15.176  25.203  0.00  0.00    -0.137 NA
ATOM     25  C   UNL     1      -3.911  15.080  24.195  0.00  0.00    +0.120 A 
ATOM     26  N   UNL     1      -3.253  14.609  23.099  0.00  0.00    -0.312 N 
ATOM     27  H   UNL     1      -4.965  15.327  24.215  0.00  0.00    +0.105 HD
BRANCH  26  28
ATOM     28  C   UNL     1      -3.840  14.345  21.815  0.00  0.00    +0.015 C 
ATOM     29  H   UNL     1      -3.099  14.525  21.031  0.00  0.00    +0.046 HD
ATOM     30  H   UNL     1      -4.687  15.020  21.671  0.00  0.00    +0.046 HD
ATOM     31  H   UNL     1      -4.166  13.302  21.782  0.00  0.00    +0.046 HD
ENDBRANCH  26  28
ENDBRANCH  21  22
ENDBRANCH  15  21
ENDBRANCH   5  15
ENDBRANCH   1   9
BRANCH   2  32
ATOM     32  C   UNL     1       2.743   6.981  18.756  0.00  0.00    +0.127 A 
ATOM     33  C   UNL     1       4.006   6.741  18.250  0.00  0.00    -0.019 A 
ATOM     34  C   UNL     1       4.594   5.523  18.567  0.00  0.00    +0.041 A 
ATOM     35  C   UNL     1       3.908   4.572  19.329  0.00  0.00    -0.019 A 
ATOM     36  C   UNL     1       2.631   4.881  19.789  0.00  0.00    +0.145 A 
ATOM     37  N   UNL     1       2.048   6.088  19.524  0.00  0.00    -0.238 NA
ATOM     38  H   UNL     1       4.519   7.470  17.632  0.00  0.00    +0.065 HD
ATOM     39  H   UNL     1       4.357   3.602  19.537  0.00  0.00    +0.065 HD
BRANCH  34  40
ATOM     40  C   UNL     1       5.936   5.220  18.035  0.00  0.00    +0.247 C 
ATOM     41  O   UNL     1       6.871   5.182  18.824  0.00  0.00    -0.270 OA
ATOM     42  N   UNL     1       6.060   5.001  16.679  0.00  0.00    -0.298 N 
ATOM     43  C   UNL     1       7.354   4.681  16.101  0.00  0.00    +0.015 C 
ATOM     44  C   UNL     1       7.091   4.649  14.604  0.00  0.00    -0.036 C 
ATOM     45  C   UNL     1       5.664   4.119  14.529  0.00  0.00    -0.036 C 
ATOM     46  C   UNL     1       4.986   4.786  15.716  0.00  0.00    +0.015 C 
ATOM     47  H   UNL     1       8.105   5.421  16.396  0.00  0.00    +0.046 HD
ATOM     48  H   UNL     1       7.659   3.697  16.476  0.00  0.00    +0.046 HD
ATOM     49  H   UNL     1       7.809   4.031  14.064  0.00  0.00    +0.028 HD
ATOM     50  H   UNL     1       7.126   5.665  14.192  0.00  0.00    +0.028 HD
ATOM     51  H   UNL     1       5.665   3.030  14.664  0.00  0.00    +0.028 HD
ATOM     52  H   UNL     1       5.172   4.347  13.579  0.00  0.00    +0.028 HD
ATOM     53  H   UNL     1       4.190   4.175  16.148  0.00  0.00    +0.046 HD
ATOM     54  H   UNL     1       4.582   5.762  15.436  0.00  0.00    +0.046 HD
ENDBRANCH  34  40
BRANCH  36  55
ATOM     55  C   UNL     1       1.874   3.840  20.604  0.00  0.00    +0.434 C 
ATOM     56  F   UNL     1       0.522   3.993  20.509  0.00  0.00    -0.164 F 
ATOM     57  F   UNL     1       2.160   3.914  21.935  0.00  0.00    -0.164 F 
ATOM     58  F   UNL     1       2.132   2.554  20.234  0.00  0.00    -0.164 F 
ENDBRANCH  36  55
ENDBRANCH   2  32
TORSDOF 9
ENDMDL
MODEL 11
REMARK VINA RESULT:    -7.962      3.454      5.250
REMARK INTER + INTRA:         -12.730
REMARK INTER:                 -11.407
REMARK INTRA:                  -1.323
REMARK UNBOUND:                -1.044
REMARK  Name = 
REMARK  9 active torsions:
REMARK  status: ('A' for Active; 'I' for Inactive)
REMARK    1  A    between atoms: C_1  and  C_2
REMARK    2  A    between atoms: C_2  and  S_3
REMARK    3  A    between atoms: C_2  and  C_10
REMARK    4  A    between atoms: S_3  and  C_4
REMARK    5  A    between atoms: N_8  and  C_9
REMARK    6  A    between atoms: C_14  and  N_15
REMARK    7  A    between atoms: C_16  and  C_18
REMARK    8  A    between atoms: C_20  and  C_21
REMARK    9  A    between atoms: C_29  and  C_30
REMARK                            x       y       z     vdW  Elec       q    Type
REMARK                         _______ _______ _______ _____ _____    ______ ____
ROOT
ATOM      1  N   UNL     1       1.169   8.816  18.748  0.00  0.00    -0.280 N 
ATOM      2  C   UNL     1       2.317   8.914  17.985  0.00  0.00    +0.267 C 
ATOM      3  O   UNL     1       2.758   9.910  17.424  0.00  0.00    -0.268 OA
ATOM      4  H   UNL     1       1.005   7.892  19.140  0.00  0.00    +0.155 HD
ENDROOT
BRANCH   1   9
ATOM      5  C   UNL     1      -0.606  11.457  20.654  0.00  0.00    -0.033 A 
ATOM      6  C   UNL     1      -1.620  11.801  19.753  0.00  0.00    -0.057 A 
ATOM      7  C   UNL     1      -1.715  11.170  18.512  0.00  0.00    -0.060 A 
ATOM      8  C   UNL     1      -0.800  10.179  18.150  0.00  0.00    -0.040 A 
ATOM      9  C   UNL     1       0.219   9.814  19.026  0.00  0.00    +0.034 A 
ATOM     10  C   UNL     1       0.314  10.461  20.268  0.00  0.00    -0.036 A 
ATOM     11  H   UNL     1      -2.352  12.569  19.998  0.00  0.00    +0.062 HD
ATOM     12  H   UNL     1      -2.505  11.454  17.821  0.00  0.00    +0.062 HD
ATOM     13  H   UNL     1      -0.914   9.711  17.178  0.00  0.00    +0.064 HD
ATOM     14  H   UNL     1       1.116  10.188  20.951  0.00  0.00    +0.064 HD
BRANCH   5  15
ATOM     15  C   UNL     1      -0.465  12.120  22.014  0.00  0.00    +0.035 C 
ATOM     16  H   UNL     1       0.437  11.688  22.470  0.00  0.00    +0.046 HD
BRANCH  15  17
ATOM     17  C   UNL     1      -1.578  11.786  23.013  0.00  0.00    -0.049 C 
ATOM     18  H   UNL     1      -1.943  12.651  23.573  0.00  0.00    +0.024 HD
ATOM     19  H   UNL     1      -2.442  11.375  22.477  0.00  0.00    +0.024 HD
ATOM     20  H   UNL     1      -1.249  11.026  23.730  0.00  0.00    +0.024 HD
ENDBRANCH  15  17
BRANCH  15  21
ATOM     21  S   UNL     1      -0.039  13.891  21.893  0.00  0.00    -0.078 S 
BRANCH  21  22
ATOM     22  C   UNL     1       1.204  13.994  20.701  0.00  0.00    +0.192 A 
ATOM     23  N   UNL     1       2.439  13.559  20.781  0.00  0.00    -0.123 NA
ATOM     24  N   UNL     1       3.054  13.801  19.573  0.00  0.00    -0.137 NA
ATOM     25  C   UNL     1       2.171  14.377  18.790  0.00  0.00    +0.120 A 
ATOM     26  N   UNL     1       1.001  14.544  19.467  0.00  0.00    -0.312 N 
ATOM     27  H   UNL     1       2.333  14.685  17.765  0.00  0.00    +0.105 HD
BRANCH  26  28
ATOM     28  C   UNL     1      -0.188  15.165  18.951  0.00  0.00    +0.015 C 
ATOM     29  H   UNL     1       0.071  15.782  18.085  0.00  0.00    +0.046 HD
ATOM     30  H   UNL     1      -0.618  15.800  19.729  0.00  0.00    +0.046 HD
ATOM     31  H   UNL     1      -0.893  14.387  18.651  0.00  0.00    +0.046 HD
ENDBRANCH  26  28
ENDBRANCH  21  22
ENDBRANCH  15  21
ENDBRANCH   5  15
ENDBRANCH   1   9
BRANCH   2  32
ATOM     32  C   UNL     1       3.064   7.617  17.891  0.00  0.00    +0.127 A 
ATOM     33  C   UNL     1       2.410   6.420  18.114  0.00  0.00    -0.019 A 
ATOM     34  C   UNL     1       3.158   5.257  17.983  0.00  0.00    +0.041 A 
ATOM     35  C   UNL     1       4.522   5.310  17.682  0.00  0.00    -0.019 A 
ATOM     36  C   UNL     1       5.112   6.555  17.486  0.00  0.00    +0.145 A 
ATOM     37  N   UNL     1       4.390   7.711  17.570  0.00  0.00    -0.238 NA
ATOM     38  H   UNL     1       1.359   6.388  18.381  0.00  0.00    +0.065 HD
ATOM     39  H   UNL     1       5.111   4.397  17.623  0.00  0.00    +0.065 HD
BRANCH  34  40
ATOM     40  C   UNL     1       2.502   3.959  18.229  0.00  0.00    +0.247 C 
ATOM     41  O   UNL     1       2.321   3.216  17.272  0.00  0.00    -0.270 OA
ATOM     42  N   UNL     1       2.127   3.657  19.521  0.00  0.00    -0.298 N 
ATOM     43  C   UNL     1       1.493   2.386  19.825  0.00  0.00    +0.015 C 
ATOM     44  C   UNL     1       1.126   2.500  21.296  0.00  0.00    -0.036 C 
ATOM     45  C   UNL     1       2.257   3.355  21.855  0.00  0.00    -0.036 C 
ATOM     46  C   UNL     1       2.514   4.357  20.741  0.00  0.00    +0.015 C 
ATOM     47  H   UNL     1       0.631   2.214  19.173  0.00  0.00    +0.046 HD
ATOM     48  H   UNL     1       2.229   1.591  19.657  0.00  0.00    +0.046 HD
ATOM     49  H   UNL     1       1.038   1.528  21.785  0.00  0.00    +0.028 HD
ATOM     50  H   UNL     1       0.174   3.033  21.408  0.00  0.00    +0.028 HD
ATOM     51  H   UNL     1       3.149   2.735  22.013  0.00  0.00    +0.028 HD
ATOM     52  H   UNL     1       2.000   3.836  22.805  0.00  0.00    +0.028 HD
ATOM     53  H   UNL     1       3.557   4.678  20.692  0.00  0.00    +0.046 HD
ATOM     54  H   UNL     1       1.869   5.233  20.848  0.00  0.00    +0.046 HD
ENDBRANCH  34  40
BRANCH  36  55
ATOM     55  C   UNL     1       6.603   6.618  17.174  0.00  0.00    +0.434 C 
ATOM     56  F   UNL     1       7.059   7.900  17.089  0.00  0.00    -0.164 F 
ATOM     57  F   UNL     1       6.909   6.038  15.979  0.00  0.00    -0.164 F 
ATOM     58  F   UNL     1       7.388   6.002  18.103  0.00  0.00    -0.164 F 
ENDBRANCH  36  55
ENDBRANCH   2  32
TORSDOF 9
ENDMDL
MODEL 12
REMARK VINA RESULT:    -7.954      2.419      3.501
REMARK INTER + INTRA:         -12.717
REMARK INTER:                 -11.463
REMARK INTRA:                  -1.255
REMARK UNBOUND:                -1.044
REMARK  Name = 
REMARK  9 active torsions:
REMARK  status: ('A' for Active; 'I' for Inactive)
REMARK    1  A    between atoms: C_1  and  C_2
REMARK    2  A    between atoms: C_2  and  S_3
REMARK    3  A    between atoms: C_2  and  C_10
REMARK    4  A    between atoms: S_3  and  C_4
REMARK    5  A    between atoms: N_8  and  C_9
REMARK    6  A    between atoms: C_14  and  N_15
REMARK    7  A    between atoms: C_16  and  C_18
REMARK    8  A    between atoms: C_20  and  C_21
REMARK    9  A    between atoms: C_29  and  C_30
REMARK                            x       y       z     vdW  Elec       q    Type
REMARK                         _______ _______ _______ _____ _____    ______ ____
ROOT
ATOM      1  N   UNL     1       1.229   8.423  18.840  0.00  0.00    -0.280 N 
ATOM      2  C   UNL     1       1.614   7.844  20.033  0.00  0.00    +0.267 C 
ATOM      3  O   UNL     1       1.428   8.270  21.167  0.00  0.00    -0.268 OA
ATOM      4  H   UNL     1       1.469   7.881  18.014  0.00  0.00    +0.155 HD
ENDROOT
BRANCH   1   9
ATOM      5  C   UNL     1       0.700  12.095  18.823  0.00  0.00    -0.033 A 
ATOM      6  C   UNL     1      -0.608  12.174  18.332  0.00  0.00    -0.057 A 
ATOM      7  C   UNL     1      -1.315  11.019  17.997  0.00  0.00    -0.060 A 
ATOM      8  C   UNL     1      -0.729   9.761  18.151  0.00  0.00    -0.040 A 
ATOM      9  C   UNL     1       0.571   9.650  18.639  0.00  0.00    +0.034 A 
ATOM     10  C   UNL     1       1.279  10.817  18.963  0.00  0.00    -0.036 A 
ATOM     11  H   UNL     1      -1.100  13.136  18.197  0.00  0.00    +0.062 HD
ATOM     12  H   UNL     1      -2.328  11.098  17.611  0.00  0.00    +0.062 HD
ATOM     13  H   UNL     1      -1.316   8.889  17.883  0.00  0.00    +0.064 HD
ATOM     14  H   UNL     1       2.300  10.736  19.333  0.00  0.00    +0.064 HD
BRANCH   5  15
ATOM     15  C   UNL     1       1.506  13.328  19.197  0.00  0.00    +0.035 C 
ATOM     16  H   UNL     1       0.878  14.191  18.935  0.00  0.00    +0.046 HD
BRANCH  15  17
ATOM     17  C   UNL     1       2.782  13.538  18.374  0.00  0.00    -0.049 C 
ATOM     18  H   UNL     1       2.747  13.079  17.382  0.00  0.00    +0.024 HD
ATOM     19  H   UNL     1       2.944  14.610  18.214  0.00  0.00    +0.024 HD
ATOM     20  H   UNL     1       3.660  13.151  18.901  0.00  0.00    +0.024 HD
ENDBRANCH  15  17
BRANCH  15  21
ATOM     21  S   UNL     1       1.708  13.516  21.001  0.00  0.00    -0.078 S 
BRANCH  21  22
ATOM     22  C   UNL     1       0.118  13.741  21.630  0.00  0.00    +0.192 A 
ATOM     23  N   UNL     1      -0.569  14.855  21.713  0.00  0.00    -0.123 NA
ATOM     24  N   UNL     1      -1.811  14.552  22.224  0.00  0.00    -0.137 NA
ATOM     25  C   UNL     1      -1.845  13.257  22.436  0.00  0.00    +0.120 A 
ATOM     26  N   UNL     1      -0.642  12.709  22.103  0.00  0.00    -0.312 N 
ATOM     27  H   UNL     1      -2.686  12.695  22.822  0.00  0.00    +0.105 HD
BRANCH  26  28
ATOM     28  C   UNL     1      -0.288  11.322  22.226  0.00  0.00    +0.015 C 
ATOM     29  H   UNL     1      -0.801  10.745  21.451  0.00  0.00    +0.046 HD
ATOM     30  H   UNL     1      -0.604  10.965  23.209  0.00  0.00    +0.046 HD
ATOM     31  H   UNL     1       0.793  11.220  22.105  0.00  0.00    +0.046 HD
ENDBRANCH  26  28
ENDBRANCH  21  22
ENDBRANCH  15  21
ENDBRANCH   5  15
ENDBRANCH   1   9
BRANCH   2  32
ATOM     32  C   UNL     1       2.327   6.537  19.841  0.00  0.00    +0.127 A 
ATOM     33  C   UNL     1       3.635   6.518  19.396  0.00  0.00    -0.019 A 
ATOM     34  C   UNL     1       4.240   5.274  19.266  0.00  0.00    +0.041 A 
ATOM     35  C   UNL     1       3.531   4.099  19.534  0.00  0.00    -0.019 A 
ATOM     36  C   UNL     1       2.211   4.201  19.962  0.00  0.00    +0.145 A 
ATOM     37  N   UNL     1       1.606   5.413  20.136  0.00  0.00    -0.238 NA
ATOM     38  H   UNL     1       4.168   7.432  19.159  0.00  0.00    +0.065 HD
ATOM     39  H   UNL     1       3.998   3.127  19.388  0.00  0.00    +0.065 HD
BRANCH  34  40
ATOM     40  C   UNL     1       5.631   5.207  18.780  0.00  0.00    +0.247 C 
ATOM     41  O   UNL     1       6.533   5.354  19.596  0.00  0.00    -0.270 OA
ATOM     42  N   UNL     1       5.837   4.987  17.434  0.00  0.00    -0.298 N 
ATOM     43  C   UNL     1       7.185   4.894  16.902  0.00  0.00    +0.015 C 
ATOM     44  C   UNL     1       6.981   4.786  15.399  0.00  0.00    -0.036 C 
ATOM     45  C   UNL     1       5.675   4.006  15.297  0.00  0.00    -0.036 C 
ATOM     46  C   UNL     1       4.850   4.564  16.447  0.00  0.00    +0.015 C 
ATOM     47  H   UNL     1       7.782   5.763  17.199  0.00  0.00    +0.046 HD
ATOM     48  H   UNL     1       7.649   3.989  17.309  0.00  0.00    +0.046 HD
ATOM     49  H   UNL     1       7.816   4.296  14.895  0.00  0.00    +0.028 HD
ATOM     50  H   UNL     1       6.847   5.783  14.963  0.00  0.00    +0.028 HD
ATOM     51  H   UNL     1       5.867   2.938  15.459  0.00  0.00    +0.028 HD
ATOM     52  H   UNL     1       5.181   4.124  14.327  0.00  0.00    +0.028 HD
ATOM     53  H   UNL     1       4.164   3.828  16.871  0.00  0.00    +0.046 HD
ATOM     54  H   UNL     1       4.287   5.446  16.131  0.00  0.00    +0.046 HD
ENDBRANCH  34  40
BRANCH  36  55
ATOM     55  C   UNL     1       1.430   2.922  20.238  0.00  0.00    +0.434 C 
ATOM     56  F   UNL     1       0.188   2.944  19.675  0.00  0.00    -0.164 F 
ATOM     57  F   UNL     1       1.227   2.713  21.569  0.00  0.00    -0.164 F 
ATOM     58  F   UNL     1       2.034   1.794  19.767  0.00  0.00    -0.164 F 
ENDBRANCH  36  55
ENDBRANCH   2  32
TORSDOF 9
ENDMDL
MODEL 13
REMARK VINA RESULT:    -7.881      3.248      5.394
REMARK INTER + INTRA:         -12.610
REMARK INTER:                 -11.658
REMARK INTRA:                  -0.953
REMARK UNBOUND:                -1.044
REMARK  Name = 
REMARK  9 active torsions:
REMARK  status: ('A' for Active; 'I' for Inactive)
REMARK    1  A    between atoms: C_1  and  C_2
REMARK    2  A    between atoms: C_2  and  S_3
REMARK    3  A    between atoms: C_2  and  C_10
REMARK    4  A    between atoms: S_3  and  C_4
REMARK    5  A    between atoms: N_8  and  C_9
REMARK    6  A    between atoms: C_14  and  N_15
REMARK    7  A    between atoms: C_16  and  C_18
REMARK    8  A    between atoms: C_20  and  C_21
REMARK    9  A    between atoms: C_29  and  C_30
REMARK                            x       y       z     vdW  Elec       q    Type
REMARK                         _______ _______ _______ _____ _____    ______ ____
ROOT
ATOM      1  N   UNL     1       0.767   8.814  17.846  0.00  0.00    -0.280 N 
ATOM      2  C   UNL     1       2.138   8.983  17.829  0.00  0.00    +0.267 C 
ATOM      3  O   UNL     1       2.761  10.038  17.851  0.00  0.00    -0.268 OA
ATOM      4  H   UNL     1       0.465   7.843  17.844  0.00  0.00    +0.155 HD
ENDROOT
BRANCH   1   9
ATOM      5  C   UNL     1      -0.931  12.002  18.691  0.00  0.00    -0.033 A 
ATOM      6  C   UNL     1      -2.141  11.851  18.003  0.00  0.00    -0.057 A 
ATOM      7  C   UNL     1      -2.395  10.703  17.251  0.00  0.00    -0.060 A 
ATOM      8  C   UNL     1      -1.446   9.681  17.178  0.00  0.00    -0.040 A 
ATOM      9  C   UNL     1      -0.234   9.802  17.853  0.00  0.00    +0.034 A 
ATOM     10  C   UNL     1       0.018  10.964  18.598  0.00  0.00    -0.036 A 
ATOM     11  H   UNL     1      -2.905  12.625  18.034  0.00  0.00    +0.062 HD
ATOM     12  H   UNL     1      -3.336  10.605  16.717  0.00  0.00    +0.062 HD
ATOM     13  H   UNL     1      -1.687   8.804  16.587  0.00  0.00    +0.064 HD
ATOM     14  H   UNL     1       0.969  11.069  19.118  0.00  0.00    +0.064 HD
BRANCH   5  15
ATOM     15  C   UNL     1      -0.614  13.236  19.518  0.00  0.00    +0.035 C 
ATOM     16  H   UNL     1      -1.539  13.487  20.055  0.00  0.00    +0.046 HD
BRANCH  15  17
ATOM     17  C   UNL     1      -0.309  14.498  18.702  0.00  0.00    -0.049 C 
ATOM     18  H   UNL     1       0.755  14.747  18.656  0.00  0.00    +0.024 HD
ATOM     19  H   UNL     1      -0.640  14.355  17.667  0.00  0.00    +0.024 HD
ATOM     20  H   UNL     1      -0.848  15.364  19.099  0.00  0.00    +0.024 HD
ENDBRANCH  15  17
BRANCH  15  21
ATOM     21  S   UNL     1       0.555  12.892  20.878  0.00  0.00    -0.078 S 
BRANCH  21  22
ATOM     22  C   UNL     1      -0.313  11.918  22.006  0.00  0.00    +0.192 A 
ATOM     23  N   UNL     1      -1.351  12.254  22.734  0.00  0.00    -0.123 NA
ATOM     24  N   UNL     1      -1.752  11.144  23.443  0.00  0.00    -0.137 NA
ATOM     25  C   UNL     1      -0.943  10.160  23.122  0.00  0.00    +0.120 A 
ATOM     26  N   UNL     1      -0.005  10.608  22.242  0.00  0.00    -0.312 N 
ATOM     27  H   UNL     1      -0.995   9.144  23.495  0.00  0.00    +0.105 HD
BRANCH  26  28
ATOM     28  C   UNL     1       1.067   9.829  21.687  0.00  0.00    +0.015 C 
ATOM     29  H   UNL     1       1.989  10.418  21.699  0.00  0.00    +0.046 HD
ATOM     30  H   UNL     1       0.818   9.573  20.655  0.00  0.00    +0.046 HD
ATOM     31  H   UNL     1       1.199   8.928  22.289  0.00  0.00    +0.046 HD
ENDBRANCH  26  28
ENDBRANCH  21  22
ENDBRANCH  15  21
ENDBRANCH   5  15
ENDBRANCH   1   9
BRANCH   2  32
ATOM     32  C   UNL     1       2.883   7.682  17.791  0.00  0.00    +0.127 A 
ATOM     33  C   UNL     1       2.219   6.493  18.029  0.00  0.00    -0.019 A 
ATOM     34  C   UNL     1       2.966   5.325  17.952  0.00  0.00    +0.041 A 
ATOM     35  C   UNL     1       4.339   5.367  17.688  0.00  0.00    -0.019 A 
ATOM     36  C   UNL     1       4.939   6.605  17.475  0.00  0.00    +0.145 A 
ATOM     37  N   UNL     1       4.218   7.764  17.506  0.00  0.00    -0.238 NA
ATOM     38  H   UNL     1       1.161   6.472  18.266  0.00  0.00    +0.065 HD
ATOM     39  H   UNL     1       4.927   4.451  17.671  0.00  0.00    +0.065 HD
BRANCH  34  40
ATOM     40  C   UNL     1       2.300   4.036  18.214  0.00  0.00    +0.247 C 
ATOM     41  O   UNL     1       2.036   3.320  17.256  0.00  0.00    -0.270 OA
ATOM     42  N   UNL     1       2.009   3.712  19.523  0.00  0.00    -0.298 N 
ATOM     43  C   UNL     1       1.370   2.448  19.843  0.00  0.00    +0.015 C 
ATOM     44  C   UNL     1       1.109   2.535  21.338  0.00  0.00    -0.036 C 
ATOM     45  C   UNL     1       2.296   3.352  21.835  0.00  0.00    -0.036 C 
ATOM     46  C   UNL     1       2.497   4.374  20.727  0.00  0.00    +0.015 C 
ATOM     47  H   UNL     1       0.460   2.310  19.249  0.00  0.00    +0.046 HD
ATOM     48  H   UNL     1       2.074   1.641  19.605  0.00  0.00    +0.046 HD
ATOM     49  H   UNL     1       1.034   1.554  21.810  0.00  0.00    +0.028 HD
ATOM     50  H   UNL     1       0.180   3.085  21.528  0.00  0.00    +0.028 HD
ATOM     51  H   UNL     1       3.182   2.709  21.915  0.00  0.00    +0.028 HD
ATOM     52  H   UNL     1       2.117   3.816  22.810  0.00  0.00    +0.028 HD
ATOM     53  H   UNL     1       3.541   4.674  20.612  0.00  0.00    +0.046 HD
ATOM     54  H   UNL     1       1.882   5.261  20.898  0.00  0.00    +0.046 HD
ENDBRANCH  34  40
BRANCH  36  55
ATOM     55  C   UNL     1       6.437   6.655  17.204  0.00  0.00    +0.434 C 
ATOM     56  F   UNL     1       6.768   6.065  16.019  0.00  0.00    -0.164 F 
ATOM     57  F   UNL     1       7.160   5.999  18.155  0.00  0.00    -0.164 F 
ATOM     58  F   UNL     1       6.947   7.918  17.147  0.00  0.00    -0.164 F 
ENDBRANCH  36  55
ENDBRANCH   2  32
TORSDOF 9
ENDMDL
MODEL 14
REMARK VINA RESULT:    -7.847      3.657      5.398
REMARK INTER + INTRA:         -12.561
REMARK INTER:                 -11.471
REMARK INTRA:                  -1.090
REMARK UNBOUND:                -1.044
REMARK  Name = 
REMARK  9 active torsions:
REMARK  status: ('A' for Active; 'I' for Inactive)
REMARK    1  A    between atoms: C_1  and  C_2
REMARK    2  A    between atoms: C_2  and  S_3
REMARK    3  A    between atoms: C_2  and  C_10
REMARK    4  A    between atoms: S_3  and  C_4
REMARK    5  A    between atoms: N_8  and  C_9
REMARK    6  A    between atoms: C_14  and  N_15
REMARK    7  A    between atoms: C_16  and  C_18
REMARK    8  A    between atoms: C_20  and  C_21
REMARK    9  A    between atoms: C_29  and  C_30
REMARK                            x       y       z     vdW  Elec       q    Type
REMARK                         _______ _______ _______ _____ _____    ______ ____
ROOT
ATOM      1  N   UNL     1       1.165   8.739  18.644  0.00  0.00    -0.280 N 
ATOM      2  C   UNL     1       2.369   8.860  17.978  0.00  0.00    +0.267 C 
ATOM      3  O   UNL     1       2.856   9.874  17.492  0.00  0.00    -0.268 OA
ATOM      4  H   UNL     1       0.968   7.802  18.986  0.00  0.00    +0.155 HD
ENDROOT
BRANCH   1   9
ATOM      5  C   UNL     1      -0.747  11.313  20.510  0.00  0.00    -0.033 A 
ATOM      6  C   UNL     1      -1.685  11.701  19.546  0.00  0.00    -0.057 A 
ATOM      7  C   UNL     1      -1.683  11.121  18.277  0.00  0.00    -0.060 A 
ATOM      8  C   UNL     1      -0.746  10.139  17.949  0.00  0.00    -0.040 A 
ATOM      9  C   UNL     1       0.199   9.732  18.887  0.00  0.00    +0.034 A 
ATOM     10  C   UNL     1       0.198  10.327  20.158  0.00  0.00    -0.036 A 
ATOM     11  H   UNL     1      -2.431  12.463  19.763  0.00  0.00    +0.062 HD
ATOM     12  H   UNL     1      -2.414  11.438  17.538  0.00  0.00    +0.062 HD
ATOM     13  H   UNL     1      -0.784   9.712  16.952  0.00  0.00    +0.064 HD
ATOM     14  H   UNL     1       0.942  10.021  20.891  0.00  0.00    +0.064 HD
BRANCH   5  15
ATOM     15  C   UNL     1      -0.712  11.920  21.903  0.00  0.00    +0.035 C 
ATOM     16  H   UNL     1       0.349  12.091  22.132  0.00  0.00    +0.046 HD
BRANCH  15  17
ATOM     17  C   UNL     1      -1.185  10.988  23.024  0.00  0.00    -0.049 C 
ATOM     18  H   UNL     1      -1.879  11.459  23.726  0.00  0.00    +0.024 HD
ATOM     19  H   UNL     1      -1.714  10.131  22.591  0.00  0.00    +0.024 HD
ATOM     20  H   UNL     1      -0.336  10.593  23.593  0.00  0.00    +0.024 HD
ENDBRANCH  15  17
BRANCH  15  21
ATOM     21  S   UNL     1      -1.406  13.608  21.953  0.00  0.00    -0.078 S 
BRANCH  21  22
ATOM     22  C   UNL     1      -3.011  13.437  22.561  0.00  0.00    +0.192 A 
ATOM     23  N   UNL     1      -4.026  12.821  22.003  0.00  0.00    -0.123 NA
ATOM     24  N   UNL     1      -5.092  12.884  22.872  0.00  0.00    -0.137 NA
ATOM     25  C   UNL     1      -4.692  13.537  23.939  0.00  0.00    +0.120 A 
ATOM     26  N   UNL     1      -3.397  13.929  23.776  0.00  0.00    -0.312 N 
ATOM     27  H   UNL     1      -5.287  13.748  24.818  0.00  0.00    +0.105 HD
BRANCH  26  28
ATOM     28  C   UNL     1      -2.625  14.692  24.717  0.00  0.00    +0.015 C 
ATOM     29  H   UNL     1      -1.815  15.205  24.191  0.00  0.00    +0.046 HD
ATOM     30  H   UNL     1      -2.198  14.009  25.456  0.00  0.00    +0.046 HD
ATOM     31  H   UNL     1      -3.276  15.425  25.197  0.00  0.00    +0.046 HD
ENDBRANCH  26  28
ENDBRANCH  21  22
ENDBRANCH  15  21
ENDBRANCH   5  15
ENDBRANCH   1   9
BRANCH   2  32
ATOM     32  C   UNL     1       3.117   7.562  17.891  0.00  0.00    +0.127 A 
ATOM     33  C   UNL     1       2.462   6.366  18.118  0.00  0.00    -0.019 A 
ATOM     34  C   UNL     1       3.211   5.203  17.994  0.00  0.00    +0.041 A 
ATOM     35  C   UNL     1       4.576   5.255  17.696  0.00  0.00    -0.019 A 
ATOM     36  C   UNL     1       5.167   6.500  17.497  0.00  0.00    +0.145 A 
ATOM     37  N   UNL     1       4.444   7.656  17.573  0.00  0.00    -0.238 NA
ATOM     38  H   UNL     1       1.411   6.335  18.381  0.00  0.00    +0.065 HD
ATOM     39  H   UNL     1       5.166   4.342  17.643  0.00  0.00    +0.065 HD
BRANCH  34  40
ATOM     40  C   UNL     1       2.555   3.905  18.243  0.00  0.00    +0.247 C 
ATOM     41  O   UNL     1       2.394   3.151  17.291  0.00  0.00    -0.270 OA
ATOM     42  N   UNL     1       2.158   3.617  19.532  0.00  0.00    -0.298 N 
ATOM     43  C   UNL     1       1.523   2.348  19.840  0.00  0.00    +0.015 C 
ATOM     44  C   UNL     1       1.129   2.478  21.302  0.00  0.00    -0.036 C 
ATOM     45  C   UNL     1       2.247   3.343  21.871  0.00  0.00    -0.036 C 
ATOM     46  C   UNL     1       2.521   4.333  20.750  0.00  0.00    +0.015 C 
ATOM     47  H   UNL     1       0.673   2.166  19.174  0.00  0.00    +0.046 HD
ATOM     48  H   UNL     1       2.264   1.553  19.694  0.00  0.00    +0.046 HD
ATOM     49  H   UNL     1       1.036   1.512  21.801  0.00  0.00    +0.028 HD
ATOM     50  H   UNL     1       0.174   3.009  21.390  0.00  0.00    +0.028 HD
ATOM     51  H   UNL     1       3.138   2.728  22.052  0.00  0.00    +0.028 HD
ATOM     52  H   UNL     1       1.972   3.834  22.810  0.00  0.00    +0.028 HD
ATOM     53  H   UNL     1       3.564   4.657  20.716  0.00  0.00    +0.046 HD
ATOM     54  H   UNL     1       1.872   5.208  20.835  0.00  0.00    +0.046 HD
ENDBRANCH  34  40
BRANCH  36  55
ATOM     55  C   UNL     1       6.658   6.561  17.189  0.00  0.00    +0.434 C 
ATOM     56  F   UNL     1       7.408   5.934  18.140  0.00  0.00    -0.164 F 
ATOM     57  F   UNL     1       7.126   7.841  17.137  0.00  0.00    -0.164 F 
ATOM     58  F   UNL     1       7.001   5.986  16.002  0.00  0.00    -0.164 F 
ENDBRANCH  36  55
ENDBRANCH   2  32
TORSDOF 9
ENDMDL
MODEL 15
REMARK VINA RESULT:    -7.571      4.237     10.136
REMARK INTER + INTRA:         -12.156
REMARK INTER:                 -11.401
REMARK INTRA:                  -0.755
REMARK UNBOUND:                -1.044
REMARK  Name = 
REMARK  9 active torsions:
REMARK  status: ('A' for Active; 'I' for Inactive)
REMARK    1  A    between atoms: C_1  and  C_2
REMARK    2  A    between atoms: C_2  and  S_3
REMARK    3  A    between atoms: C_2  and  C_10
REMARK    4  A    between atoms: S_3  and  C_4
REMARK    5  A    between atoms: N_8  and  C_9
REMARK    6  A    between atoms: C_14  and  N_15
REMARK    7  A    between atoms: C_16  and  C_18
REMARK    8  A    between atoms: C_20  and  C_21
REMARK    9  A    between atoms: C_29  and  C_30
REMARK                            x       y       z     vdW  Elec       q    Type
REMARK                         _______ _______ _______ _____ _____    ______ ____
ROOT
ATOM      1  N   UNL     1       1.081   8.162  20.109  0.00  0.00    -0.280 N 
ATOM      2  C   UNL     1       0.948   9.019  21.184  0.00  0.00    +0.267 C 
ATOM      3  O   UNL     1       1.466   8.918  22.290  0.00  0.00    -0.268 OA
ATOM      4  H   UNL     1       0.577   8.453  19.276  0.00  0.00    +0.155 HD
ENDROOT
BRANCH   1   9
ATOM      5  C   UNL     1       3.523   5.668  18.852  0.00  0.00    -0.033 A 
ATOM      6  C   UNL     1       3.302   4.607  19.738  0.00  0.00    -0.057 A 
ATOM      7  C   UNL     1       2.354   4.715  20.756  0.00  0.00    -0.060 A 
ATOM      8  C   UNL     1       1.606   5.884  20.906  0.00  0.00    -0.040 A 
ATOM      9  C   UNL     1       1.803   6.957  20.039  0.00  0.00    +0.034 A 
ATOM     10  C   UNL     1       2.765   6.844  19.024  0.00  0.00    -0.036 A 
ATOM     11  H   UNL     1       3.865   3.679  19.655  0.00  0.00    +0.062 HD
ATOM     12  H   UNL     1       2.199   3.884  21.440  0.00  0.00    +0.062 HD
ATOM     13  H   UNL     1       0.876   5.924  21.708  0.00  0.00    +0.064 HD
ATOM     14  H   UNL     1       2.931   7.684  18.351  0.00  0.00    +0.064 HD
BRANCH   5  15
ATOM     15  C   UNL     1       4.546   5.593  17.731  0.00  0.00    +0.035 C 
ATOM     16  H   UNL     1       5.528   5.533  18.221  0.00  0.00    +0.046 HD
BRANCH  15  17
ATOM     17  C   UNL     1       4.645   6.853  16.864  0.00  0.00    -0.049 C 
ATOM     18  H   UNL     1       3.677   7.300  16.624  0.00  0.00    +0.024 HD
ATOM     19  H   UNL     1       5.220   7.621  17.395  0.00  0.00    +0.024 HD
ATOM     20  H   UNL     1       5.170   6.645  15.925  0.00  0.00    +0.024 HD
ENDBRANCH  15  17
BRANCH  15  21
ATOM     21  S   UNL     1       4.466   4.020  16.808  0.00  0.00    -0.078 S 
BRANCH  21  22
ATOM     22  C   UNL     1       5.560   4.196  15.487  0.00  0.00    +0.192 A 
ATOM     23  N   UNL     1       5.297   4.126  14.204  0.00  0.00    -0.123 NA
ATOM     24  N   UNL     1       6.460   4.389  13.515  0.00  0.00    -0.137 NA
ATOM     25  C   UNL     1       7.401   4.614  14.404  0.00  0.00    +0.120 A 
ATOM     26  N   UNL     1       6.887   4.476  15.658  0.00  0.00    -0.312 N 
ATOM     27  H   UNL     1       8.432   4.865  14.191  0.00  0.00    +0.105 HD
BRANCH  26  28
ATOM     28  C   UNL     1       7.618   4.616  16.887  0.00  0.00    +0.015 C 
ATOM     29  H   UNL     1       6.928   4.877  17.694  0.00  0.00    +0.046 HD
ATOM     30  H   UNL     1       8.352   5.417  16.769  0.00  0.00    +0.046 HD
ATOM     31  H   UNL     1       8.112   3.669  17.115  0.00  0.00    +0.046 HD
ENDBRANCH  26  28
ENDBRANCH  21  22
ENDBRANCH  15  21
ENDBRANCH   5  15
ENDBRANCH   1   9
BRANCH   2  32
ATOM     32  C   UNL     1       0.064  10.194  20.883  0.00  0.00    +0.127 A 
ATOM     33  C   UNL     1       0.006  11.262  21.758  0.00  0.00    -0.019 A 
ATOM     34  C   UNL     1      -0.813  12.326  21.403  0.00  0.00    +0.041 A 
ATOM     35  C   UNL     1      -1.574  12.287  20.231  0.00  0.00    -0.019 A 
ATOM     36  C   UNL     1      -1.473  11.168  19.409  0.00  0.00    +0.145 A 
ATOM     37  N   UNL     1      -0.644  10.126  19.715  0.00  0.00    -0.238 NA
ATOM     38  H   UNL     1       0.573  11.271  22.682  0.00  0.00    +0.065 HD
ATOM     39  H   UNL     1      -2.246  13.105  19.980  0.00  0.00    +0.065 HD
BRANCH  34  40
ATOM     40  C   UNL     1      -0.916  13.480  22.316  0.00  0.00    +0.247 C 
ATOM     41  O   UNL     1      -0.074  14.364  22.221  0.00  0.00    -0.270 OA
ATOM     42  N   UNL     1      -1.952  13.494  23.227  0.00  0.00    -0.298 N 
ATOM     43  C   UNL     1      -2.114  14.613  24.139  0.00  0.00    +0.015 C 
ATOM     44  C   UNL     1      -3.260  14.189  25.042  0.00  0.00    -0.036 C 
ATOM     45  C   UNL     1      -4.136  13.368  24.103  0.00  0.00    -0.036 C 
ATOM     46  C   UNL     1      -3.122  12.624  23.249  0.00  0.00    +0.015 C 
ATOM     47  H   UNL     1      -1.183  14.811  24.680  0.00  0.00    +0.046 HD
ATOM     48  H   UNL     1      -2.376  15.498  23.547  0.00  0.00    +0.046 HD
ATOM     49  H   UNL     1      -3.783  15.038  25.486  0.00  0.00    +0.028 HD
ATOM     50  H   UNL     1      -2.888  13.547  25.850  0.00  0.00    +0.028 HD
ATOM     51  H   UNL     1      -4.735  14.038  23.472  0.00  0.00    +0.028 HD
ATOM     52  H   UNL     1      -4.817  12.694  24.632  0.00  0.00    +0.028 HD
ATOM     53  H   UNL     1      -3.483  12.428  22.236  0.00  0.00    +0.046 HD
ATOM     54  H   UNL     1      -2.833  11.680  23.719  0.00  0.00    +0.046 HD
ENDBRANCH  34  40
BRANCH  36  55
ATOM     55  C   UNL     1      -2.314  11.114  18.139  0.00  0.00    +0.434 C 
ATOM     56  F   UNL     1      -1.783  11.871  17.136  0.00  0.00    -0.164 F 
ATOM     57  F   UNL     1      -3.576  11.592  18.331  0.00  0.00    -0.164 F 
ATOM     58  F   UNL     1      -2.459   9.860  17.625  0.00  0.00    -0.164 F 
ENDBRANCH  36  55
ENDBRANCH   2  32
TORSDOF 9
ENDMDL
MODEL 16
REMARK VINA RESULT:    -7.462      3.239      4.668
REMARK INTER + INTRA:         -11.996
REMARK INTER:                 -11.049
REMARK INTRA:                  -0.947
REMARK UNBOUND:                -1.044
REMARK  Name = 
REMARK  9 active torsions:
REMARK  status: ('A' for Active; 'I' for Inactive)
REMARK    1  A    between atoms: C_1  and  C_2
REMARK    2  A    between atoms: C_2  and  S_3
REMARK    3  A    between atoms: C_2  and  C_10
REMARK    4  A    between atoms: S_3  and  C_4
REMARK    5  A    between atoms: N_8  and  C_9
REMARK    6  A    between atoms: C_14  and  N_15
REMARK    7  A    between atoms: C_16  and  C_18
REMARK    8  A    between atoms: C_20  and  C_21
REMARK    9  A    between atoms: C_29  and  C_30
REMARK                            x       y       z     vdW  Elec       q    Type
REMARK                         _______ _______ _______ _____ _____    ______ ____
ROOT
ATOM      1  N   UNL     1       2.561  10.249  18.183  0.00  0.00    -0.280 N 
ATOM      2  C   UNL     1       1.819   9.147  17.806  0.00  0.00    +0.267 C 
ATOM      3  O   UNL     1       0.636   9.115  17.487  0.00  0.00    -0.268 OA
ATOM      4  H   UNL     1       3.537  10.047  18.385  0.00  0.00    +0.155 HD
ENDROOT
BRANCH   1   9
ATOM      5  C   UNL     1       0.298  13.082  18.967  0.00  0.00    -0.033 A 
ATOM      6  C   UNL     1       1.113  14.173  18.641  0.00  0.00    -0.057 A 
ATOM      7  C   UNL     1       2.412  13.977  18.171  0.00  0.00    -0.060 A 
ATOM      8  C   UNL     1       2.920  12.686  18.014  0.00  0.00    -0.040 A 
ATOM      9  C   UNL     1       2.134  11.580  18.328  0.00  0.00    +0.034 A 
ATOM     10  C   UNL     1       0.832  11.786  18.811  0.00  0.00    -0.036 A 
ATOM     11  H   UNL     1       0.754  15.194  18.751  0.00  0.00    +0.062 HD
ATOM     12  H   UNL     1       3.034  14.835  17.928  0.00  0.00    +0.062 HD
ATOM     13  H   UNL     1       3.934  12.579  17.640  0.00  0.00    +0.064 HD
ATOM     14  H   UNL     1       0.217  10.926  19.070  0.00  0.00    +0.064 HD
BRANCH   5  15
ATOM     15  C   UNL     1      -1.120  13.251  19.485  0.00  0.00    +0.035 C 
ATOM     16  H   UNL     1      -1.664  13.801  18.704  0.00  0.00    +0.046 HD
BRANCH  15  17
ATOM     17  C   UNL     1      -1.252  14.144  20.724  0.00  0.00    -0.049 C 
ATOM     18  H   UNL     1      -1.023  13.632  21.663  0.00  0.00    +0.024 HD
ATOM     19  H   UNL     1      -0.551  14.983  20.648  0.00  0.00    +0.024 HD
ATOM     20  H   UNL     1      -2.259  14.567  20.799  0.00  0.00    +0.024 HD
ENDBRANCH  15  17
BRANCH  15  21
ATOM     21  S   UNL     1      -2.033  11.672  19.566  0.00  0.00    -0.078 S 
BRANCH  21  22
ATOM     22  C   UNL     1      -2.802  11.495  18.033  0.00  0.00    +0.192 A 
ATOM     23  N   UNL     1      -2.252  11.186  16.883  0.00  0.00    -0.123 NA
ATOM     24  N   UNL     1      -3.253  11.096  15.942  0.00  0.00    -0.137 NA
ATOM     25  C   UNL     1      -4.389  11.353  16.550  0.00  0.00    +0.120 A 
ATOM     26  N   UNL     1      -4.150  11.637  17.862  0.00  0.00    -0.312 N 
ATOM     27  H   UNL     1      -5.371  11.351  16.095  0.00  0.00    +0.105 HD
BRANCH  26  28
ATOM     28  C   UNL     1      -5.141  11.996  18.838  0.00  0.00    +0.015 C 
ATOM     29  H   UNL     1      -5.685  11.101  19.150  0.00  0.00    +0.046 HD
ATOM     30  H   UNL     1      -5.841  12.702  18.384  0.00  0.00    +0.046 HD
ATOM     31  H   UNL     1      -4.643  12.445  19.700  0.00  0.00    +0.046 HD
ENDBRANCH  26  28
ENDBRANCH  21  22
ENDBRANCH  15  21
ENDBRANCH   5  15
ENDBRANCH   1   9
BRANCH   2  32
ATOM     32  C   UNL     1       2.623   7.880  17.797  0.00  0.00    +0.127 A 
ATOM     33  C   UNL     1       2.012   6.666  18.049  0.00  0.00    -0.019 A 
ATOM     34  C   UNL     1       2.812   5.533  17.998  0.00  0.00    +0.041 A 
ATOM     35  C   UNL     1       4.184   5.633  17.747  0.00  0.00    -0.019 A 
ATOM     36  C   UNL     1       4.729   6.893  17.519  0.00  0.00    +0.145 A 
ATOM     37  N   UNL     1       3.956   8.019  17.523  0.00  0.00    -0.238 NA
ATOM     38  H   UNL     1       0.953   6.600  18.276  0.00  0.00    +0.065 HD
ATOM     39  H   UNL     1       4.813   4.745  17.751  0.00  0.00    +0.065 HD
BRANCH  34  40
ATOM     40  C   UNL     1       2.203   4.218  18.275  0.00  0.00    +0.247 C 
ATOM     41  O   UNL     1       1.919   3.504  17.321  0.00  0.00    -0.270 OA
ATOM     42  N   UNL     1       1.984   3.871  19.592  0.00  0.00    -0.298 N 
ATOM     43  C   UNL     1       1.403   2.583  19.926  0.00  0.00    +0.015 C 
ATOM     44  C   UNL     1       1.208   2.645  21.432  0.00  0.00    -0.036 C 
ATOM     45  C   UNL     1       2.388   3.497  21.884  0.00  0.00    -0.036 C 
ATOM     46  C   UNL     1       2.504   4.538  20.780  0.00  0.00    +0.015 C 
ATOM     47  H   UNL     1       0.472   2.420  19.373  0.00  0.00    +0.046 HD
ATOM     48  H   UNL     1       2.122   1.803  19.647  0.00  0.00    +0.046 HD
ATOM     49  H   UNL     1       1.188   1.657  21.896  0.00  0.00    +0.028 HD
ATOM     50  H   UNL     1       0.271   3.161  21.671  0.00  0.00    +0.028 HD
ATOM     51  H   UNL     1       3.299   2.885  21.916  0.00  0.00    +0.028 HD
ATOM     52  H   UNL     1       2.240   3.945  22.872  0.00  0.00    +0.028 HD
ATOM     53  H   UNL     1       3.531   4.875  20.621  0.00  0.00    +0.046 HD
ATOM     54  H   UNL     1       1.868   5.401  20.990  0.00  0.00    +0.046 HD
ENDBRANCH  34  40
BRANCH  36  55
ATOM     55  C   UNL     1       6.226   7.008  17.262  0.00  0.00    +0.434 C 
ATOM     56  F   UNL     1       6.959   6.258  18.135  0.00  0.00    -0.164 F 
ATOM     57  F   UNL     1       6.682   8.285  17.402  0.00  0.00    -0.164 F 
ATOM     58  F   UNL     1       6.605   6.607  16.015  0.00  0.00    -0.164 F 
ENDBRANCH  36  55
ENDBRANCH   2  32
TORSDOF 9
ENDMDL
MODEL 17
REMARK VINA RESULT:    -7.409      3.323      5.089
REMARK INTER + INTRA:         -11.918
REMARK INTER:                 -11.149
REMARK INTRA:                  -0.770
REMARK UNBOUND:                -1.044
REMARK  Name = 
REMARK  9 active torsions:
REMARK  status: ('A' for Active; 'I' for Inactive)
REMARK    1  A    between atoms: C_1  and  C_2
REMARK    2  A    between atoms: C_2  and  S_3
REMARK    3  A    between atoms: C_2  and  C_10
REMARK    4  A    between atoms: S_3  and  C_4
REMARK    5  A    between atoms: N_8  and  C_9
REMARK    6  A    between atoms: C_14  and  N_15
REMARK    7  A    between atoms: C_16  and  C_18
REMARK    8  A    between atoms: C_20  and  C_21
REMARK    9  A    between atoms: C_29  and  C_30
REMARK                            x       y       z     vdW  Elec       q    Type
REMARK                         _______ _______ _______ _____ _____    ______ ____
ROOT
ATOM      1  N   UNL     1       1.564   8.436  19.685  0.00  0.00    -0.280 N 
ATOM      2  C   UNL     1       2.257   8.522  18.493  0.00  0.00    +0.267 C 
ATOM      3  O   UNL     1       2.364   9.498  17.759  0.00  0.00    -0.268 OA
ATOM      4  H   UNL     1       1.628   7.530  20.141  0.00  0.00    +0.155 HD
ENDROOT
BRANCH   1   9
ATOM      5  C   UNL     1      -0.684  11.368  20.024  0.00  0.00    -0.033 A 
ATOM      6  C   UNL     1      -0.770  11.479  21.417  0.00  0.00    -0.057 A 
ATOM      7  C   UNL     1      -0.096  10.582  22.246  0.00  0.00    -0.060 A 
ATOM      8  C   UNL     1       0.682   9.559  21.699  0.00  0.00    -0.040 A 
ATOM      9  C   UNL     1       0.789   9.425  20.317  0.00  0.00    +0.034 A 
ATOM     10  C   UNL     1       0.099  10.324  19.489  0.00  0.00    -0.036 A 
ATOM     11  H   UNL     1      -1.367  12.261  21.882  0.00  0.00    +0.062 HD
ATOM     12  H   UNL     1      -0.179  10.678  23.326  0.00  0.00    +0.062 HD
ATOM     13  H   UNL     1       1.194   8.888  22.380  0.00  0.00    +0.064 HD
ATOM     14  H   UNL     1       0.169  10.215  18.408  0.00  0.00    +0.064 HD
BRANCH   5  15
ATOM     15  C   UNL     1      -1.404  12.321  19.085  0.00  0.00    +0.035 C 
ATOM     16  H   UNL     1      -2.397  12.486  19.524  0.00  0.00    +0.046 HD
BRANCH  15  17
ATOM     17  C   UNL     1      -1.707  11.750  17.695  0.00  0.00    -0.049 C 
ATOM     18  H   UNL     1      -1.242  10.778  17.506  0.00  0.00    +0.024 HD
ATOM     19  H   UNL     1      -2.788  11.604  17.586  0.00  0.00    +0.024 HD
ATOM     20  H   UNL     1      -1.391  12.441  16.907  0.00  0.00    +0.024 HD
ENDBRANCH  15  17
BRANCH  15  21
ATOM     21  S   UNL     1      -0.682  13.997  19.093  0.00  0.00    -0.078 S 
BRANCH  21  22
ATOM     22  C   UNL     1       1.027  13.772  19.062  0.00  0.00    +0.192 A 
ATOM     23  N   UNL     1       1.769  13.345  18.068  0.00  0.00    -0.123 NA
ATOM     24  N   UNL     1       3.085  13.382  18.471  0.00  0.00    -0.137 NA
ATOM     25  C   UNL     1       3.106  13.833  19.705  0.00  0.00    +0.120 A 
ATOM     26  N   UNL     1       1.831  14.066  20.127  0.00  0.00    -0.312 N 
ATOM     27  H   UNL     1       3.989  13.995  20.310  0.00  0.00    +0.105 HD
BRANCH  26  28
ATOM     28  C   UNL     1       1.451  14.536  21.430  0.00  0.00    +0.015 C 
ATOM     29  H   UNL     1       1.190  15.596  21.373  0.00  0.00    +0.046 HD
ATOM     30  H   UNL     1       2.297  14.410  22.110  0.00  0.00    +0.046 HD
ATOM     31  H   UNL     1       0.588  13.962  21.776  0.00  0.00    +0.046 HD
ENDBRANCH  26  28
ENDBRANCH  21  22
ENDBRANCH  15  21
ENDBRANCH   5  15
ENDBRANCH   1   9
BRANCH   2  32
ATOM     32  C   UNL     1       2.942   7.239  18.126  0.00  0.00    +0.127 A 
ATOM     33  C   UNL     1       2.348   6.026  18.416  0.00  0.00    -0.019 A 
ATOM     34  C   UNL     1       3.027   4.879  18.023  0.00  0.00    +0.041 A 
ATOM     35  C   UNL     1       4.277   4.962  17.403  0.00  0.00    -0.019 A 
ATOM     36  C   UNL     1       4.817   6.221  17.158  0.00  0.00    +0.145 A 
ATOM     37  N   UNL     1       4.151   7.364  17.498  0.00  0.00    -0.238 NA
ATOM     38  H   UNL     1       1.394   5.969  18.928  0.00  0.00    +0.065 HD
ATOM     39  H   UNL     1       4.823   4.059  17.137  0.00  0.00    +0.065 HD
BRANCH  34  40
ATOM     40  C   UNL     1       2.435   3.563  18.328  0.00  0.00    +0.247 C 
ATOM     41  O   UNL     1       2.292   2.770  17.405  0.00  0.00    -0.270 OA
ATOM     42  N   UNL     1       2.073   3.302  19.633  0.00  0.00    -0.298 N 
ATOM     43  C   UNL     1       1.502   2.016  19.994  0.00  0.00    +0.015 C 
ATOM     44  C   UNL     1       1.127   2.179  21.459  0.00  0.00    -0.036 C 
ATOM     45  C   UNL     1       2.215   3.112  21.978  0.00  0.00    -0.036 C 
ATOM     46  C   UNL     1       2.424   4.074  20.819  0.00  0.00    +0.015 C 
ATOM     47  H   UNL     1       0.650   1.774  19.351  0.00  0.00    +0.046 HD
ATOM     48  H   UNL     1       2.276   1.251  19.861  0.00  0.00    +0.046 HD
ATOM     49  H   UNL     1       1.087   1.227  21.991  0.00  0.00    +0.028 HD
ATOM     50  H   UNL     1       0.151   2.669  21.547  0.00  0.00    +0.028 HD
ATOM     51  H   UNL     1       3.135   2.544  22.162  0.00  0.00    +0.028 HD
ATOM     52  H   UNL     1       1.934   3.622  22.905  0.00  0.00    +0.028 HD
ATOM     53  H   UNL     1       3.450   4.444  20.755  0.00  0.00    +0.046 HD
ATOM     54  H   UNL     1       1.737   4.922  20.887  0.00  0.00    +0.046 HD
ENDBRANCH  34  40
BRANCH  36  55
ATOM     55  C   UNL     1       6.187   6.315  16.498  0.00  0.00    +0.434 C 
ATOM     56  F   UNL     1       6.781   7.524  16.709  0.00  0.00    -0.164 F 
ATOM     57  F   UNL     1       6.122   6.168  15.144  0.00  0.00    -0.164 F 
ATOM     58  F   UNL     1       7.077   5.380  16.936  0.00  0.00    -0.164 F 
ENDBRANCH  36  55
ENDBRANCH   2  32
TORSDOF 9
ENDMDL
MODEL 18
REMARK VINA RESULT:    -7.347      2.530      3.483
REMARK INTER + INTRA:         -11.828
REMARK INTER:                 -11.259
REMARK INTRA:                  -0.569
REMARK UNBOUND:                -1.044
REMARK  Name = 
REMARK  9 active torsions:
REMARK  status: ('A' for Active; 'I' for Inactive)
REMARK    1  A    between atoms: C_1  and  C_2
REMARK    2  A    between atoms: C_2  and  S_3
REMARK    3  A    between atoms: C_2  and  C_10
REMARK    4  A    between atoms: S_3  and  C_4
REMARK    5  A    between atoms: N_8  and  C_9
REMARK    6  A    between atoms: C_14  and  N_15
REMARK    7  A    between atoms: C_16  and  C_18
REMARK    8  A    between atoms: C_20  and  C_21
REMARK    9  A    between atoms: C_29  and  C_30
REMARK                            x       y       z     vdW  Elec       q    Type
REMARK                         _______ _______ _______ _____ _____    ______ ____
ROOT
ATOM      1  N   UNL     1       2.488   8.515  18.022  0.00  0.00    -0.280 N 
ATOM      2  C   UNL     1       2.506   7.455  18.908  0.00  0.00    +0.267 C 
ATOM      3  O   UNL     1       2.009   7.408  20.027  0.00  0.00    -0.268 OA
ATOM      4  H   UNL     1       2.947   8.326  17.134  0.00  0.00    +0.155 HD
ENDROOT
BRANCH   1   9
ATOM      5  C   UNL     1      -0.020  11.099  18.912  0.00  0.00    -0.033 A 
ATOM      6  C   UNL     1       0.678  12.270  18.594  0.00  0.00    -0.057 A 
ATOM      7  C   UNL     1       1.980  12.210  18.096  0.00  0.00    -0.060 A 
ATOM      8  C   UNL     1       2.607  10.978  17.900  0.00  0.00    -0.040 A 
ATOM      9  C   UNL     1       1.937   9.796  18.205  0.00  0.00    +0.034 A 
ATOM     10  C   UNL     1       0.633   9.865  18.717  0.00  0.00    -0.036 A 
ATOM     11  H   UNL     1       0.225  13.250  18.734  0.00  0.00    +0.062 HD
ATOM     12  H   UNL     1       2.511  13.129  17.860  0.00  0.00    +0.062 HD
ATOM     13  H   UNL     1       3.618  10.977  17.505  0.00  0.00    +0.064 HD
ATOM     14  H   UNL     1       0.109   8.944  18.968  0.00  0.00    +0.064 HD
BRANCH   5  15
ATOM     15  C   UNL     1      -1.437  11.120  19.460  0.00  0.00    +0.035 C 
ATOM     16  H   UNL     1      -1.705  10.070  19.645  0.00  0.00    +0.046 HD
BRANCH  15  17
ATOM     17  C   UNL     1      -2.503  11.602  18.470  0.00  0.00    -0.049 C 
ATOM     18  H   UNL     1      -2.115  11.808  17.469  0.00  0.00    +0.024 HD
ATOM     19  H   UNL     1      -3.272  10.830  18.353  0.00  0.00    +0.024 HD
ATOM     20  H   UNL     1      -3.002  12.506  18.838  0.00  0.00    +0.024 HD
ENDBRANCH  15  17
BRANCH  15  21
ATOM     21  S   UNL     1      -1.537  11.855  21.127  0.00  0.00    -0.078 S 
BRANCH  21  22
ATOM     22  C   UNL     1      -2.893  12.920  21.090  0.00  0.00    +0.192 A 
ATOM     23  N   UNL     1      -4.150  12.638  21.335  0.00  0.00    -0.123 NA
ATOM     24  N   UNL     1      -4.874  13.806  21.247  0.00  0.00    -0.137 NA
ATOM     25  C   UNL     1      -4.032  14.769  20.951  0.00  0.00    +0.120 A 
ATOM     26  N   UNL     1      -2.778  14.254  20.815  0.00  0.00    -0.312 N 
ATOM     27  H   UNL     1      -4.278  15.816  20.824  0.00  0.00    +0.105 HD
BRANCH  26  28
ATOM     28  C   UNL     1      -1.597  14.995  20.466  0.00  0.00    +0.015 C 
ATOM     29  H   UNL     1      -1.504  15.863  21.125  0.00  0.00    +0.046 HD
ATOM     30  H   UNL     1      -1.691  15.337  19.432  0.00  0.00    +0.046 HD
ATOM     31  H   UNL     1      -0.725  14.348  20.582  0.00  0.00    +0.046 HD
ENDBRANCH  26  28
ENDBRANCH  21  22
ENDBRANCH  15  21
ENDBRANCH   5  15
ENDBRANCH   1   9
BRANCH   2  32
ATOM     32  C   UNL     1       3.221   6.255  18.363  0.00  0.00    +0.127 A 
ATOM     33  C   UNL     1       4.401   6.408  17.660  0.00  0.00    -0.019 A 
ATOM     34  C   UNL     1       5.022   5.251  17.207  0.00  0.00    +0.041 A 
ATOM     35  C   UNL     1       4.446   3.995  17.421  0.00  0.00    -0.019 A 
ATOM     36  C   UNL     1       3.247   3.924  18.124  0.00  0.00    +0.145 A 
ATOM     37  N   UNL     1       2.637   5.044  18.615  0.00  0.00    -0.238 NA
ATOM     38  H   UNL     1       4.825   7.387  17.469  0.00  0.00    +0.065 HD
ATOM     39  H   UNL     1       4.915   3.097  17.026  0.00  0.00    +0.065 HD
BRANCH  34  40
ATOM     40  C   UNL     1       6.276   5.371  16.440  0.00  0.00    +0.247 C 
ATOM     41  O   UNL     1       7.263   5.809  17.017  0.00  0.00    -0.270 OA
ATOM     42  N   UNL     1       6.263   4.986  15.115  0.00  0.00    -0.298 N 
ATOM     43  C   UNL     1       7.473   5.065  14.315  0.00  0.00    +0.015 C 
ATOM     44  C   UNL     1       7.014   4.687  12.915  0.00  0.00    -0.036 C 
ATOM     45  C   UNL     1       5.912   3.671  13.191  0.00  0.00    -0.036 C 
ATOM     46  C   UNL     1       5.221   4.237  14.422  0.00  0.00    +0.015 C 
ATOM     47  H   UNL     1       7.914   6.065  14.373  0.00  0.00    +0.046 HD
ATOM     48  H   UNL     1       8.191   4.337  14.711  0.00  0.00    +0.046 HD
ATOM     49  H   UNL     1       7.823   4.290  12.300  0.00  0.00    +0.028 HD
ATOM     50  H   UNL     1       6.587   5.561  12.409  0.00  0.00    +0.028 HD
ATOM     51  H   UNL     1       6.357   2.696  13.427  0.00  0.00    +0.028 HD
ATOM     52  H   UNL     1       5.229   3.541  12.346  0.00  0.00    +0.028 HD
ATOM     53  H   UNL     1       4.803   3.461  15.067  0.00  0.00    +0.046 HD
ATOM     54  H   UNL     1       4.432   4.937  14.139  0.00  0.00    +0.046 HD
ENDBRANCH  34  40
BRANCH  36  55
ATOM     55  C   UNL     1       2.607   2.559  18.344  0.00  0.00    +0.434 C 
ATOM     56  F   UNL     1       3.260   1.568  17.672  0.00  0.00    -0.164 F 
ATOM     57  F   UNL     1       1.317   2.512  17.906  0.00  0.00    -0.164 F 
ATOM     58  F   UNL     1       2.575   2.167  19.650  0.00  0.00    -0.164 F 
ENDBRANCH  36  55
ENDBRANCH   2  32
TORSDOF 9
ENDMDL
MODEL 19
REMARK VINA RESULT:    -7.338      3.463      5.237
REMARK INTER + INTRA:         -11.813
REMARK INTER:                 -10.840
REMARK INTRA:                  -0.974
REMARK UNBOUND:                -1.044
REMARK  Name = 
REMARK  9 active torsions:
REMARK  status: ('A' for Active; 'I' for Inactive)
REMARK    1  A    between atoms: C_1  and  C_2
REMARK    2  A    between atoms: C_2  and  S_3
REMARK    3  A    between atoms: C_2  and  C_10
REMARK    4  A    between atoms: S_3  and  C_4
REMARK    5  A    between atoms: N_8  and  C_9
REMARK    6  A    between atoms: C_14  and  N_15
REMARK    7  A    between atoms: C_16  and  C_18
REMARK    8  A    between atoms: C_20  and  C_21
REMARK    9  A    between atoms: C_29  and  C_30
REMARK                            x       y       z     vdW  Elec       q    Type
REMARK                         _______ _______ _______ _____ _____    ______ ____
ROOT
ATOM      1  N   UNL     1       0.461   9.491  18.741  0.00  0.00    -0.280 N 
ATOM      2  C   UNL     1       1.742   9.544  18.227  0.00  0.00    +0.267 C 
ATOM      3  O   UNL     1       2.325  10.520  17.771  0.00  0.00    -0.268 OA
ATOM      4  H   UNL     1       0.186   8.576  19.088  0.00  0.00    +0.155 HD
ENDROOT
BRANCH   1   9
ATOM      5  C   UNL     1      -0.955  12.819  19.568  0.00  0.00    -0.033 A 
ATOM      6  C   UNL     1      -2.268  12.674  19.104  0.00  0.00    -0.057 A 
ATOM      7  C   UNL     1      -2.685  11.483  18.508  0.00  0.00    -0.060 A 
ATOM      8  C   UNL     1      -1.800  10.412  18.371  0.00  0.00    -0.040 A 
ATOM      9  C   UNL     1      -0.488  10.525  18.825  0.00  0.00    +0.034 A 
ATOM     10  C   UNL     1      -0.073  11.730  19.412  0.00  0.00    -0.036 A 
ATOM     11  H   UNL     1      -2.987  13.485  19.192  0.00  0.00    +0.062 HD
ATOM     12  H   UNL     1      -3.706  11.389  18.147  0.00  0.00    +0.062 HD
ATOM     13  H   UNL     1      -2.168   9.502  17.907  0.00  0.00    +0.064 HD
ATOM     14  H   UNL     1       0.955  11.828  19.758  0.00  0.00    +0.064 HD
BRANCH   5  15
ATOM     15  C   UNL     1      -0.459  14.098  20.220  0.00  0.00    +0.035 C 
ATOM     16  H   UNL     1      -1.323  14.777  20.252  0.00  0.00    +0.046 HD
BRANCH  15  17
ATOM     17  C   UNL     1       0.585  14.872  19.407  0.00  0.00    -0.049 C 
ATOM     18  H   UNL     1       1.508  14.313  19.227  0.00  0.00    +0.024 HD
ATOM     19  H   UNL     1       0.174  15.119  18.421  0.00  0.00    +0.024 HD
ATOM     20  H   UNL     1       0.845  15.817  19.896  0.00  0.00    +0.024 HD
ENDBRANCH  15  17
BRANCH  15  21
ATOM     21  S   UNL     1      -0.058  13.880  21.987  0.00  0.00    -0.078 S 
BRANCH  21  22
ATOM     22  C   UNL     1      -1.537  13.427  22.750  0.00  0.00    +0.192 A 
ATOM     23  N   UNL     1      -2.548  14.197  23.077  0.00  0.00    -0.123 NA
ATOM     24  N   UNL     1      -3.537  13.399  23.606  0.00  0.00    -0.137 NA
ATOM     25  C   UNL     1      -3.098  12.162  23.586  0.00  0.00    +0.120 A 
ATOM     26  N   UNL     1      -1.832  12.135  23.081  0.00  0.00    -0.312 N 
ATOM     27  H   UNL     1      -3.640  11.287  23.921  0.00  0.00    +0.105 HD
BRANCH  26  28
ATOM     28  C   UNL     1      -1.012  10.965  22.931  0.00  0.00    +0.015 C 
ATOM     29  H   UNL     1       0.039  11.239  23.053  0.00  0.00    +0.046 HD
ATOM     30  H   UNL     1      -1.163  10.556  21.929  0.00  0.00    +0.046 HD
ATOM     31  H   UNL     1      -1.293  10.235  23.693  0.00  0.00    +0.046 HD
ENDBRANCH  26  28
ENDBRANCH  21  22
ENDBRANCH  15  21
ENDBRANCH   5  15
ENDBRANCH   1   9
BRANCH   2  32
ATOM     32  C   UNL     1       2.444   8.219  18.281  0.00  0.00    +0.127 A 
ATOM     33  C   UNL     1       2.080   7.277  19.224  0.00  0.00    -0.019 A 
ATOM     34  C   UNL     1       2.754   6.063  19.198  0.00  0.00    +0.041 A 
ATOM     35  C   UNL     1       3.784   5.833  18.281  0.00  0.00    -0.019 A 
ATOM     36  C   UNL     1       4.103   6.837  17.372  0.00  0.00    +0.145 A 
ATOM     37  N   UNL     1       3.428   8.025  17.351  0.00  0.00    -0.238 NA
ATOM     38  H   UNL     1       1.303   7.475  19.954  0.00  0.00    +0.065 HD
ATOM     39  H   UNL     1       4.337   4.896  18.295  0.00  0.00    +0.065 HD
BRANCH  34  40
ATOM     40  C   UNL     1       2.407   5.035  20.198  0.00  0.00    +0.247 C 
ATOM     41  O   UNL     1       2.517   5.326  21.383  0.00  0.00    -0.270 OA
ATOM     42  N   UNL     1       1.983   3.805  19.742  0.00  0.00    -0.298 N 
ATOM     43  C   UNL     1       1.611   2.761  20.680  0.00  0.00    +0.015 C 
ATOM     44  C   UNL     1       1.340   1.552  19.798  0.00  0.00    -0.036 C 
ATOM     45  C   UNL     1       0.767   2.185  18.536  0.00  0.00    -0.036 C 
ATOM     46  C   UNL     1       1.593   3.453  18.381  0.00  0.00    +0.015 C 
ATOM     47  H   UNL     1       2.407   2.595  21.413  0.00  0.00    +0.046 HD
ATOM     48  H   UNL     1       0.705   3.084  21.207  0.00  0.00    +0.046 HD
ATOM     49  H   UNL     1       0.663   0.834  20.265  0.00  0.00    +0.028 HD
ATOM     50  H   UNL     1       2.279   1.041  19.558  0.00  0.00    +0.028 HD
ATOM     51  H   UNL     1      -0.288   2.444  18.695  0.00  0.00    +0.028 HD
ATOM     52  H   UNL     1       0.832   1.530  17.661  0.00  0.00    +0.028 HD
ATOM     53  H   UNL     1       1.036   4.267  17.911  0.00  0.00    +0.046 HD
ATOM     54  H   UNL     1       2.503   3.258  17.807  0.00  0.00    +0.046 HD
ENDBRANCH  34  40
BRANCH  36  55
ATOM     55  C   UNL     1       5.236   6.596  16.383  0.00  0.00    +0.434 C 
ATOM     56  F   UNL     1       4.925   7.027  15.126  0.00  0.00    -0.164 F 
ATOM     57  F   UNL     1       5.541   5.274  16.253  0.00  0.00    -0.164 F 
ATOM     58  F   UNL     1       6.401   7.221  16.714  0.00  0.00    -0.164 F 
ENDBRANCH  36  55
ENDBRANCH   2  32
TORSDOF 9
ENDMDL
MODEL 20
REMARK VINA RESULT:    -7.334      2.846      4.071
REMARK INTER + INTRA:         -11.808
REMARK INTER:                 -11.126
REMARK INTRA:                  -0.682
REMARK UNBOUND:                -1.044
REMARK  Name = 
REMARK  9 active torsions:
REMARK  status: ('A' for Active; 'I' for Inactive)
REMARK    1  A    between atoms: C_1  and  C_2
REMARK    2  A    between atoms: C_2  and  S_3
REMARK    3  A    between atoms: C_2  and  C_10
REMARK    4  A    between atoms: S_3  and  C_4
REMARK    5  A    between atoms: N_8  and  C_9
REMARK    6  A    between atoms: C_14  and  N_15
REMARK    7  A    between atoms: C_16  and  C_18
REMARK    8  A    between atoms: C_20  and  C_21
REMARK    9  A    between atoms: C_29  and  C_30
REMARK                            x       y       z     vdW  Elec       q    Type
REMARK                         _______ _______ _______ _____ _____    ______ ____
ROOT
ATOM      1  N   UNL     1       1.127   8.539  19.070  0.00  0.00    -0.280 N 
ATOM      2  C   UNL     1       1.600   7.968  20.236  0.00  0.00    +0.267 C 
ATOM      3  O   UNL     1       1.496   8.402  21.377  0.00  0.00    -0.268 OA
ATOM      4  H   UNL     1       1.308   7.991  18.233  0.00  0.00    +0.155 HD
ENDROOT
BRANCH   1   9
ATOM      5  C   UNL     1       0.215  12.082  19.680  0.00  0.00    -0.033 A 
ATOM      6  C   UNL     1      -0.810  12.260  18.742  0.00  0.00    -0.057 A 
ATOM      7  C   UNL     1      -1.195  11.215  17.901  0.00  0.00    -0.060 A 
ATOM      8  C   UNL     1      -0.566   9.971  17.985  0.00  0.00    -0.040 A 
ATOM      9  C   UNL     1       0.455   9.763  18.909  0.00  0.00    +0.034 A 
ATOM     10  C   UNL     1       0.844  10.823  19.743  0.00  0.00    -0.036 A 
ATOM     11  H   UNL     1      -1.323  13.214  18.645  0.00  0.00    +0.062 HD
ATOM     12  H   UNL     1      -1.987  11.371  17.174  0.00  0.00    +0.062 HD
ATOM     13  H   UNL     1      -0.900   9.185  17.315  0.00  0.00    +0.064 HD
ATOM     14  H   UNL     1       1.650  10.669  20.459  0.00  0.00    +0.064 HD
BRANCH   5  15
ATOM     15  C   UNL     1       0.666  13.194  20.612  0.00  0.00    +0.035 C 
ATOM     16  H   UNL     1       0.307  12.915  21.612  0.00  0.00    +0.046 HD
BRANCH  15  17
ATOM     17  C   UNL     1       0.013  14.556  20.354  0.00  0.00    -0.049 C 
ATOM     18  H   UNL     1       0.390  15.355  20.999  0.00  0.00    +0.024 HD
ATOM     19  H   UNL     1       0.211  14.870  19.322  0.00  0.00    +0.024 HD
ATOM     20  H   UNL     1      -1.074  14.502  20.474  0.00  0.00    +0.024 HD
ENDBRANCH  15  17
BRANCH  15  21
ATOM     21  S   UNL     1       2.477  13.232  20.836  0.00  0.00    -0.078 S 
BRANCH  21  22
ATOM     22  C   UNL     1       3.108  13.997  19.426  0.00  0.00    +0.192 A 
ATOM     23  N   UNL     1       2.628  13.968  18.206  0.00  0.00    -0.123 NA
ATOM     24  N   UNL     1       3.421  14.770  17.416  0.00  0.00    -0.137 NA
ATOM     25  C   UNL     1       4.365  15.267  18.182  0.00  0.00    +0.120 A 
ATOM     26  N   UNL     1       4.224  14.786  19.450  0.00  0.00    -0.312 N 
ATOM     27  H   UNL     1       5.146  15.949  17.871  0.00  0.00    +0.105 HD
BRANCH  26  28
ATOM     28  C   UNL     1       5.086  15.081  20.561  0.00  0.00    +0.015 C 
ATOM     29  H   UNL     1       5.951  15.651  20.209  0.00  0.00    +0.046 HD
ATOM     30  H   UNL     1       5.429  14.140  20.998  0.00  0.00    +0.046 HD
ATOM     31  H   UNL     1       4.530  15.669  21.294  0.00  0.00    +0.046 HD
ENDBRANCH  26  28
ENDBRANCH  21  22
ENDBRANCH  15  21
ENDBRANCH   5  15
ENDBRANCH   1   9
BRANCH   2  32
ATOM     32  C   UNL     1       2.298   6.661  20.000  0.00  0.00    +0.127 A 
ATOM     33  C   UNL     1       3.585   6.641  19.498  0.00  0.00    -0.019 A 
ATOM     34  C   UNL     1       4.180   5.397  19.331  0.00  0.00    +0.041 A 
ATOM     35  C   UNL     1       3.479   4.222  19.619  0.00  0.00    -0.019 A 
ATOM     36  C   UNL     1       2.179   4.324  20.107  0.00  0.00    +0.145 A 
ATOM     37  N   UNL     1       1.587   5.537  20.318  0.00  0.00    -0.238 NA
ATOM     38  H   UNL     1       4.110   7.556  19.245  0.00  0.00    +0.065 HD
ATOM     39  H   UNL     1       3.935   3.249  19.445  0.00  0.00    +0.065 HD
BRANCH  34  40
ATOM     40  C   UNL     1       5.547   5.330  18.783  0.00  0.00    +0.247 C 
ATOM     41  O   UNL     1       6.484   5.509  19.552  0.00  0.00    -0.270 OA
ATOM     42  N   UNL     1       5.693   5.072  17.436  0.00  0.00    -0.298 N 
ATOM     43  C   UNL     1       7.016   4.978  16.844  0.00  0.00    +0.015 C 
ATOM     44  C   UNL     1       6.744   4.823  15.356  0.00  0.00    -0.036 C 
ATOM     45  C   UNL     1       5.445   4.028  15.338  0.00  0.00    -0.036 C 
ATOM     46  C   UNL     1       4.667   4.611  16.508  0.00  0.00    +0.015 C 
ATOM     47  H   UNL     1       7.616   5.861  17.088  0.00  0.00    +0.046 HD
ATOM     48  H   UNL     1       7.509   4.089  17.256  0.00  0.00    +0.046 HD
ATOM     49  H   UNL     1       7.561   4.327  14.828  0.00  0.00    +0.028 HD
ATOM     50  H   UNL     1       6.579   5.805  14.898  0.00  0.00    +0.028 HD
ATOM     51  H   UNL     1       5.655   2.966  15.521  0.00  0.00    +0.028 HD
ATOM     52  H   UNL     1       4.905   4.112  14.389  0.00  0.00    +0.028 HD
ATOM     53  H   UNL     1       4.009   3.881  16.985  0.00  0.00    +0.046 HD
ATOM     54  H   UNL     1       4.080   5.477  16.193  0.00  0.00    +0.046 HD
ENDBRANCH  34  40
BRANCH  36  55
ATOM     55  C   UNL     1       1.407   3.045  20.406  0.00  0.00    +0.434 C 
ATOM     56  F   UNL     1       0.153   3.061  19.869  0.00  0.00    -0.164 F 
ATOM     57  F   UNL     1       1.232   2.844  21.743  0.00  0.00    -0.164 F 
ATOM     58  F   UNL     1       2.003   1.915  19.930  0.00  0.00    -0.164 F 
ENDBRANCH  36  55
ENDBRANCH   2  32
TORSDOF 9
ENDMDL
MODEL 21
REMARK VINA RESULT:    -7.317      4.416      9.744
REMARK INTER + INTRA:         -11.783
REMARK INTER:                 -10.931
REMARK INTRA:                  -0.852
REMARK UNBOUND:                -1.044
REMARK  Name = 
REMARK  9 active torsions:
REMARK  status: ('A' for Active; 'I' for Inactive)
REMARK    1  A    between atoms: C_1  and  C_2
REMARK    2  A    between atoms: C_2  and  S_3
REMARK    3  A    between atoms: C_2  and  C_10
REMARK    4  A    between atoms: S_3  and  C_4
REMARK    5  A    between atoms: N_8  and  C_9
REMARK    6  A    between atoms: C_14  and  N_15
REMARK    7  A    between atoms: C_16  and  C_18
REMARK    8  A    between atoms: C_20  and  C_21
REMARK    9  A    between atoms: C_29  and  C_30
REMARK                            x       y       z     vdW  Elec       q    Type
REMARK                         _______ _______ _______ _____ _____    ______ ____
ROOT
ATOM      1  N   UNL     1       1.593   8.185  19.550  0.00  0.00    -0.280 N 
ATOM      2  C   UNL     1       1.200   9.046  20.556  0.00  0.00    +0.267 C 
ATOM      3  O   UNL     1       1.248   8.854  21.765  0.00  0.00    -0.268 OA
ATOM      4  H   UNL     1       1.484   8.561  18.611  0.00  0.00    +0.155 HD
ENDROOT
BRANCH   1   9
ATOM      5  C   UNL     1       3.473   5.117  18.650  0.00  0.00    -0.033 A 
ATOM      6  C   UNL     1       3.160   4.284  19.731  0.00  0.00    -0.057 A 
ATOM      7  C   UNL     1       2.337   4.736  20.763  0.00  0.00    -0.060 A 
ATOM      8  C   UNL     1       1.806   6.028  20.731  0.00  0.00    -0.040 A 
ATOM      9  C   UNL     1       2.098   6.878  19.668  0.00  0.00    +0.034 A 
ATOM     10  C   UNL     1       2.936   6.420  18.640  0.00  0.00    -0.036 A 
ATOM     11  H   UNL     1       3.555   3.272  19.793  0.00  0.00    +0.062 HD
ATOM     12  H   UNL     1       2.109   4.080  21.599  0.00  0.00    +0.062 HD
ATOM     13  H   UNL     1       1.166   6.336  21.551  0.00  0.00    +0.064 HD
ATOM     14  H   UNL     1       3.178   7.085  17.812  0.00  0.00    +0.064 HD
BRANCH   5  15
ATOM     15  C   UNL     1       4.368   4.665  17.507  0.00  0.00    +0.035 C 
ATOM     16  H   UNL     1       4.488   5.540  16.853  0.00  0.00    +0.046 HD
BRANCH  15  17
ATOM     17  C   UNL     1       3.754   3.602  16.590  0.00  0.00    -0.049 C 
ATOM     18  H   UNL     1       3.837   3.837  15.525  0.00  0.00    +0.024 HD
ATOM     19  H   UNL     1       4.269   2.646  16.739  0.00  0.00    +0.024 HD
ATOM     20  H   UNL     1       2.696   3.442  16.824  0.00  0.00    +0.024 HD
ENDBRANCH  15  17
BRANCH  15  21
ATOM     21  S   UNL     1       6.080   4.331  18.044  0.00  0.00    -0.078 S 
BRANCH  21  22
ATOM     22  C   UNL     1       6.910   5.838  17.927  0.00  0.00    +0.192 A 
ATOM     23  N   UNL     1       6.762   6.776  17.022  0.00  0.00    -0.123 NA
ATOM     24  N   UNL     1       7.585   7.827  17.359  0.00  0.00    -0.137 NA
ATOM     25  C   UNL     1       8.213   7.497  18.465  0.00  0.00    +0.120 A 
ATOM     26  N   UNL     1       7.840   6.242  18.844  0.00  0.00    -0.312 N 
ATOM     27  H   UNL     1       8.924   8.111  19.002  0.00  0.00    +0.105 HD
BRANCH  26  28
ATOM     28  C   UNL     1       8.335   5.528  19.988  0.00  0.00    +0.015 C 
ATOM     29  H   UNL     1       8.260   6.164  20.875  0.00  0.00    +0.046 HD
ATOM     30  H   UNL     1       9.384   5.275  19.816  0.00  0.00    +0.046 HD
ATOM     31  H   UNL     1       7.736   4.626  20.129  0.00  0.00    +0.046 HD
ENDBRANCH  26  28
ENDBRANCH  21  22
ENDBRANCH  15  21
ENDBRANCH   5  15
ENDBRANCH   1   9
BRANCH   2  32
ATOM     32  C   UNL     1       0.679  10.352  20.033  0.00  0.00    +0.127 A 
ATOM     33  C   UNL     1      -0.661  10.492  19.724  0.00  0.00    -0.019 A 
ATOM     34  C   UNL     1      -1.078  11.737  19.269  0.00  0.00    +0.041 A 
ATOM     35  C   UNL     1      -0.164  12.780  19.094  0.00  0.00    -0.019 A 
ATOM     36  C   UNL     1       1.172  12.556  19.412  0.00  0.00    +0.145 A 
ATOM     37  N   UNL     1       1.601  11.354  19.899  0.00  0.00    -0.238 NA
ATOM     38  H   UNL     1      -1.357   9.668  19.831  0.00  0.00    +0.065 HD
ATOM     39  H   UNL     1      -0.490  13.740  18.697  0.00  0.00    +0.065 HD
BRANCH  34  40
ATOM     40  C   UNL     1      -2.497  11.925  18.914  0.00  0.00    +0.247 C 
ATOM     41  O   UNL     1      -3.209  12.539  19.699  0.00  0.00    -0.270 OA
ATOM     42  N   UNL     1      -2.941  11.396  17.720  0.00  0.00    -0.298 N 
ATOM     43  C   UNL     1      -4.324  11.566  17.310  0.00  0.00    +0.015 C 
ATOM     44  C   UNL     1      -4.434  10.741  16.037  0.00  0.00    -0.036 C 
ATOM     45  C   UNL     1      -3.050  10.899  15.418  0.00  0.00    -0.036 C 
ATOM     46  C   UNL     1      -2.128  10.874  16.627  0.00  0.00    +0.015 C 
ATOM     47  H   UNL     1      -5.007  11.240  18.100  0.00  0.00    +0.046 HD
ATOM     48  H   UNL     1      -4.491  12.631  17.112  0.00  0.00    +0.046 HD
ATOM     49  H   UNL     1      -5.239  11.081  15.383  0.00  0.00    +0.028 HD
ATOM     50  H   UNL     1      -4.607   9.687  16.283  0.00  0.00    +0.028 HD
ATOM     51  H   UNL     1      -2.977  11.871  14.914  0.00  0.00    +0.028 HD
ATOM     52  H   UNL     1      -2.814  10.116  14.691  0.00  0.00    +0.028 HD
ATOM     53  H   UNL     1      -1.228  11.478  16.487  0.00  0.00    +0.046 HD
ATOM     54  H   UNL     1      -1.841   9.849  16.878  0.00  0.00    +0.046 HD
ENDBRANCH  34  40
BRANCH  36  55
ATOM     55  C   UNL     1       2.173  13.686  19.206  0.00  0.00    +0.434 C 
ATOM     56  F   UNL     1       3.050  13.421  18.195  0.00  0.00    -0.164 F 
ATOM     57  F   UNL     1       2.941  13.909  20.310  0.00  0.00    -0.164 F 
ATOM     58  F   UNL     1       1.600  14.884  18.898  0.00  0.00    -0.164 F 
ENDBRANCH  36  55
ENDBRANCH   2  32
TORSDOF 9
ENDMDL
MODEL 22
REMARK VINA RESULT:    -7.306      4.730     10.344
REMARK INTER + INTRA:         -11.767
REMARK INTER:                 -10.980
REMARK INTRA:                  -0.787
REMARK UNBOUND:                -1.044
REMARK  Name = 
REMARK  9 active torsions:
REMARK  status: ('A' for Active; 'I' for Inactive)
REMARK    1  A    between atoms: C_1  and  C_2
REMARK    2  A    between atoms: C_2  and  S_3
REMARK    3  A    between atoms: C_2  and  C_10
REMARK    4  A    between atoms: S_3  and  C_4
REMARK    5  A    between atoms: N_8  and  C_9
REMARK    6  A    between atoms: C_14  and  N_15
REMARK    7  A    between atoms: C_16  and  C_18
REMARK    8  A    between atoms: C_20  and  C_21
REMARK    9  A    between atoms: C_29  and  C_30
REMARK                            x       y       z     vdW  Elec       q    Type
REMARK                         _______ _______ _______ _____ _____    ______ ____
ROOT
ATOM      1  N   UNL     1       1.090   8.870  20.042  0.00  0.00    -0.280 N 
ATOM      2  C   UNL     1       0.720   9.643  18.958  0.00  0.00    +0.267 C 
ATOM      3  O   UNL     1       0.783   9.345  17.771  0.00  0.00    -0.268 OA
ATOM      4  H   UNL     1       0.930   9.311  20.944  0.00  0.00    +0.155 HD
ENDROOT
BRANCH   1   9
ATOM      5  C   UNL     1       3.327   6.085  19.040  0.00  0.00    -0.033 A 
ATOM      6  C   UNL     1       2.881   5.066  19.890  0.00  0.00    -0.057 A 
ATOM      7  C   UNL     1       1.850   5.297  20.800  0.00  0.00    -0.060 A 
ATOM      8  C   UNL     1       1.240   6.551  20.876  0.00  0.00    -0.040 A 
ATOM      9  C   UNL     1       1.661   7.585  20.043  0.00  0.00    +0.034 A 
ATOM     10  C   UNL     1       2.706   7.348  19.137  0.00  0.00    -0.036 A 
ATOM     11  H   UNL     1       3.331   4.075  19.862  0.00  0.00    +0.062 HD
ATOM     12  H   UNL     1       1.520   4.497  21.458  0.00  0.00    +0.062 HD
ATOM     13  H   UNL     1       0.438   6.686  21.595  0.00  0.00    +0.064 HD
ATOM     14  H   UNL     1       3.047   8.156  18.492  0.00  0.00    +0.064 HD
BRANCH   5  15
ATOM     15  C   UNL     1       4.448   5.877  18.037  0.00  0.00    +0.035 C 
ATOM     16  H   UNL     1       5.381   5.891  18.617  0.00  0.00    +0.046 HD
BRANCH  15  17
ATOM     17  C   UNL     1       4.628   7.015  17.025  0.00  0.00    -0.049 C 
ATOM     18  H   UNL     1       4.399   6.729  15.995  0.00  0.00    +0.024 HD
ATOM     19  H   UNL     1       3.952   7.840  17.277  0.00  0.00    +0.024 HD
ATOM     20  H   UNL     1       5.649   7.410  17.054  0.00  0.00    +0.024 HD
ENDBRANCH  15  17
BRANCH  15  21
ATOM     21  S   UNL     1       4.451   4.197  17.322  0.00  0.00    -0.078 S 
BRANCH  21  22
ATOM     22  C   UNL     1       5.495   4.272  15.952  0.00  0.00    +0.192 A 
ATOM     23  N   UNL     1       5.170   4.202  14.683  0.00  0.00    -0.123 NA
ATOM     24  N   UNL     1       6.318   4.369  13.940  0.00  0.00    -0.137 NA
ATOM     25  C   UNL     1       7.311   4.537  14.783  0.00  0.00    +0.120 A 
ATOM     26  N   UNL     1       6.844   4.457  16.060  0.00  0.00    -0.312 N 
ATOM     27  H   UNL     1       8.347   4.709  14.521  0.00  0.00    +0.105 HD
BRANCH  26  28
ATOM     28  C   UNL     1       7.638   4.561  17.253  0.00  0.00    +0.015 C 
ATOM     29  H   UNL     1       7.030   4.982  18.059  0.00  0.00    +0.046 HD
ATOM     30  H   UNL     1       8.483   5.226  17.056  0.00  0.00    +0.046 HD
ATOM     31  H   UNL     1       7.987   3.565  17.535  0.00  0.00    +0.046 HD
ENDBRANCH  26  28
ENDBRANCH  21  22
ENDBRANCH  15  21
ENDBRANCH   5  15
ENDBRANCH   1   9
BRANCH   2  32
ATOM     32  C   UNL     1       0.175  10.982  19.359  0.00  0.00    +0.127 A 
ATOM     33  C   UNL     1      -1.165  11.123  19.667  0.00  0.00    -0.019 A 
ATOM     34  C   UNL     1      -1.595  12.385  20.056  0.00  0.00    +0.041 A 
ATOM     35  C   UNL     1      -0.710  13.467  20.087  0.00  0.00    -0.019 A 
ATOM     36  C   UNL     1       0.622  13.248  19.748  0.00  0.00    +0.145 A 
ATOM     37  N   UNL     1       1.078  12.008  19.401  0.00  0.00    -0.238 NA
ATOM     38  H   UNL     1      -1.852  10.287  19.608  0.00  0.00    +0.065 HD
ATOM     39  H   UNL     1      -1.062  14.462  20.351  0.00  0.00    +0.065 HD
BRANCH  34  40
ATOM     40  C   UNL     1      -3.020  12.583  20.378  0.00  0.00    +0.247 C 
ATOM     41  O   UNL     1      -3.820  12.615  19.451  0.00  0.00    -0.270 OA
ATOM     42  N   UNL     1      -3.371  12.725  21.705  0.00  0.00    -0.298 N 
ATOM     43  C   UNL     1      -4.761  12.905  22.083  0.00  0.00    +0.015 C 
ATOM     44  C   UNL     1      -4.706  13.152  23.582  0.00  0.00    -0.036 C 
ATOM     45  C   UNL     1      -3.525  12.292  24.016  0.00  0.00    -0.036 C 
ATOM     46  C   UNL     1      -2.538  12.461  22.872  0.00  0.00    +0.015 C 
ATOM     47  H   UNL     1      -5.214  13.730  21.522  0.00  0.00    +0.046 HD
ATOM     48  H   UNL     1      -5.300  11.979  21.848  0.00  0.00    +0.046 HD
ATOM     49  H   UNL     1      -5.638  12.890  24.086  0.00  0.00    +0.028 HD
ATOM     50  H   UNL     1      -4.486  14.207  23.784  0.00  0.00    +0.028 HD
ATOM     51  H   UNL     1      -3.836  11.242  24.089  0.00  0.00    +0.028 HD
ATOM     52  H   UNL     1      -3.108  12.595  24.982  0.00  0.00    +0.028 HD
ATOM     53  H   UNL     1      -1.915  11.577  22.716  0.00  0.00    +0.046 HD
ATOM     54  H   UNL     1      -1.897  13.332  23.035  0.00  0.00    +0.046 HD
ENDBRANCH  34  40
BRANCH  36  55
ATOM     55  C   UNL     1       1.586  14.428  19.764  0.00  0.00    +0.434 C 
ATOM     56  F   UNL     1       1.467  15.207  18.651  0.00  0.00    -0.164 F 
ATOM     57  F   UNL     1       2.890  14.035  19.800  0.00  0.00    -0.164 F 
ATOM     58  F   UNL     1       1.415  15.266  20.826  0.00  0.00    -0.164 F 
ENDBRANCH  36  55
ENDBRANCH   2  32
TORSDOF 9
ENDMDL
MODEL 23
REMARK VINA RESULT:    -7.283      4.791     10.102
REMARK INTER + INTRA:         -11.732
REMARK INTER:                 -11.024
REMARK INTRA:                  -0.708
REMARK UNBOUND:                -1.044
REMARK  Name = 
REMARK  9 active torsions:
REMARK  status: ('A' for Active; 'I' for Inactive)
REMARK    1  A    between atoms: C_1  and  C_2
REMARK    2  A    between atoms: C_2  and  S_3
REMARK    3  A    between atoms: C_2  and  C_10
REMARK    4  A    between atoms: S_3  and  C_4
REMARK    5  A    between atoms: N_8  and  C_9
REMARK    6  A    between atoms: C_14  and  N_15
REMARK    7  A    between atoms: C_16  and  C_18
REMARK    8  A    between atoms: C_20  and  C_21
REMARK    9  A    between atoms: C_29  and  C_30
REMARK                            x       y       z     vdW  Elec       q    Type
REMARK                         _______ _______ _______ _____ _____    ______ ____
ROOT
ATOM      1  N   UNL     1       1.569   8.351  19.662  0.00  0.00    -0.280 N 
ATOM      2  C   UNL     1       1.597   9.157  18.540  0.00  0.00    +0.267 C 
ATOM      3  O   UNL     1       1.992   8.864  17.418  0.00  0.00    -0.268 OA
ATOM      4  H   UNL     1       1.178   8.796  20.488  0.00  0.00    +0.155 HD
ENDROOT
BRANCH   1   9
ATOM      5  C   UNL     1       3.333   5.202  18.803  0.00  0.00    -0.033 A 
ATOM      6  C   UNL     1       2.974   4.391  19.887  0.00  0.00    -0.057 A 
ATOM      7  C   UNL     1       2.159   4.883  20.906  0.00  0.00    -0.060 A 
ATOM      8  C   UNL     1       1.682   6.195  20.860  0.00  0.00    -0.040 A 
ATOM      9  C   UNL     1       2.020   7.025  19.794  0.00  0.00    +0.034 A 
ATOM     10  C   UNL     1       2.850   6.526  18.778  0.00  0.00    -0.036 A 
ATOM     11  H   UNL     1       3.326   3.363  19.960  0.00  0.00    +0.062 HD
ATOM     12  H   UNL     1       1.895   4.242  21.744  0.00  0.00    +0.062 HD
ATOM     13  H   UNL     1       1.046   6.535  21.671  0.00  0.00    +0.064 HD
ATOM     14  H   UNL     1       3.127   7.175  17.949  0.00  0.00    +0.064 HD
BRANCH   5  15
ATOM     15  C   UNL     1       4.221   4.706  17.674  0.00  0.00    +0.035 C 
ATOM     16  H   UNL     1       4.341   5.556  16.988  0.00  0.00    +0.046 HD
BRANCH  15  17
ATOM     17  C   UNL     1       3.599   3.613  16.798  0.00  0.00    -0.049 C 
ATOM     18  H   UNL     1       2.589   3.324  17.103  0.00  0.00    +0.024 HD
ATOM     19  H   UNL     1       3.521   3.970  15.765  0.00  0.00    +0.024 HD
ATOM     20  H   UNL     1       4.224   2.714  16.786  0.00  0.00    +0.024 HD
ENDBRANCH  15  17
BRANCH  15  21
ATOM     21  S   UNL     1       5.934   4.386  18.214  0.00  0.00    -0.078 S 
BRANCH  21  22
ATOM     22  C   UNL     1       6.779   5.874  18.001  0.00  0.00    +0.192 A 
ATOM     23  N   UNL     1       6.587   6.789  17.081  0.00  0.00    -0.123 NA
ATOM     24  N   UNL     1       7.447   7.833  17.333  0.00  0.00    -0.137 NA
ATOM     25  C   UNL     1       8.141   7.523  18.404  0.00  0.00    +0.120 A 
ATOM     26  N   UNL     1       7.774   6.286  18.843  0.00  0.00    -0.312 N 
ATOM     27  H   UNL     1       8.896   8.139  18.876  0.00  0.00    +0.105 HD
BRANCH  26  28
ATOM     28  C   UNL     1       8.332   5.594  19.972  0.00  0.00    +0.015 C 
ATOM     29  H   UNL     1       8.729   6.322  20.684  0.00  0.00    +0.046 HD
ATOM     30  H   UNL     1       9.145   4.953  19.623  0.00  0.00    +0.046 HD
ATOM     31  H   UNL     1       7.548   5.002  20.448  0.00  0.00    +0.046 HD
ENDBRANCH  26  28
ENDBRANCH  21  22
ENDBRANCH  15  21
ENDBRANCH   5  15
ENDBRANCH   1   9
BRANCH   2  32
ATOM     32  C   UNL     1       1.054  10.531  18.800  0.00  0.00    +0.127 A 
ATOM     33  C   UNL     1      -0.277  10.701  19.132  0.00  0.00    -0.019 A 
ATOM     34  C   UNL     1      -0.704  11.998  19.385  0.00  0.00    +0.041 A 
ATOM     35  C   UNL     1       0.172  13.080  19.262  0.00  0.00    -0.019 A 
ATOM     36  C   UNL     1       1.495  12.829  18.908  0.00  0.00    +0.145 A 
ATOM     37  N   UNL     1       1.950  11.559  18.693  0.00  0.00    -0.238 NA
ATOM     38  H   UNL     1      -0.959   9.860  19.192  0.00  0.00    +0.065 HD
ATOM     39  H   UNL     1      -0.180  14.098  19.419  0.00  0.00    +0.065 HD
BRANCH  34  40
ATOM     40  C   UNL     1      -2.121  12.226  19.727  0.00  0.00    +0.247 C 
ATOM     41  O   UNL     1      -2.939  12.230  18.816  0.00  0.00    -0.270 OA
ATOM     42  N   UNL     1      -2.442  12.425  21.054  0.00  0.00    -0.298 N 
ATOM     43  C   UNL     1      -3.823  12.636  21.452  0.00  0.00    +0.015 C 
ATOM     44  C   UNL     1      -3.735  12.941  22.939  0.00  0.00    -0.036 C 
ATOM     45  C   UNL     1      -2.555  12.086  23.384  0.00  0.00    -0.036 C 
ATOM     46  C   UNL     1      -1.589  12.197  22.214  0.00  0.00    +0.015 C 
ATOM     47  H   UNL     1      -4.277  13.443  20.868  0.00  0.00    +0.046 HD
ATOM     48  H   UNL     1      -4.376  11.708  21.266  0.00  0.00    +0.046 HD
ATOM     49  H   UNL     1      -4.659  12.711  23.472  0.00  0.00    +0.028 HD
ATOM     50  H   UNL     1      -3.498  14.000  23.095  0.00  0.00    +0.028 HD
ATOM     51  H   UNL     1      -2.876  11.043  23.504  0.00  0.00    +0.028 HD
ATOM     52  H   UNL     1      -2.115  12.421  24.328  0.00  0.00    +0.028 HD
ATOM     53  H   UNL     1      -0.980  11.300  22.081  0.00  0.00    +0.046 HD
ATOM     54  H   UNL     1      -0.935  13.065  22.330  0.00  0.00    +0.046 HD
ENDBRANCH  34  40
BRANCH  36  55
ATOM     55  C   UNL     1       2.449  14.008  18.756  0.00  0.00    +0.434 C 
ATOM     56  F   UNL     1       2.945  14.427  19.956  0.00  0.00    -0.164 F 
ATOM     57  F   UNL     1       1.844  15.099  18.207  0.00  0.00    -0.164 F 
ATOM     58  F   UNL     1       3.533  13.744  17.974  0.00  0.00    -0.164 F 
ENDBRANCH  36  55
ENDBRANCH   2  32
TORSDOF 9
ENDMDL
MODEL 24
REMARK VINA RESULT:    -7.264      2.659      3.973
REMARK INTER + INTRA:         -11.706
REMARK INTER:                 -10.724
REMARK INTRA:                  -0.982
REMARK UNBOUND:                -1.044
REMARK  Name = 
REMARK  9 active torsions:
REMARK  status: ('A' for Active; 'I' for Inactive)
REMARK    1  A    between atoms: C_1  and  C_2
REMARK    2  A    between atoms: C_2  and  S_3
REMARK    3  A    between atoms: C_2  and  C_10
REMARK    4  A    between atoms: S_3  and  C_4
REMARK    5  A    between atoms: N_8  and  C_9
REMARK    6  A    between atoms: C_14  and  N_15
REMARK    7  A    between atoms: C_16  and  C_18
REMARK    8  A    between atoms: C_20  and  C_21
REMARK    9  A    between atoms: C_29  and  C_30
REMARK                            x       y       z     vdW  Elec       q    Type
REMARK                         _______ _______ _______ _____ _____    ______ ____
ROOT
ATOM      1  N   UNL     1       0.464   9.288  18.920  0.00  0.00    -0.280 N 
ATOM      2  C   UNL     1       1.706   9.201  18.321  0.00  0.00    +0.267 C 
ATOM      3  O   UNL     1       2.321  10.088  17.743  0.00  0.00    -0.268 OA
ATOM      4  H   UNL     1       0.152   8.428  19.363  0.00  0.00    +0.155 HD
ENDROOT
BRANCH   1   9
ATOM      5  C   UNL     1      -0.688  12.738  19.649  0.00  0.00    -0.033 A 
ATOM      6  C   UNL     1      -2.009  12.681  19.191  0.00  0.00    -0.057 A 
ATOM      7  C   UNL     1      -2.520  11.509  18.632  0.00  0.00    -0.060 A 
ATOM      8  C   UNL     1      -1.720  10.370  18.525  0.00  0.00    -0.040 A 
ATOM      9  C   UNL     1      -0.402  10.395  18.974  0.00  0.00    +0.034 A 
ATOM     10  C   UNL     1       0.107  11.581  19.524  0.00  0.00    -0.036 A 
ATOM     11  H   UNL     1      -2.664  13.549  19.255  0.00  0.00    +0.062 HD
ATOM     12  H   UNL     1      -3.546  11.484  18.274  0.00  0.00    +0.062 HD
ATOM     13  H   UNL     1      -2.159   9.478  18.089  0.00  0.00    +0.064 HD
ATOM     14  H   UNL     1       1.141  11.609  19.866  0.00  0.00    +0.064 HD
BRANCH   5  15
ATOM     15  C   UNL     1      -0.092  13.995  20.261  0.00  0.00    +0.035 C 
ATOM     16  H   UNL     1      -0.864  14.771  20.171  0.00  0.00    +0.046 HD
BRANCH  15  17
ATOM     17  C   UNL     1       1.105  14.577  19.501  0.00  0.00    -0.049 C 
ATOM     18  H   UNL     1       1.393  13.995  18.621  0.00  0.00    +0.024 HD
ATOM     19  H   UNL     1       0.859  15.583  19.142  0.00  0.00    +0.024 HD
ATOM     20  H   UNL     1       1.980  14.669  20.153  0.00  0.00    +0.024 HD
ENDBRANCH  15  17
BRANCH  15  21
ATOM     21  S   UNL     1       0.129  13.861  22.069  0.00  0.00    -0.078 S 
BRANCH  21  22
ATOM     22  C   UNL     1      -1.422  13.450  22.701  0.00  0.00    +0.192 A 
ATOM     23  N   UNL     1      -2.445  14.242  22.913  0.00  0.00    -0.123 NA
ATOM     24  N   UNL     1      -3.493  13.473  23.367  0.00  0.00    -0.137 NA
ATOM     25  C   UNL     1      -3.075  12.229  23.417  0.00  0.00    +0.120 A 
ATOM     26  N   UNL     1      -1.769  12.170  23.033  0.00  0.00    -0.312 N 
ATOM     27  H   UNL     1      -3.661  11.370  23.720  0.00  0.00    +0.105 HD
BRANCH  26  28
ATOM     28  C   UNL     1      -0.958  10.985  22.987  0.00  0.00    +0.015 C 
ATOM     29  H   UNL     1      -1.551  10.126  23.315  0.00  0.00    +0.046 HD
ATOM     30  H   UNL     1      -0.109  11.114  23.662  0.00  0.00    +0.046 HD
ATOM     31  H   UNL     1      -0.618  10.828  21.962  0.00  0.00    +0.046 HD
ENDBRANCH  26  28
ENDBRANCH  21  22
ENDBRANCH  15  21
ENDBRANCH   5  15
ENDBRANCH   1   9
BRANCH   2  32
ATOM     32  C   UNL     1       2.315   7.836  18.445  0.00  0.00    +0.127 A 
ATOM     33  C   UNL     1       3.389   7.479  17.652  0.00  0.00    -0.019 A 
ATOM     34  C   UNL     1       3.920   6.209  17.840  0.00  0.00    +0.041 A 
ATOM     35  C   UNL     1       3.354   5.324  18.762  0.00  0.00    -0.019 A 
ATOM     36  C   UNL     1       2.263   5.751  19.513  0.00  0.00    +0.145 A 
ATOM     37  N   UNL     1       1.748   7.009  19.376  0.00  0.00    -0.238 NA
ATOM     38  H   UNL     1       3.801   8.159  16.915  0.00  0.00    +0.065 HD
ATOM     39  H   UNL     1       3.747   4.315  18.873  0.00  0.00    +0.065 HD
BRANCH  34  40
ATOM     40  C   UNL     1       5.057   5.782  17.003  0.00  0.00    +0.247 C 
ATOM     41  O   UNL     1       4.927   5.835  15.786  0.00  0.00    -0.270 OA
ATOM     42  N   UNL     1       6.201   5.345  17.639  0.00  0.00    -0.298 N 
ATOM     43  C   UNL     1       7.358   4.930  16.867  0.00  0.00    +0.015 C 
ATOM     44  C   UNL     1       8.330   4.406  17.912  0.00  0.00    -0.036 C 
ATOM     45  C   UNL     1       8.041   5.301  19.111  0.00  0.00    -0.036 C 
ATOM     46  C   UNL     1       6.531   5.477  19.053  0.00  0.00    +0.015 C 
ATOM     47  H   UNL     1       7.078   4.181  16.118  0.00  0.00    +0.046 HD
ATOM     48  H   UNL     1       7.759   5.812  16.353  0.00  0.00    +0.046 HD
ATOM     49  H   UNL     1       9.369   4.452  17.581  0.00  0.00    +0.028 HD
ATOM     50  H   UNL     1       8.090   3.367  18.164  0.00  0.00    +0.028 HD
ATOM     51  H   UNL     1       8.535   6.272  18.978  0.00  0.00    +0.028 HD
ATOM     52  H   UNL     1       8.379   4.870  20.058  0.00  0.00    +0.028 HD
ATOM     53  H   UNL     1       6.202   6.443  19.443  0.00  0.00    +0.046 HD
ATOM     54  H   UNL     1       6.024   4.675  19.596  0.00  0.00    +0.046 HD
ENDBRANCH  34  40
BRANCH  36  55
ATOM     55  C   UNL     1       1.633   4.783  20.507  0.00  0.00    +0.434 C 
ATOM     56  F   UNL     1       1.656   3.495  20.058  0.00  0.00    -0.164 F 
ATOM     57  F   UNL     1       0.322   5.065  20.748  0.00  0.00    -0.164 F 
ATOM     58  F   UNL     1       2.245   4.766  21.725  0.00  0.00    -0.164 F 
ENDBRANCH  36  55
ENDBRANCH   2  32
TORSDOF 9
ENDMDL
MODEL 25
REMARK VINA RESULT:    -7.262      4.404      9.790
REMARK INTER + INTRA:         -11.702
REMARK INTER:                 -10.979
REMARK INTRA:                  -0.723
REMARK UNBOUND:                -1.044
REMARK  Name = 
REMARK  9 active torsions:
REMARK  status: ('A' for Active; 'I' for Inactive)
REMARK    1  A    between atoms: C_1  and  C_2
REMARK    2  A    between atoms: C_2  and  S_3
REMARK    3  A    between atoms: C_2  and  C_10
REMARK    4  A    between atoms: S_3  and  C_4
REMARK    5  A    between atoms: N_8  and  C_9
REMARK    6  A    between atoms: C_14  and  N_15
REMARK    7  A    between atoms: C_16  and  C_18
REMARK    8  A    between atoms: C_20  and  C_21
REMARK    9  A    between atoms: C_29  and  C_30
REMARK                            x       y       z     vdW  Elec       q    Type
REMARK                         _______ _______ _______ _____ _____    ______ ____
ROOT
ATOM      1  N   UNL     1       1.219   8.651  19.969  0.00  0.00    -0.280 N 
ATOM      2  C   UNL     1       0.990   9.494  21.039  0.00  0.00    +0.267 C 
ATOM      3  O   UNL     1       1.269   9.301  22.217  0.00  0.00    -0.268 OA
ATOM      4  H   UNL     1       0.924   9.026  19.071  0.00  0.00    +0.155 HD
ENDROOT
BRANCH   1   9
ATOM      5  C   UNL     1       3.432   5.846  18.973  0.00  0.00    -0.033 A 
ATOM      6  C   UNL     1       2.994   4.839  19.841  0.00  0.00    -0.057 A 
ATOM      7  C   UNL     1       1.976   5.086  20.763  0.00  0.00    -0.060 A 
ATOM      8  C   UNL     1       1.372   6.343  20.831  0.00  0.00    -0.040 A 
ATOM      9  C   UNL     1       1.785   7.364  19.978  0.00  0.00    +0.034 A 
ATOM     10  C   UNL     1       2.817   7.111  19.062  0.00  0.00    -0.036 A 
ATOM     11  H   UNL     1       3.440   3.846  19.820  0.00  0.00    +0.062 HD
ATOM     12  H   UNL     1       1.652   4.295  21.435  0.00  0.00    +0.062 HD
ATOM     13  H   UNL     1       0.580   6.490  21.558  0.00  0.00    +0.064 HD
ATOM     14  H   UNL     1       3.151   7.910  18.402  0.00  0.00    +0.064 HD
BRANCH   5  15
ATOM     15  C   UNL     1       4.539   5.620  17.957  0.00  0.00    +0.035 C 
ATOM     16  H   UNL     1       5.468   5.529  18.536  0.00  0.00    +0.046 HD
BRANCH  15  17
ATOM     17  C   UNL     1       4.804   6.804  17.020  0.00  0.00    -0.049 C 
ATOM     18  H   UNL     1       3.905   7.364  16.751  0.00  0.00    +0.024 HD
ATOM     19  H   UNL     1       5.479   7.516  17.509  0.00  0.00    +0.024 HD
ATOM     20  H   UNL     1       5.293   6.474  16.097  0.00  0.00    +0.024 HD
ENDBRANCH  15  17
BRANCH  15  21
ATOM     21  S   UNL     1       4.421   3.993  17.137  0.00  0.00    -0.078 S 
BRANCH  21  22
ATOM     22  C   UNL     1       5.438   4.095  15.747  0.00  0.00    +0.192 A 
ATOM     23  N   UNL     1       5.089   4.035  14.484  0.00  0.00    -0.123 NA
ATOM     24  N   UNL     1       6.220   4.222  13.721  0.00  0.00    -0.137 NA
ATOM     25  C   UNL     1       7.228   4.392  14.546  0.00  0.00    +0.120 A 
ATOM     26  N   UNL     1       6.787   4.292  15.832  0.00  0.00    -0.312 N 
ATOM     27  H   UNL     1       8.257   4.577  14.266  0.00  0.00    +0.105 HD
BRANCH  26  28
ATOM     28  C   UNL     1       7.603   4.392  17.010  0.00  0.00    +0.015 C 
ATOM     29  H   UNL     1       7.528   5.403  17.420  0.00  0.00    +0.046 HD
ATOM     30  H   UNL     1       8.641   4.191  16.736  0.00  0.00    +0.046 HD
ATOM     31  H   UNL     1       7.250   3.668  17.748  0.00  0.00    +0.046 HD
ENDBRANCH  26  28
ENDBRANCH  21  22
ENDBRANCH  15  21
ENDBRANCH   5  15
ENDBRANCH   1   9
BRANCH   2  32
ATOM     32  C   UNL     1       0.333  10.781  20.634  0.00  0.00    +0.127 A 
ATOM     33  C   UNL     1      -0.966  10.781  20.165  0.00  0.00    -0.019 A 
ATOM     34  C   UNL     1      -1.519  12.011  19.834  0.00  0.00    +0.041 A 
ATOM     35  C   UNL     1      -0.768  13.186  19.933  0.00  0.00    -0.019 A 
ATOM     36  C   UNL     1       0.540  13.102  20.400  0.00  0.00    +0.145 A 
ATOM     37  N   UNL     1       1.094  11.910  20.770  0.00  0.00    -0.238 NA
ATOM     38  H   UNL     1      -1.532   9.862  20.058  0.00  0.00    +0.065 HD
ATOM     39  H   UNL     1      -1.193  14.142  19.631  0.00  0.00    +0.065 HD
BRANCH  34  40
ATOM     40  C   UNL     1      -2.899  12.055  19.314  0.00  0.00    +0.247 C 
ATOM     41  O   UNL     1      -3.764  12.558  20.020  0.00  0.00    -0.270 OA
ATOM     42  N   UNL     1      -3.137  11.522  18.064  0.00  0.00    -0.298 N 
ATOM     43  C   UNL     1      -4.472  11.553  17.493  0.00  0.00    +0.015 C 
ATOM     44  C   UNL     1      -4.338  10.767  16.199  0.00  0.00    -0.036 C 
ATOM     45  C   UNL     1      -2.918  11.098  15.755  0.00  0.00    -0.036 C 
ATOM     46  C   UNL     1      -2.147  11.132  17.066  0.00  0.00    +0.015 C 
ATOM     47  H   UNL     1      -5.202  11.126  18.189  0.00  0.00    +0.046 HD
ATOM     48  H   UNL     1      -4.736  12.600  17.301  0.00  0.00    +0.046 HD
ATOM     49  H   UNL     1      -5.094  11.039  15.461  0.00  0.00    +0.028 HD
ATOM     50  H   UNL     1      -4.418   9.692  16.399  0.00  0.00    +0.028 HD
ATOM     51  H   UNL     1      -2.897  12.089  15.285  0.00  0.00    +0.028 HD
ATOM     52  H   UNL     1      -2.511  10.372  15.045  0.00  0.00    +0.028 HD
ATOM     53  H   UNL     1      -1.312  11.836  17.048  0.00  0.00    +0.046 HD
ATOM     54  H   UNL     1      -1.777  10.137  17.327  0.00  0.00    +0.046 HD
ENDBRANCH  34  40
BRANCH  36  55
ATOM     55  C   UNL     1       1.368  14.379  20.493  0.00  0.00    +0.434 C 
ATOM     56  F   UNL     1       1.319  15.111  19.343  0.00  0.00    -0.164 F 
ATOM     57  F   UNL     1       2.689  14.128  20.714  0.00  0.00    -0.164 F 
ATOM     58  F   UNL     1       0.973  15.221  21.489  0.00  0.00    -0.164 F 
ENDBRANCH  36  55
ENDBRANCH   2  32
TORSDOF 9
ENDMDL
MODEL 26
REMARK VINA RESULT:    -7.250      2.798      4.160
REMARK INTER + INTRA:         -11.684
REMARK INTER:                 -11.355
REMARK INTRA:                  -0.329
REMARK UNBOUND:                -1.044
REMARK  Name = 
REMARK  9 active torsions:
REMARK  status: ('A' for Active; 'I' for Inactive)
REMARK    1  A    between atoms: C_1  and  C_2
REMARK    2  A    between atoms: C_2  and  S_3
REMARK    3  A    between atoms: C_2  and  C_10
REMARK    4  A    between atoms: S_3  and  C_4
REMARK    5  A    between atoms: N_8  and  C_9
REMARK    6  A    between atoms: C_14  and  N_15
REMARK    7  A    between atoms: C_16  and  C_18
REMARK    8  A    between atoms: C_20  and  C_21
REMARK    9  A    between atoms: C_29  and  C_30
REMARK                            x       y       z     vdW  Elec       q    Type
REMARK                         _______ _______ _______ _____ _____    ______ ____
ROOT
ATOM      1  N   UNL     1       1.505   8.380  19.909  0.00  0.00    -0.280 N 
ATOM      2  C   UNL     1       2.017   8.514  18.633  0.00  0.00    +0.267 C 
ATOM      3  O   UNL     1       1.958   9.496  17.903  0.00  0.00    -0.268 OA
ATOM      4  H   UNL     1       1.691   7.479  20.342  0.00  0.00    +0.155 HD
ENDROOT
BRANCH   1   9
ATOM      5  C   UNL     1      -0.450  11.449  20.631  0.00  0.00    -0.033 A 
ATOM      6  C   UNL     1      -0.699  11.291  22.000  0.00  0.00    -0.057 A 
ATOM      7  C   UNL     1      -0.231  10.169  22.685  0.00  0.00    -0.060 A 
ATOM      8  C   UNL     1       0.499   9.185  22.015  0.00  0.00    -0.040 A 
ATOM      9  C   UNL     1       0.764   9.314  20.654  0.00  0.00    +0.034 A 
ATOM     10  C   UNL     1       0.281  10.440  19.970  0.00  0.00    -0.036 A 
ATOM     11  H   UNL     1      -1.265  12.036  22.557  0.00  0.00    +0.062 HD
ATOM     12  H   UNL     1      -0.439  10.058  23.746  0.00  0.00    +0.062 HD
ATOM     13  H   UNL     1       0.848   8.331  22.587  0.00  0.00    +0.064 HD
ATOM     14  H   UNL     1       0.475  10.541  18.904  0.00  0.00    +0.064 HD
BRANCH   5  15
ATOM     15  C   UNL     1      -0.943  12.654  19.848  0.00  0.00    +0.035 C 
ATOM     16  H   UNL     1      -0.429  12.615  18.877  0.00  0.00    +0.046 HD
BRANCH  15  17
ATOM     17  C   UNL     1      -0.530  14.012  20.427  0.00  0.00    -0.049 C 
ATOM     18  H   UNL     1      -1.174  14.838  20.114  0.00  0.00    +0.024 HD
ATOM     19  H   UNL     1      -0.581  13.975  21.521  0.00  0.00    +0.024 HD
ATOM     20  H   UNL     1       0.502  14.259  20.157  0.00  0.00    +0.024 HD
ENDBRANCH  15  17
BRANCH  15  21
ATOM     21  S   UNL     1      -2.700  12.514  19.373  0.00  0.00    -0.078 S 
BRANCH  21  22
ATOM     22  C   UNL     1      -2.730  11.499  17.980  0.00  0.00    +0.192 A 
ATOM     23  N   UNL     1      -1.749  11.235  17.150  0.00  0.00    -0.123 NA
ATOM     24  N   UNL     1      -2.210  10.328  16.222  0.00  0.00    -0.137 NA
ATOM     25  C   UNL     1      -3.462  10.065  16.516  0.00  0.00    +0.120 A 
ATOM     26  N   UNL     1      -3.841  10.800  17.599  0.00  0.00    -0.312 N 
ATOM     27  H   UNL     1      -4.111   9.377  15.988  0.00  0.00    +0.105 HD
BRANCH  26  28
ATOM     28  C   UNL     1      -5.147  10.803  18.198  0.00  0.00    +0.015 C 
ATOM     29  H   UNL     1      -5.773  10.051  17.710  0.00  0.00    +0.046 HD
ATOM     30  H   UNL     1      -5.595  11.790  18.056  0.00  0.00    +0.046 HD
ATOM     31  H   UNL     1      -5.050  10.570  19.260  0.00  0.00    +0.046 HD
ENDBRANCH  26  28
ENDBRANCH  21  22
ENDBRANCH  15  21
ENDBRANCH   5  15
ENDBRANCH   1   9
BRANCH   2  32
ATOM     32  C   UNL     1       2.726   7.280  18.160  0.00  0.00    +0.127 A 
ATOM     33  C   UNL     1       2.230   6.029  18.475  0.00  0.00    -0.019 A 
ATOM     34  C   UNL     1       2.922   4.931  17.980  0.00  0.00    +0.041 A 
ATOM     35  C   UNL     1       4.093   5.096  17.235  0.00  0.00    -0.019 A 
ATOM     36  C   UNL     1       4.539   6.389  16.973  0.00  0.00    +0.145 A 
ATOM     37  N   UNL     1       3.854   7.485  17.414  0.00  0.00    -0.238 NA
ATOM     38  H   UNL     1       1.339   5.908  19.081  0.00  0.00    +0.065 HD
ATOM     39  H   UNL     1       4.655   4.231  16.888  0.00  0.00    +0.065 HD
BRANCH  34  40
ATOM     40  C   UNL     1       2.435   3.577  18.306  0.00  0.00    +0.247 C 
ATOM     41  O   UNL     1       2.352   2.762  17.396  0.00  0.00    -0.270 OA
ATOM     42  N   UNL     1       2.096   3.309  19.616  0.00  0.00    -0.298 N 
ATOM     43  C   UNL     1       1.627   1.989  19.998  0.00  0.00    +0.015 C 
ATOM     44  C   UNL     1       1.243   2.144  21.461  0.00  0.00    -0.036 C 
ATOM     45  C   UNL     1       2.255   3.166  21.963  0.00  0.00    -0.036 C 
ATOM     46  C   UNL     1       2.388   4.124  20.789  0.00  0.00    +0.015 C 
ATOM     47  H   UNL     1       0.796   1.671  19.361  0.00  0.00    +0.046 HD
ATOM     48  H   UNL     1       2.458   1.284  19.875  0.00  0.00    +0.046 HD
ATOM     49  H   UNL     1       1.278   1.200  22.008  0.00  0.00    +0.028 HD
ATOM     50  H   UNL     1       0.232   2.558  21.545  0.00  0.00    +0.028 HD
ATOM     51  H   UNL     1       3.218   2.675  22.154  0.00  0.00    +0.028 HD
ATOM     52  H   UNL     1       1.937   3.667  22.883  0.00  0.00    +0.028 HD
ATOM     53  H   UNL     1       3.382   4.571  20.717  0.00  0.00    +0.046 HD
ATOM     54  H   UNL     1       1.637   4.917  20.846  0.00  0.00    +0.046 HD
ENDBRANCH  34  40
BRANCH  36  55
ATOM     55  C   UNL     1       5.824   6.573  16.176  0.00  0.00    +0.434 C 
ATOM     56  F   UNL     1       5.582   6.877  14.869  0.00  0.00    -0.164 F 
ATOM     57  F   UNL     1       6.589   5.445  16.156  0.00  0.00    -0.164 F 
ATOM     58  F   UNL     1       6.630   7.566  16.648  0.00  0.00    -0.164 F 
ENDBRANCH  36  55
ENDBRANCH   2  32
TORSDOF 9
ENDMDL
MODEL 27
REMARK VINA RESULT:    -7.247      4.393      9.884
REMARK INTER + INTRA:         -11.680
REMARK INTER:                 -10.626
REMARK INTRA:                  -1.053
REMARK UNBOUND:                -1.044
REMARK  Name = 
REMARK  9 active torsions:
REMARK  status: ('A' for Active; 'I' for Inactive)
REMARK    1  A    between atoms: C_1  and  C_2
REMARK    2  A    between atoms: C_2  and  S_3
REMARK    3  A    between atoms: C_2  and  C_10
REMARK    4  A    between atoms: S_3  and  C_4
REMARK    5  A    between atoms: N_8  and  C_9
REMARK    6  A    between atoms: C_14  and  N_15
REMARK    7  A    between atoms: C_16  and  C_18
REMARK    8  A    between atoms: C_20  and  C_21
REMARK    9  A    between atoms: C_29  and  C_30
REMARK                            x       y       z     vdW  Elec       q    Type
REMARK                         _______ _______ _______ _____ _____    ______ ____
ROOT
ATOM      1  N   UNL     1       2.144   7.819  18.250  0.00  0.00    -0.280 N 
ATOM      2  C   UNL     1       1.635   8.360  19.414  0.00  0.00    +0.267 C 
ATOM      3  O   UNL     1       1.571   7.833  20.518  0.00  0.00    -0.268 OA
ATOM      4  H   UNL     1       2.117   8.446  17.450  0.00  0.00    +0.155 HD
ENDROOT
BRANCH   1   9
ATOM      5  C   UNL     1       4.661   5.194  17.517  0.00  0.00    -0.033 A 
ATOM      6  C   UNL     1       3.868   4.041  17.570  0.00  0.00    -0.057 A 
ATOM      7  C   UNL     1       2.506   4.127  17.857  0.00  0.00    -0.060 A 
ATOM      8  C   UNL     1       1.908   5.367  18.091  0.00  0.00    -0.040 A 
ATOM      9  C   UNL     1       2.670   6.531  18.043  0.00  0.00    +0.034 A 
ATOM     10  C   UNL     1       4.042   6.436  17.766  0.00  0.00    -0.036 A 
ATOM     11  H   UNL     1       4.297   3.057  17.395  0.00  0.00    +0.062 HD
ATOM     12  H   UNL     1       1.905   3.222  17.901  0.00  0.00    +0.062 HD
ATOM     13  H   UNL     1       0.844   5.388  18.305  0.00  0.00    +0.064 HD
ATOM     14  H   UNL     1       4.645   7.343  17.739  0.00  0.00    +0.064 HD
BRANCH   5  15
ATOM     15  C   UNL     1       6.149   5.146  17.211  0.00  0.00    +0.035 C 
ATOM     16  H   UNL     1       6.370   4.102  16.948  0.00  0.00    +0.046 HD
BRANCH  15  17
ATOM     17  C   UNL     1       7.062   5.424  18.410  0.00  0.00    -0.049 C 
ATOM     18  H   UNL     1       8.054   5.793  18.133  0.00  0.00    +0.024 HD
ATOM     19  H   UNL     1       6.610   6.194  19.046  0.00  0.00    +0.024 HD
ATOM     20  H   UNL     1       7.190   4.527  19.025  0.00  0.00    +0.024 HD
ENDBRANCH  15  17
BRANCH  15  21
ATOM     21  S   UNL     1       6.583   6.042  15.681  0.00  0.00    -0.078 S 
BRANCH  21  22
ATOM     22  C   UNL     1       6.365   4.911  14.398  0.00  0.00    +0.192 A 
ATOM     23  N   UNL     1       5.423   4.008  14.266  0.00  0.00    -0.123 NA
ATOM     24  N   UNL     1       5.608   3.373  13.059  0.00  0.00    -0.137 NA
ATOM     25  C   UNL     1       6.662   3.911  12.488  0.00  0.00    +0.120 A 
ATOM     26  N   UNL     1       7.187   4.865  13.307  0.00  0.00    -0.312 N 
ATOM     27  H   UNL     1       7.068   3.646  11.520  0.00  0.00    +0.105 HD
BRANCH  26  28
ATOM     28  C   UNL     1       8.360   5.650  13.039  0.00  0.00    +0.015 C 
ATOM     29  H   UNL     1       8.953   5.742  13.953  0.00  0.00    +0.046 HD
ATOM     30  H   UNL     1       8.050   6.644  12.710  0.00  0.00    +0.046 HD
ATOM     31  H   UNL     1       8.950   5.152  12.265  0.00  0.00    +0.046 HD
ENDBRANCH  26  28
ENDBRANCH  21  22
ENDBRANCH  15  21
ENDBRANCH   5  15
ENDBRANCH   1   9
BRANCH   2  32
ATOM     32  C   UNL     1       1.133   9.762  19.231  0.00  0.00    +0.127 A 
ATOM     33  C   UNL     1      -0.217  10.037  19.338  0.00  0.00    -0.019 A 
ATOM     34  C   UNL     1      -0.608  11.361  19.183  0.00  0.00    +0.041 A 
ATOM     35  C   UNL     1       0.329  12.356  18.889  0.00  0.00    -0.019 A 
ATOM     36  C   UNL     1       1.670  11.998  18.782  0.00  0.00    +0.145 A 
ATOM     37  N   UNL     1       2.084  10.710  18.969  0.00  0.00    -0.238 NA
ATOM     38  H   UNL     1      -0.942   9.254  19.533  0.00  0.00    +0.065 HD
ATOM     39  H   UNL     1       0.012  13.384  18.727  0.00  0.00    +0.065 HD
BRANCH  34  40
ATOM     40  C   UNL     1      -2.041  11.695  19.274  0.00  0.00    +0.247 C 
ATOM     41  O   UNL     1      -2.441  12.239  20.296  0.00  0.00    -0.270 OA
ATOM     42  N   UNL     1      -2.850  11.373  18.204  0.00  0.00    -0.298 N 
ATOM     43  C   UNL     1      -4.266  11.694  18.230  0.00  0.00    +0.015 C 
ATOM     44  C   UNL     1      -4.809  11.068  16.955  0.00  0.00    -0.036 C 
ATOM     45  C   UNL     1      -3.640  11.217  15.989  0.00  0.00    -0.036 C 
ATOM     46  C   UNL     1      -2.429  10.957  16.871  0.00  0.00    +0.015 C 
ATOM     47  H   UNL     1      -4.737  11.307  19.140  0.00  0.00    +0.046 HD
ATOM     48  H   UNL     1      -4.367  12.786  18.215  0.00  0.00    +0.046 HD
ATOM     49  H   UNL     1      -5.722  11.552  16.604  0.00  0.00    +0.028 HD
ATOM     50  H   UNL     1      -5.019  10.004  17.115  0.00  0.00    +0.028 HD
ATOM     51  H   UNL     1      -3.606  12.243  15.601  0.00  0.00    +0.028 HD
ATOM     52  H   UNL     1      -3.698  10.530  15.138  0.00  0.00    +0.028 HD
ATOM     53  H   UNL     1      -1.544  11.511  16.550  0.00  0.00    +0.046 HD
ATOM     54  H   UNL     1      -2.195   9.890  16.908  0.00  0.00    +0.046 HD
ENDBRANCH  34  40
BRANCH  36  55
ATOM     55  C   UNL     1       2.692  13.077  18.445  0.00  0.00    +0.434 C 
ATOM     56  F   UNL     1       2.146  14.097  17.722  0.00  0.00    -0.164 F 
ATOM     57  F   UNL     1       3.721  12.601  17.689  0.00  0.00    -0.164 F 
ATOM     58  F   UNL     1       3.264  13.657  19.537  0.00  0.00    -0.164 F 
ENDBRANCH  36  55
ENDBRANCH   2  32
TORSDOF 9
ENDMDL
MODEL 28
REMARK VINA RESULT:    -7.228      2.737      4.111
REMARK INTER + INTRA:         -11.652
REMARK INTER:                 -10.438
REMARK INTRA:                  -1.214
REMARK UNBOUND:                -1.044
REMARK  Name = 
REMARK  9 active torsions:
REMARK  status: ('A' for Active; 'I' for Inactive)
REMARK    1  A    between atoms: C_1  and  C_2
REMARK    2  A    between atoms: C_2  and  S_3
REMARK    3  A    between atoms: C_2  and  C_10
REMARK    4  A    between atoms: S_3  and  C_4
REMARK    5  A    between atoms: N_8  and  C_9
REMARK    6  A    between atoms: C_14  and  N_15
REMARK    7  A    between atoms: C_16  and  C_18
REMARK    8  A    between atoms: C_20  and  C_21
REMARK    9  A    between atoms: C_29  and  C_30
REMARK                            x       y       z     vdW  Elec       q    Type
REMARK                         _______ _______ _______ _____ _____    ______ ____
ROOT
ATOM      1  N   UNL     1       0.637   9.254  19.283  0.00  0.00    -0.280 N 
ATOM      2  C   UNL     1       1.736   9.082  18.464  0.00  0.00    +0.267 C 
ATOM      3  O   UNL     1       2.269   9.917  17.743  0.00  0.00    -0.268 OA
ATOM      4  H   UNL     1       0.377   8.427  19.813  0.00  0.00    +0.155 HD
ENDROOT
BRANCH   1   9
ATOM      5  C   UNL     1      -0.524  12.458  20.750  0.00  0.00    -0.033 A 
ATOM      6  C   UNL     1      -1.641  12.729  19.950  0.00  0.00    -0.057 A 
ATOM      7  C   UNL     1      -2.007  11.862  18.920  0.00  0.00    -0.060 A 
ATOM      8  C   UNL     1      -1.267  10.704  18.673  0.00  0.00    -0.040 A 
ATOM      9  C   UNL     1      -0.152  10.406  19.453  0.00  0.00    +0.034 A 
ATOM     10  C   UNL     1       0.217  11.289  20.479  0.00  0.00    -0.036 A 
ATOM     11  H   UNL     1      -2.243  13.621  20.110  0.00  0.00    +0.062 HD
ATOM     12  H   UNL     1      -2.873  12.090  18.304  0.00  0.00    +0.062 HD
ATOM     13  H   UNL     1      -1.590  10.054  17.866  0.00  0.00    +0.064 HD
ATOM     14  H   UNL     1       1.094  11.067  21.084  0.00  0.00    +0.064 HD
BRANCH   5  15
ATOM     15  C   UNL     1      -0.089  13.376  21.879  0.00  0.00    +0.035 C 
ATOM     16  H   UNL     1       0.820  12.926  22.302  0.00  0.00    +0.046 HD
BRANCH  15  17
ATOM     17  C   UNL     1      -1.056  13.439  23.067  0.00  0.00    -0.049 C 
ATOM     18  H   UNL     1      -1.724  14.304  23.047  0.00  0.00    +0.024 HD
ATOM     19  H   UNL     1      -1.697  12.550  23.066  0.00  0.00    +0.024 HD
ATOM     20  H   UNL     1      -0.512  13.447  24.018  0.00  0.00    +0.024 HD
ENDBRANCH  15  17
BRANCH  15  21
ATOM     21  S   UNL     1       0.510  14.993  21.281  0.00  0.00    -0.078 S 
BRANCH  21  22
ATOM     22  C   UNL     1       1.592  14.642  19.985  0.00  0.00    +0.192 A 
ATOM     23  N   UNL     1       1.347  14.668  18.696  0.00  0.00    -0.123 NA
ATOM     24  N   UNL     1       2.518  14.378  18.034  0.00  0.00    -0.137 NA
ATOM     25  C   UNL     1       3.447  14.185  18.943  0.00  0.00    +0.120 A 
ATOM     26  N   UNL     1       2.903  14.314  20.185  0.00  0.00    -0.312 N 
ATOM     27  H   UNL     1       4.487  13.953  18.752  0.00  0.00    +0.105 HD
BRANCH  26  28
ATOM     28  C   UNL     1       3.601  14.144  21.430  0.00  0.00    +0.015 C 
ATOM     29  H   UNL     1       3.462  13.120  21.788  0.00  0.00    +0.046 HD
ATOM     30  H   UNL     1       3.186  14.841  22.162  0.00  0.00    +0.046 HD
ATOM     31  H   UNL     1       4.664  14.337  21.269  0.00  0.00    +0.046 HD
ENDBRANCH  26  28
ENDBRANCH  21  22
ENDBRANCH  15  21
ENDBRANCH   5  15
ENDBRANCH   1   9
BRANCH   2  32
ATOM     32  C   UNL     1       2.296   7.692  18.528  0.00  0.00    +0.127 A 
ATOM     33  C   UNL     1       3.395   7.349  17.764  0.00  0.00    -0.019 A 
ATOM     34  C   UNL     1       3.876   6.052  17.894  0.00  0.00    +0.041 A 
ATOM     35  C   UNL     1       3.239   5.131  18.731  0.00  0.00    -0.019 A 
ATOM     36  C   UNL     1       2.126   5.548  19.456  0.00  0.00    +0.145 A 
ATOM     37  N   UNL     1       1.658   6.829  19.376  0.00  0.00    -0.238 NA
ATOM     38  H   UNL     1       3.864   8.059  17.092  0.00  0.00    +0.065 HD
ATOM     39  H   UNL     1       3.594   4.104  18.795  0.00  0.00    +0.065 HD
BRANCH  34  40
ATOM     40  C   UNL     1       5.038   5.640  17.086  0.00  0.00    +0.247 C 
ATOM     41  O   UNL     1       4.912   5.617  15.868  0.00  0.00    -0.270 OA
ATOM     42  N   UNL     1       6.200   5.300  17.748  0.00  0.00    -0.298 N 
ATOM     43  C   UNL     1       7.382   4.904  17.003  0.00  0.00    +0.015 C 
ATOM     44  C   UNL     1       8.374   4.492  18.078  0.00  0.00    -0.036 C 
ATOM     45  C   UNL     1       8.032   5.436  19.224  0.00  0.00    -0.036 C 
ATOM     46  C   UNL     1       6.515   5.528  19.153  0.00  0.00    +0.015 C 
ATOM     47  H   UNL     1       7.146   4.101  16.297  0.00  0.00    +0.046 HD
ATOM     48  H   UNL     1       7.738   5.776  16.441  0.00  0.00    +0.046 HD
ATOM     49  H   UNL     1       9.411   4.574  17.748  0.00  0.00    +0.028 HD
ATOM     50  H   UNL     1       8.188   3.457  18.388  0.00  0.00    +0.028 HD
ATOM     51  H   UNL     1       8.475   6.423  19.038  0.00  0.00    +0.028 HD
ATOM     52  H   UNL     1       8.388   5.077  20.195  0.00  0.00    +0.028 HD
ATOM     53  H   UNL     1       6.134   6.496  19.487  0.00  0.00    +0.046 HD
ATOM     54  H   UNL     1       6.048   4.733  19.739  0.00  0.00    +0.046 HD
ENDBRANCH  34  40
BRANCH  36  55
ATOM     55  C   UNL     1       1.419   4.541  20.355  0.00  0.00    +0.434 C 
ATOM     56  F   UNL     1       2.108   4.306  21.509  0.00  0.00    -0.164 F 
ATOM     57  F   UNL     1       1.274   3.324  19.760  0.00  0.00    -0.164 F 
ATOM     58  F   UNL     1       0.168   4.925  20.738  0.00  0.00    -0.164 F 
ENDBRANCH  36  55
ENDBRANCH   2  32
TORSDOF 9
ENDMDL
MODEL 29
REMARK VINA RESULT:    -7.227      4.146     10.048
REMARK INTER + INTRA:         -11.652
REMARK INTER:                 -10.937
REMARK INTRA:                  -0.714
REMARK UNBOUND:                -1.044
REMARK  Name = 
REMARK  9 active torsions:
REMARK  status: ('A' for Active; 'I' for Inactive)
REMARK    1  A    between atoms: C_1  and  C_2
REMARK    2  A    between atoms: C_2  and  S_3
REMARK    3  A    between atoms: C_2  and  C_10
REMARK    4  A    between atoms: S_3  and  C_4
REMARK    5  A    between atoms: N_8  and  C_9
REMARK    6  A    between atoms: C_14  and  N_15
REMARK    7  A    between atoms: C_16  and  C_18
REMARK    8  A    between atoms: C_20  and  C_21
REMARK    9  A    between atoms: C_29  and  C_30
REMARK                            x       y       z     vdW  Elec       q    Type
REMARK                         _______ _______ _______ _____ _____    ______ ____
ROOT
ATOM      1  N   UNL     1       1.226   8.002  19.835  0.00  0.00    -0.280 N 
ATOM      2  C   UNL     1       1.081   8.818  20.940  0.00  0.00    +0.267 C 
ATOM      3  O   UNL     1       1.574   8.667  22.052  0.00  0.00    -0.268 OA
ATOM      4  H   UNL     1       0.743   8.333  19.004  0.00  0.00    +0.155 HD
ENDROOT
BRANCH   1   9
ATOM      5  C   UNL     1       3.361   5.366  18.333  0.00  0.00    -0.033 A 
ATOM      6  C   UNL     1       3.361   4.408  19.354  0.00  0.00    -0.057 A 
ATOM      7  C   UNL     1       2.666   4.633  20.542  0.00  0.00    -0.060 A 
ATOM      8  C   UNL     1       1.952   5.818  20.731  0.00  0.00    -0.040 A 
ATOM      9  C   UNL     1       1.932   6.790  19.733  0.00  0.00    +0.034 A 
ATOM     10  C   UNL     1       2.643   6.561  18.546  0.00  0.00    -0.036 A 
ATOM     11  H   UNL     1       3.906   3.472  19.245  0.00  0.00    +0.062 HD
ATOM     12  H   UNL     1       2.681   3.882  21.327  0.00  0.00    +0.062 HD
ATOM     13  H   UNL     1       1.421   5.950  21.668  0.00  0.00    +0.064 HD
ATOM     14  H   UNL     1       2.641   7.322  17.767  0.00  0.00    +0.064 HD
BRANCH   5  15
ATOM     15  C   UNL     1       4.107   5.163  17.025  0.00  0.00    +0.035 C 
ATOM     16  H   UNL     1       3.366   5.310  16.227  0.00  0.00    +0.046 HD
BRANCH  15  17
ATOM     17  C   UNL     1       4.620   3.737  16.791  0.00  0.00    -0.049 C 
ATOM     18  H   UNL     1       4.065   2.973  17.342  0.00  0.00    +0.024 HD
ATOM     19  H   UNL     1       4.528   3.483  15.729  0.00  0.00    +0.024 HD
ATOM     20  H   UNL     1       5.679   3.651  17.055  0.00  0.00    +0.024 HD
ENDBRANCH  15  17
BRANCH  15  21
ATOM     21  S   UNL     1       5.319   6.487  16.692  0.00  0.00    -0.078 S 
BRANCH  21  22
ATOM     22  C   UNL     1       6.559   6.296  17.875  0.00  0.00    +0.192 A 
ATOM     23  N   UNL     1       6.770   5.273  18.668  0.00  0.00    -0.123 NA
ATOM     24  N   UNL     1       7.906   5.530  19.402  0.00  0.00    -0.137 NA
ATOM     25  C   UNL     1       8.356   6.707  19.031  0.00  0.00    +0.120 A 
ATOM     26  N   UNL     1       7.524   7.239  18.092  0.00  0.00    -0.312 N 
ATOM     27  H   UNL     1       9.245   7.198  19.408  0.00  0.00    +0.105 HD
BRANCH  26  28
ATOM     28  C   UNL     1       7.672   8.526  17.470  0.00  0.00    +0.015 C 
ATOM     29  H   UNL     1       7.612   9.307  18.233  0.00  0.00    +0.046 HD
ATOM     30  H   UNL     1       6.861   8.663  16.751  0.00  0.00    +0.046 HD
ATOM     31  H   UNL     1       8.643   8.570  16.973  0.00  0.00    +0.046 HD
ENDBRANCH  26  28
ENDBRANCH  21  22
ENDBRANCH  15  21
ENDBRANCH   5  15
ENDBRANCH   1   9
BRANCH   2  32
ATOM     32  C   UNL     1       0.221  10.016  20.667  0.00  0.00    +0.127 A 
ATOM     33  C   UNL     1       0.207  11.079  21.551  0.00  0.00    -0.019 A 
ATOM     34  C   UNL     1      -0.592  12.166  21.221  0.00  0.00    +0.041 A 
ATOM     35  C   UNL     1      -1.379  12.154  20.066  0.00  0.00    -0.019 A 
ATOM     36  C   UNL     1      -1.323  11.040  19.234  0.00  0.00    +0.145 A 
ATOM     37  N   UNL     1      -0.514   9.976  19.515  0.00  0.00    -0.238 NA
ATOM     38  H   UNL     1       0.795  11.066  22.463  0.00  0.00    +0.065 HD
ATOM     39  H   UNL     1      -2.036  12.991  19.836  0.00  0.00    +0.065 HD
BRANCH  34  40
ATOM     40  C   UNL     1      -0.647  13.314  22.145  0.00  0.00    +0.247 C 
ATOM     41  O   UNL     1       0.241  14.154  22.071  0.00  0.00    -0.270 OA
ATOM     42  N   UNL     1      -1.694  13.375  23.042  0.00  0.00    -0.298 N 
ATOM     43  C   UNL     1      -1.809  14.492  23.963  0.00  0.00    +0.015 C 
ATOM     44  C   UNL     1      -2.989  14.120  24.846  0.00  0.00    -0.036 C 
ATOM     45  C   UNL     1      -3.894  13.356  23.887  0.00  0.00    -0.036 C 
ATOM     46  C   UNL     1      -2.908  12.567  23.039  0.00  0.00    +0.015 C 
ATOM     47  H   UNL     1      -0.877  14.635  24.519  0.00  0.00    +0.046 HD
ATOM     48  H   UNL     1      -2.016  15.395  23.378  0.00  0.00    +0.046 HD
ATOM     49  H   UNL     1      -3.472  14.991  25.292  0.00  0.00    +0.028 HD
ATOM     50  H   UNL     1      -2.663  13.452  25.652  0.00  0.00    +0.028 HD
ATOM     51  H   UNL     1      -4.447  14.062  23.256  0.00  0.00    +0.028 HD
ATOM     52  H   UNL     1      -4.617  12.714  24.400  0.00  0.00    +0.028 HD
ATOM     53  H   UNL     1      -3.264  12.401  22.020  0.00  0.00    +0.046 HD
ATOM     54  H   UNL     1      -2.676  11.605  23.503  0.00  0.00    +0.046 HD
ENDBRANCH  34  40
BRANCH  36  55
ATOM     55  C   UNL     1      -2.192  11.017  17.982  0.00  0.00    +0.434 C 
ATOM     56  F   UNL     1      -2.191   9.795  17.375  0.00  0.00    -0.164 F 
ATOM     57  F   UNL     1      -1.764  11.898  17.035  0.00  0.00    -0.164 F 
ATOM     58  F   UNL     1      -3.501  11.319  18.213  0.00  0.00    -0.164 F 
ENDBRANCH  36  55
ENDBRANCH   2  32
TORSDOF 9
ENDMDL
MODEL 30
REMARK VINA RESULT:    -7.213      4.770     10.080
REMARK INTER + INTRA:         -11.630
REMARK INTER:                 -10.769
REMARK INTRA:                  -0.861
REMARK UNBOUND:                -1.044
REMARK  Name = 
REMARK  9 active torsions:
REMARK  status: ('A' for Active; 'I' for Inactive)
REMARK    1  A    between atoms: C_1  and  C_2
REMARK    2  A    between atoms: C_2  and  S_3
REMARK    3  A    between atoms: C_2  and  C_10
REMARK    4  A    between atoms: S_3  and  C_4
REMARK    5  A    between atoms: N_8  and  C_9
REMARK    6  A    between atoms: C_14  and  N_15
REMARK    7  A    between atoms: C_16  and  C_18
REMARK    8  A    between atoms: C_20  and  C_21
REMARK    9  A    between atoms: C_29  and  C_30
REMARK                            x       y       z     vdW  Elec       q    Type
REMARK                         _______ _______ _______ _____ _____    ______ ____
ROOT
ATOM      1  N   UNL     1       1.596   8.271  20.070  0.00  0.00    -0.280 N 
ATOM      2  C   UNL     1       1.330   9.139  19.029  0.00  0.00    +0.267 C 
ATOM      3  O   UNL     1       1.337   8.892  17.829  0.00  0.00    -0.268 OA
ATOM      4  H   UNL     1       1.511   8.687  20.994  0.00  0.00    +0.155 HD
ENDROOT
BRANCH   1   9
ATOM      5  C   UNL     1       3.235   5.206  18.774  0.00  0.00    -0.033 A 
ATOM      6  C   UNL     1       2.795   4.255  19.702  0.00  0.00    -0.057 A 
ATOM      7  C   UNL     1       1.966   4.624  20.762  0.00  0.00    -0.060 A 
ATOM      8  C   UNL     1       1.556   5.950  20.911  0.00  0.00    -0.040 A 
ATOM      9  C   UNL     1       1.976   6.919  20.003  0.00  0.00    +0.034 A 
ATOM     10  C   UNL     1       2.819   6.542  18.946  0.00  0.00    -0.036 A 
ATOM     11  H   UNL     1       3.093   3.211  19.621  0.00  0.00    +0.062 HD
ATOM     12  H   UNL     1       1.638   3.874  21.477  0.00  0.00    +0.062 HD
ATOM     13  H   UNL     1       0.906   6.192  21.746  0.00  0.00    +0.064 HD
ATOM     14  H   UNL     1       3.160   7.298  18.241  0.00  0.00    +0.064 HD
BRANCH   5  15
ATOM     15  C   UNL     1       4.141   4.848  17.608  0.00  0.00    +0.035 C 
ATOM     16  H   UNL     1       4.256   5.768  17.019  0.00  0.00    +0.046 HD
BRANCH  15  17
ATOM     17  C   UNL     1       3.544   3.847  16.612  0.00  0.00    -0.049 C 
ATOM     18  H   UNL     1       3.595   4.177  15.571  0.00  0.00    +0.024 HD
ATOM     19  H   UNL     1       4.095   2.901  16.666  0.00  0.00    +0.024 HD
ATOM     20  H   UNL     1       2.498   3.628  16.852  0.00  0.00    +0.024 HD
ENDBRANCH  15  17
BRANCH  15  21
ATOM     21  S   UNL     1       5.854   4.493  18.130  0.00  0.00    -0.078 S 
BRANCH  21  22
ATOM     22  C   UNL     1       6.719   5.972  17.935  0.00  0.00    +0.192 A 
ATOM     23  N   UNL     1       6.517   6.917  17.047  0.00  0.00    -0.123 NA
ATOM     24  N   UNL     1       7.403   7.939  17.304  0.00  0.00    -0.137 NA
ATOM     25  C   UNL     1       8.120   7.586  18.346  0.00  0.00    +0.120 A 
ATOM     26  N   UNL     1       7.743   6.343  18.760  0.00  0.00    -0.312 N 
ATOM     27  H   UNL     1       8.899   8.175  18.814  0.00  0.00    +0.105 HD
BRANCH  26  28
ATOM     28  C   UNL     1       8.321   5.610  19.852  0.00  0.00    +0.015 C 
ATOM     29  H   UNL     1       8.407   6.265  20.724  0.00  0.00    +0.046 HD
ATOM     30  H   UNL     1       9.316   5.269  19.559  0.00  0.00    +0.046 HD
ATOM     31  H   UNL     1       7.675   4.762  20.090  0.00  0.00    +0.046 HD
ENDBRANCH  26  28
ENDBRANCH  21  22
ENDBRANCH  15  21
ENDBRANCH   5  15
ENDBRANCH   1   9
BRANCH   2  32
ATOM     32  C   UNL     1       0.987  10.522  19.500  0.00  0.00    +0.127 A 
ATOM     33  C   UNL     1       0.022  10.706  20.472  0.00  0.00    -0.019 A 
ATOM     34  C   UNL     1      -0.225  12.011  20.878  0.00  0.00    +0.041 A 
ATOM     35  C   UNL     1       0.449  13.086  20.290  0.00  0.00    -0.019 A 
ATOM     36  C   UNL     1       1.396  12.820  19.305  0.00  0.00    +0.145 A 
ATOM     37  N   UNL     1       1.686  11.543  18.917  0.00  0.00    -0.238 NA
ATOM     38  H   UNL     1      -0.520   9.870  20.899  0.00  0.00    +0.065 HD
ATOM     39  H   UNL     1       0.220  14.109  20.583  0.00  0.00    +0.065 HD
BRANCH  34  40
ATOM     40  C   UNL     1      -1.258  12.254  21.903  0.00  0.00    +0.247 C 
ATOM     41  O   UNL     1      -0.906  12.297  23.075  0.00  0.00    -0.270 OA
ATOM     42  N   UNL     1      -2.562  12.414  21.482  0.00  0.00    -0.298 N 
ATOM     43  C   UNL     1      -3.618  12.673  22.444  0.00  0.00    +0.015 C 
ATOM     44  C   UNL     1      -4.889  12.652  21.610  0.00  0.00    -0.036 C 
ATOM     45  C   UNL     1      -4.420  13.219  20.276  0.00  0.00    -0.036 C 
ATOM     46  C   UNL     1      -3.031  12.620  20.116  0.00  0.00    +0.015 C 
ATOM     47  H   UNL     1      -3.609  11.925  23.243  0.00  0.00    +0.046 HD
ATOM     48  H   UNL     1      -3.443  13.663  22.883  0.00  0.00    +0.046 HD
ATOM     49  H   UNL     1      -5.699  13.228  22.062  0.00  0.00    +0.028 HD
ATOM     50  H   UNL     1      -5.232  11.620  21.469  0.00  0.00    +0.028 HD
ATOM     51  H   UNL     1      -4.349  14.313  20.340  0.00  0.00    +0.028 HD
ATOM     52  H   UNL     1      -5.086  12.966  19.445  0.00  0.00    +0.028 HD
ATOM     53  H   UNL     1      -2.350  13.271  19.563  0.00  0.00    +0.046 HD
ATOM     54  H   UNL     1      -3.081  11.645  19.625  0.00  0.00    +0.046 HD
ENDBRANCH  34  40
BRANCH  36  55
ATOM     55  C   UNL     1       2.119  13.990  18.650  0.00  0.00    +0.434 C 
ATOM     56  F   UNL     1       2.532  13.698  17.383  0.00  0.00    -0.164 F 
ATOM     57  F   UNL     1       3.245  14.352  19.329  0.00  0.00    -0.164 F 
ATOM     58  F   UNL     1       1.363  15.119  18.546  0.00  0.00    -0.164 F 
ENDBRANCH  36  55
ENDBRANCH   2  32
TORSDOF 9
ENDMDL
MODEL 31
REMARK VINA RESULT:    -7.074      2.511      3.490
REMARK INTER + INTRA:         -11.427
REMARK INTER:                 -10.853
REMARK INTRA:                  -0.573
REMARK UNBOUND:                -1.044
REMARK  Name = 
REMARK  9 active torsions:
REMARK  status: ('A' for Active; 'I' for Inactive)
REMARK    1  A    between atoms: C_1  and  C_2
REMARK    2  A    between atoms: C_2  and  S_3
REMARK    3  A    between atoms: C_2  and  C_10
REMARK    4  A    between atoms: S_3  and  C_4
REMARK    5  A    between atoms: N_8  and  C_9
REMARK    6  A    between atoms: C_14  and  N_15
REMARK    7  A    between atoms: C_16  and  C_18
REMARK    8  A    between atoms: C_20  and  C_21
REMARK    9  A    between atoms: C_29  and  C_30
REMARK                            x       y       z     vdW  Elec       q    Type
REMARK                         _______ _______ _______ _____ _____    ______ ____
ROOT
ATOM      1  N   UNL     1       2.111   7.831  19.260  0.00  0.00    -0.280 N 
ATOM      2  C   UNL     1       2.053   6.622  19.926  0.00  0.00    +0.267 C 
ATOM      3  O   UNL     1       1.230   6.268  20.762  0.00  0.00    -0.268 OA
ATOM      4  H   UNL     1       2.871   7.902  18.588  0.00  0.00    +0.155 HD
ENDROOT
BRANCH   1   9
ATOM      5  C   UNL     1       0.067  10.409  20.973  0.00  0.00    -0.033 A 
ATOM      6  C   UNL     1      -0.421  11.134  19.878  0.00  0.00    -0.057 A 
ATOM      7  C   UNL     1      -0.069  10.780  18.575  0.00  0.00    -0.060 A 
ATOM      8  C   UNL     1       0.773   9.691  18.341  0.00  0.00    -0.040 A 
ATOM      9  C   UNL     1       1.273   8.950  19.409  0.00  0.00    +0.034 A 
ATOM     10  C   UNL     1       0.924   9.319  20.717  0.00  0.00    -0.036 A 
ATOM     11  H   UNL     1      -1.079  11.989  20.020  0.00  0.00    +0.062 HD
ATOM     12  H   UNL     1      -0.451  11.357  17.737  0.00  0.00    +0.062 HD
ATOM     13  H   UNL     1       1.016   9.447  17.312  0.00  0.00    +0.064 HD
ATOM     14  H   UNL     1       1.321   8.751  21.556  0.00  0.00    +0.064 HD
BRANCH   5  15
ATOM     15  C   UNL     1      -0.289  10.763  22.407  0.00  0.00    +0.035 C 
ATOM     16  H   UNL     1       0.427  11.538  22.714  0.00  0.00    +0.046 HD
BRANCH  15  17
ATOM     17  C   UNL     1      -0.068   9.635  23.422  0.00  0.00    -0.049 C 
ATOM     18  H   UNL     1       0.934   9.625  23.859  0.00  0.00    +0.024 HD
ATOM     19  H   UNL     1      -0.770   9.750  24.256  0.00  0.00    +0.024 HD
ATOM     20  H   UNL     1      -0.256   8.655  22.970  0.00  0.00    +0.024 HD
ENDBRANCH  15  17
BRANCH  15  21
ATOM     21  S   UNL     1      -1.891  11.626  22.543  0.00  0.00    -0.078 S 
BRANCH  21  22
ATOM     22  C   UNL     1      -1.558  13.286  22.216  0.00  0.00    +0.192 A 
ATOM     23  N   UNL     1      -0.544  14.006  22.632  0.00  0.00    -0.123 NA
ATOM     24  N   UNL     1      -0.654  15.260  22.075  0.00  0.00    -0.137 NA
ATOM     25  C   UNL     1      -1.737  15.267  21.332  0.00  0.00    +0.120 A 
ATOM     26  N   UNL     1      -2.353  14.054  21.412  0.00  0.00    -0.312 N 
ATOM     27  H   UNL     1      -2.102  16.100  20.744  0.00  0.00    +0.105 HD
BRANCH  26  28
ATOM     28  C   UNL     1      -3.581  13.691  20.759  0.00  0.00    +0.015 C 
ATOM     29  H   UNL     1      -4.236  13.186  21.474  0.00  0.00    +0.046 HD
ATOM     30  H   UNL     1      -3.353  13.009  19.937  0.00  0.00    +0.046 HD
ATOM     31  H   UNL     1      -4.067  14.596  20.389  0.00  0.00    +0.046 HD
ENDBRANCH  26  28
ENDBRANCH  21  22
ENDBRANCH  15  21
ENDBRANCH   5  15
ENDBRANCH   1   9
BRANCH   2  32
ATOM     32  C   UNL     1       3.147   5.681  19.517  0.00  0.00    +0.127 A 
ATOM     33  C   UNL     1       4.157   6.111  18.678  0.00  0.00    -0.019 A 
ATOM     34  C   UNL     1       5.152   5.194  18.363  0.00  0.00    +0.041 A 
ATOM     35  C   UNL     1       5.097   3.882  18.843  0.00  0.00    -0.019 A 
ATOM     36  C   UNL     1       4.038   3.520  19.671  0.00  0.00    +0.145 A 
ATOM     37  N   UNL     1       3.070   4.414  20.028  0.00  0.00    -0.238 NA
ATOM     38  H   UNL     1       4.175   7.121  18.282  0.00  0.00    +0.065 HD
ATOM     39  H   UNL     1       5.856   3.157  18.557  0.00  0.00    +0.065 HD
BRANCH  34  40
ATOM     40  C   UNL     1       6.240   5.608  17.458  0.00  0.00    +0.247 C 
ATOM     41  O   UNL     1       7.108   6.347  17.904  0.00  0.00    -0.270 OA
ATOM     42  N   UNL     1       6.216   5.142  16.160  0.00  0.00    -0.298 N 
ATOM     43  C   UNL     1       7.271   5.502  15.229  0.00  0.00    +0.015 C 
ATOM     44  C   UNL     1       6.812   4.912  13.905  0.00  0.00    -0.036 C 
ATOM     45  C   UNL     1       6.082   3.648  14.342  0.00  0.00    -0.036 C 
ATOM     46  C   UNL     1       5.375   4.082  15.617  0.00  0.00    +0.015 C 
ATOM     47  H   UNL     1       7.408   6.588  15.197  0.00  0.00    +0.046 HD
ATOM     48  H   UNL     1       8.202   5.037  15.574  0.00  0.00    +0.046 HD
ATOM     49  H   UNL     1       7.641   4.716  13.222  0.00  0.00    +0.028 HD
ATOM     50  H   UNL     1       6.107   5.591  13.412  0.00  0.00    +0.028 HD
ATOM     51  H   UNL     1       6.809   2.857  14.569  0.00  0.00    +0.028 HD
ATOM     52  H   UNL     1       5.389   3.270  13.583  0.00  0.00    +0.028 HD
ATOM     53  H   UNL     1       5.260   3.267  16.336  0.00  0.00    +0.046 HD
ATOM     54  H   UNL     1       4.394   4.508  15.393  0.00  0.00    +0.046 HD
ENDBRANCH  34  40
BRANCH  36  55
ATOM     55  C   UNL     1       3.967   2.086  20.183  0.00  0.00    +0.434 C 
ATOM     56  F   UNL     1       5.185   1.473  20.172  0.00  0.00    -0.164 F 
ATOM     57  F   UNL     1       3.154   1.302  19.420  0.00  0.00    -0.164 F 
ATOM     58  F   UNL     1       3.505   1.978  21.461  0.00  0.00    -0.164 F 
ENDBRANCH  36  55
ENDBRANCH   2  32
TORSDOF 9
ENDMDL
MODEL 32
REMARK VINA RESULT:    -6.978      4.549     10.185
REMARK INTER + INTRA:         -11.285
REMARK INTER:                 -10.241
REMARK INTRA:                  -1.044
REMARK UNBOUND:                -1.044
REMARK  Name = 
REMARK  9 active torsions:
REMARK  status: ('A' for Active; 'I' for Inactive)
REMARK    1  A    between atoms: C_1  and  C_2
REMARK    2  A    between atoms: C_2  and  S_3
REMARK    3  A    between atoms: C_2  and  C_10
REMARK    4  A    between atoms: S_3  and  C_4
REMARK    5  A    between atoms: N_8  and  C_9
REMARK    6  A    between atoms: C_14  and  N_15
REMARK    7  A    between atoms: C_16  and  C_18
REMARK    8  A    between atoms: C_20  and  C_21
REMARK    9  A    between atoms: C_29  and  C_30
REMARK                            x       y       z     vdW  Elec       q    Type
REMARK                         _______ _______ _______ _____ _____    ______ ____
ROOT
ATOM      1  N   UNL     1       2.113   7.901  18.167  0.00  0.00    -0.280 N 
ATOM      2  C   UNL     1       1.629   8.494  19.317  0.00  0.00    +0.267 C 
ATOM      3  O   UNL     1       1.614   8.028  20.450  0.00  0.00    -0.268 OA
ATOM      4  H   UNL     1       2.045   8.482  17.336  0.00  0.00    +0.155 HD
ENDROOT
BRANCH   1   9
ATOM      5  C   UNL     1       4.679   5.294  17.546  0.00  0.00    -0.033 A 
ATOM      6  C   UNL     1       3.907   4.130  17.645  0.00  0.00    -0.057 A 
ATOM      7  C   UNL     1       2.542   4.202  17.926  0.00  0.00    -0.060 A 
ATOM      8  C   UNL     1       1.921   5.440  18.109  0.00  0.00    -0.040 A 
ATOM      9  C   UNL     1       2.663   6.615  18.015  0.00  0.00    +0.034 A 
ATOM     10  C   UNL     1       4.037   6.534  17.743  0.00  0.00    -0.036 A 
ATOM     11  H   UNL     1       4.354   3.147  17.510  0.00  0.00    +0.062 HD
ATOM     12  H   UNL     1       1.958   3.289  18.006  0.00  0.00    +0.062 HD
ATOM     13  H   UNL     1       0.857   5.450  18.320  0.00  0.00    +0.064 HD
ATOM     14  H   UNL     1       4.623   7.449  17.680  0.00  0.00    +0.064 HD
BRANCH   5  15
ATOM     15  C   UNL     1       6.167   5.260  17.244  0.00  0.00    +0.035 C 
ATOM     16  H   UNL     1       6.406   4.213  17.013  0.00  0.00    +0.046 HD
BRANCH  15  17
ATOM     17  C   UNL     1       7.074   5.589  18.436  0.00  0.00    -0.049 C 
ATOM     18  H   UNL     1       6.664   5.278  19.401  0.00  0.00    +0.024 HD
ATOM     19  H   UNL     1       8.032   5.069  18.323  0.00  0.00    +0.024 HD
ATOM     20  H   UNL     1       7.289   6.662  18.484  0.00  0.00    +0.024 HD
ENDBRANCH  15  17
BRANCH  15  21
ATOM     21  S   UNL     1       6.591   6.117  15.689  0.00  0.00    -0.078 S 
BRANCH  21  22
ATOM     22  C   UNL     1       6.392   4.945  14.440  0.00  0.00    +0.192 A 
ATOM     23  N   UNL     1       5.469   4.018  14.339  0.00  0.00    -0.123 NA
ATOM     24  N   UNL     1       5.663   3.352  13.149  0.00  0.00    -0.137 NA
ATOM     25  C   UNL     1       6.701   3.897  12.558  0.00  0.00    +0.120 A 
ATOM     26  N   UNL     1       7.210   4.885  13.346  0.00  0.00    -0.312 N 
ATOM     27  H   UNL     1       7.109   3.613  11.595  0.00  0.00    +0.105 HD
BRANCH  26  28
ATOM     28  C   UNL     1       8.364   5.687  13.049  0.00  0.00    +0.015 C 
ATOM     29  H   UNL     1       8.223   6.184  12.084  0.00  0.00    +0.046 HD
ATOM     30  H   UNL     1       9.239   5.036  12.993  0.00  0.00    +0.046 HD
ATOM     31  H   UNL     1       8.487   6.436  13.834  0.00  0.00    +0.046 HD
ENDBRANCH  26  28
ENDBRANCH  21  22
ENDBRANCH  15  21
ENDBRANCH   5  15
ENDBRANCH   1   9
BRANCH   2  32
ATOM     32  C   UNL     1       1.088   9.873  19.075  0.00  0.00    +0.127 A 
ATOM     33  C   UNL     1      -0.274  10.075  18.962  0.00  0.00    -0.019 A 
ATOM     34  C   UNL     1      -0.705  11.381  18.765  0.00  0.00    +0.041 A 
ATOM     35  C   UNL     1       0.211  12.429  18.643  0.00  0.00    -0.019 A 
ATOM     36  C   UNL     1       1.569  12.142  18.752  0.00  0.00    +0.145 A 
ATOM     37  N   UNL     1       2.017  10.873  18.986  0.00  0.00    -0.238 NA
ATOM     38  H   UNL     1      -0.978   9.252  19.025  0.00  0.00    +0.065 HD
ATOM     39  H   UNL     1      -0.131  13.443  18.445  0.00  0.00    +0.065 HD
BRANCH  34  40
ATOM     40  C   UNL     1      -2.151  11.639  18.624  0.00  0.00    +0.247 C 
ATOM     41  O   UNL     1      -2.694  11.309  17.577  0.00  0.00    -0.270 OA
ATOM     42  N   UNL     1      -2.807  12.240  19.678  0.00  0.00    -0.298 N 
ATOM     43  C   UNL     1      -4.233  12.502  19.603  0.00  0.00    +0.015 C 
ATOM     44  C   UNL     1      -4.533  13.275  20.877  0.00  0.00    -0.036 C 
ATOM     45  C   UNL     1      -3.553  12.666  21.873  0.00  0.00    -0.036 C 
ATOM     46  C   UNL     1      -2.306  12.440  21.033  0.00  0.00    +0.015 C 
ATOM     47  H   UNL     1      -4.480  13.054  18.690  0.00  0.00    +0.046 HD
ATOM     48  H   UNL     1      -4.756  11.538  19.587  0.00  0.00    +0.046 HD
ATOM     49  H   UNL     1      -5.575  13.185  21.189  0.00  0.00    +0.028 HD
ATOM     50  H   UNL     1      -4.302  14.338  20.739  0.00  0.00    +0.028 HD
ATOM     51  H   UNL     1      -3.939  11.705  22.235  0.00  0.00    +0.028 HD
ATOM     52  H   UNL     1      -3.368  13.310  22.739  0.00  0.00    +0.028 HD
ATOM     53  H   UNL     1      -1.722  11.579  21.365  0.00  0.00    +0.046 HD
ATOM     54  H   UNL     1      -1.670  13.329  21.031  0.00  0.00    +0.046 HD
ENDBRANCH  34  40
BRANCH  36  55
ATOM     55  C   UNL     1       2.572  13.280  18.602  0.00  0.00    +0.434 C 
ATOM     56  F   UNL     1       3.607  12.950  17.777  0.00  0.00    -0.164 F 
ATOM     57  F   UNL     1       3.144  13.628  19.789  0.00  0.00    -0.164 F 
ATOM     58  F   UNL     1       2.037  14.424  18.091  0.00  0.00    -0.164 F 
ENDBRANCH  36  55
ENDBRANCH   2  32
TORSDOF 9
ENDMDL
MODEL 33
REMARK VINA RESULT:    -6.922      4.560      9.425
REMARK INTER + INTRA:         -11.204
REMARK INTER:                 -10.376
REMARK INTRA:                  -0.827
REMARK UNBOUND:                -1.044
REMARK  Name = 
REMARK  9 active torsions:
REMARK  status: ('A' for Active; 'I' for Inactive)
REMARK    1  A    between atoms: C_1  and  C_2
REMARK    2  A    between atoms: C_2  and  S_3
REMARK    3  A    between atoms: C_2  and  C_10
REMARK    4  A    between atoms: S_3  and  C_4
REMARK    5  A    between atoms: N_8  and  C_9
REMARK    6  A    between atoms: C_14  and  N_15
REMARK    7  A    between atoms: C_16  and  C_18
REMARK    8  A    between atoms: C_20  and  C_21
REMARK    9  A    between atoms: C_29  and  C_30
REMARK                            x       y       z     vdW  Elec       q    Type
REMARK                         _______ _______ _______ _____ _____    ______ ____
ROOT
ATOM      1  N   UNL     1       1.185   8.371  20.343  0.00  0.00    -0.280 N 
ATOM      2  C   UNL     1       1.187   9.138  21.491  0.00  0.00    +0.267 C 
ATOM      3  O   UNL     1       1.659   8.847  22.584  0.00  0.00    -0.268 OA
ATOM      4  H   UNL     1       0.755   8.822  19.539  0.00  0.00    +0.155 HD
ENDROOT
BRANCH   1   9
ATOM      5  C   UNL     1       2.807   5.498  18.647  0.00  0.00    -0.033 A 
ATOM      6  C   UNL     1       2.692   4.508  19.631  0.00  0.00    -0.057 A 
ATOM      7  C   UNL     1       2.089   4.788  20.857  0.00  0.00    -0.060 A 
ATOM      8  C   UNL     1       1.584   6.063  21.123  0.00  0.00    -0.040 A 
ATOM      9  C   UNL     1       1.682   7.068  20.163  0.00  0.00    +0.034 A 
ATOM     10  C   UNL     1       2.300   6.781  18.937  0.00  0.00    -0.036 A 
ATOM     11  H   UNL     1       3.074   3.502  19.463  0.00  0.00    +0.062 HD
ATOM     12  H   UNL     1       2.014   4.010  21.613  0.00  0.00    +0.062 HD
ATOM     13  H   UNL     1       1.118   6.236  22.087  0.00  0.00    +0.064 HD
ATOM     14  H   UNL     1       2.390   7.566  18.188  0.00  0.00    +0.064 HD
BRANCH   5  15
ATOM     15  C   UNL     1       3.458   5.235  17.300  0.00  0.00    +0.035 C 
ATOM     16  H   UNL     1       2.698   5.476  16.544  0.00  0.00    +0.046 HD
BRANCH  15  17
ATOM     17  C   UNL     1       3.798   3.766  17.024  0.00  0.00    -0.049 C 
ATOM     18  H   UNL     1       4.870   3.550  17.044  0.00  0.00    +0.024 HD
ATOM     19  H   UNL     1       3.338   3.132  17.791  0.00  0.00    +0.024 HD
ATOM     20  H   UNL     1       3.401   3.445  16.055  0.00  0.00    +0.024 HD
ENDBRANCH  15  17
BRANCH  15  21
ATOM     21  S   UNL     1       4.790   6.424  16.918  0.00  0.00    -0.078 S 
BRANCH  21  22
ATOM     22  C   UNL     1       6.217   5.776  17.637  0.00  0.00    +0.192 A 
ATOM     23  N   UNL     1       6.642   5.924  18.869  0.00  0.00    -0.123 NA
ATOM     24  N   UNL     1       7.791   5.180  19.016  0.00  0.00    -0.137 NA
ATOM     25  C   UNL     1       8.033   4.597  17.865  0.00  0.00    +0.120 A 
ATOM     26  N   UNL     1       7.083   4.965  16.959  0.00  0.00    -0.312 N 
ATOM     27  H   UNL     1       8.857   3.929  17.648  0.00  0.00    +0.105 HD
BRANCH  26  28
ATOM     28  C   UNL     1       7.030   4.553  15.583  0.00  0.00    +0.015 C 
ATOM     29  H   UNL     1       7.404   3.529  15.495  0.00  0.00    +0.046 HD
ATOM     30  H   UNL     1       7.664   5.219  14.993  0.00  0.00    +0.046 HD
ATOM     31  H   UNL     1       5.994   4.598  15.240  0.00  0.00    +0.046 HD
ENDBRANCH  26  28
ENDBRANCH  21  22
ENDBRANCH  15  21
ENDBRANCH   5  15
ENDBRANCH   1   9
BRANCH   2  32
ATOM     32  C   UNL     1       0.532  10.474  21.298  0.00  0.00    +0.127 A 
ATOM     33  C   UNL     1       0.985  11.336  20.318  0.00  0.00    -0.019 A 
ATOM     34  C   UNL     1       0.314  12.544  20.178  0.00  0.00    +0.041 A 
ATOM     35  C   UNL     1      -0.743  12.880  21.028  0.00  0.00    -0.019 A 
ATOM     36  C   UNL     1      -1.131  11.965  22.003  0.00  0.00    +0.145 A 
ATOM     37  N   UNL     1      -0.514  10.754  22.134  0.00  0.00    -0.238 NA
ATOM     38  H   UNL     1       1.828  11.082  19.684  0.00  0.00    +0.065 HD
ATOM     39  H   UNL     1      -1.236  13.847  20.942  0.00  0.00    +0.065 HD
BRANCH  34  40
ATOM     40  C   UNL     1       0.775  13.499  19.153  0.00  0.00    +0.247 C 
ATOM     41  O   UNL     1       0.021  13.751  18.222  0.00  0.00    -0.270 OA
ATOM     42  N   UNL     1       2.031  14.051  19.301  0.00  0.00    -0.298 N 
ATOM     43  C   UNL     1       2.531  15.011  18.333  0.00  0.00    +0.015 C 
ATOM     44  C   UNL     1       3.963  15.267  18.773  0.00  0.00    -0.036 C 
ATOM     45  C   UNL     1       3.871  15.144  20.289  0.00  0.00    -0.036 C 
ATOM     46  C   UNL     1       2.885  14.002  20.482  0.00  0.00    +0.015 C 
ATOM     47  H   UNL     1       2.452  14.615  17.315  0.00  0.00    +0.046 HD
ATOM     48  H   UNL     1       1.920  15.919  18.408  0.00  0.00    +0.046 HD
ATOM     49  H   UNL     1       4.339  16.237  18.442  0.00  0.00    +0.028 HD
ATOM     50  H   UNL     1       4.624  14.485  18.382  0.00  0.00    +0.028 HD
ATOM     51  H   UNL     1       3.459  16.068  20.714  0.00  0.00    +0.028 HD
ATOM     52  H   UNL     1       4.839  14.950  20.762  0.00  0.00    +0.028 HD
ATOM     53  H   UNL     1       2.294  14.102  21.396  0.00  0.00    +0.046 HD
ATOM     54  H   UNL     1       3.400  13.038  20.488  0.00  0.00    +0.046 HD
ENDBRANCH  34  40
BRANCH  36  55
ATOM     55  C   UNL     1      -2.272  12.336  22.942  0.00  0.00    +0.434 C 
ATOM     56  F   UNL     1      -1.934  13.349  23.791  0.00  0.00    -0.164 F 
ATOM     57  F   UNL     1      -2.647  11.297  23.741  0.00  0.00    -0.164 F 
ATOM     58  F   UNL     1      -3.403  12.747  22.302  0.00  0.00    -0.164 F 
ENDBRANCH  36  55
ENDBRANCH   2  32
TORSDOF 9
ENDMDL
