MODEL 1
REMARK VINA RESULT:    -7.235      0.000      0.000
REMARK INTER + INTRA:          -7.001
REMARK INTER:                  -8.091
REMARK INTRA:                   1.090
REMARK UNBOUND:                 2.138
REMARK  Name = 
REMARK  6 active torsions:
REMARK  status: ('A' for Active; 'I' for Inactive)
REMARK    1  A    between atoms: C_1  and  C_2
REMARK    2  A    between atoms: C_5  and  C_6
REMARK    3  A    between atoms: C_7  and  S_8
REMARK    4  A    between atoms: S_8  and  N_11
REMARK    5  A    between atoms: C_15  and  C_17
REMARK    6  A    between atoms: C_20  and  C_21
REMARK                            x       y       z     vdW  Elec       q    Type
REMARK                         _______ _______ _______ _____ _____    ______ ____
ROOT
ATOM      1  N   UNL     1       3.977   3.631  17.848  0.00  0.00    -0.174 NA
ATOM      2  C   UNL     1       3.463   2.862  19.044  0.00  0.00    +0.036 C 
ATOM      3  C   UNL     1       1.982   3.150  19.330  0.00  0.00    +0.029 C 
ATOM      4  N   UNL     1       1.734   4.590  19.331  0.00  0.00    -0.295 N 
ATOM      5  C   UNL     1       1.780   5.253  20.567  0.00  0.00    +0.253 C 
ATOM      6  O   UNL     1       2.052   4.632  21.597  0.00  0.00    -0.269 OA
ATOM      7  C   UNL     1       2.079   5.270  18.072  0.00  0.00    +0.029 C 
ATOM      8  C   UNL     1       2.897   4.374  17.121  0.00  0.00    +0.036 C 
ATOM      9  H   UNL     1       4.042   3.110  19.938  0.00  0.00    +0.046 HD
ATOM     10  H   UNL     1       3.606   1.795  18.849  0.00  0.00    +0.046 HD
ATOM     11  H   UNL     1       1.687   2.696  20.282  0.00  0.00    +0.048 HD
ATOM     12  H   UNL     1       1.343   2.705  18.559  0.00  0.00    +0.048 HD
ATOM     13  H   UNL     1       1.144   5.553  17.577  0.00  0.00    +0.048 HD
ATOM     14  H   UNL     1       2.645   6.182  18.286  0.00  0.00    +0.048 HD
ATOM     15  H   UNL     1       3.309   4.964  16.296  0.00  0.00    +0.046 HD
ATOM     16  H   UNL     1       2.245   3.628  16.648  0.00  0.00    +0.046 HD
ENDROOT
BRANCH   5  17
ATOM     17  C   UNL     1       1.513   6.682  20.610  0.00  0.00    +0.078 A 
ATOM     18  C   UNL     1       0.759   7.361  21.572  0.00  0.00    -0.030 A 
ATOM     19  C   UNL     1       0.679   8.699  21.210  0.00  0.00    +0.052 A 
ATOM     20  C   UNL     1       0.107   9.853  21.720  0.00  0.00    +0.089 A 
ATOM     21  N   UNL     1       0.371  10.883  20.884  0.00  0.00    -0.082 NA
ATOM     22  O   UNL     1       1.130  10.338  19.823  0.00  0.00    -0.347 OA
ATOM     23  C   UNL     1       1.287   9.022  20.066  0.00  0.00    +0.206 A 
ATOM     24  S   UNL     1       2.013   7.737  19.303  0.00  0.00    -0.044 S 
ATOM     25  H   UNL     1       0.329   6.884  22.444  0.00  0.00    +0.064 HD
BRANCH  20  26
ATOM     26  C   UNL     1      -0.690  10.067  22.946  0.00  0.00    -0.018 C 
ATOM     27  H   UNL     1      -0.337  10.956  23.478  0.00  0.00    +0.029 HD
ATOM     28  H   UNL     1      -0.609   9.207  23.619  0.00  0.00    +0.029 HD
ATOM     29  H   UNL     1      -1.750  10.211  22.713  0.00  0.00    +0.029 HD
ENDBRANCH  20  26
ENDBRANCH   5  17
BRANCH   1  30
ATOM     30  S   UNL     1       5.378   4.575  18.133  0.00  0.00    +0.061 S 
ATOM     31  O   UNL     1       6.281   3.764  18.925  0.00  0.00    -0.153 OA
ATOM     32  O   UNL     1       4.956   5.875  18.614  0.00  0.00    -0.153 OA
BRANCH  30  37
ATOM     33  C   UNL     1       6.093   4.028  14.182  0.00  0.00    -0.049 A 
ATOM     34  C   UNL     1       7.072   4.985  13.905  0.00  0.00    -0.058 A 
ATOM     35  C   UNL     1       7.538   5.837  14.911  0.00  0.00    -0.057 A 
ATOM     36  C   UNL     1       7.041   5.756  16.222  0.00  0.00    -0.024 A 
ATOM     37  C   UNL     1       6.063   4.781  16.498  0.00  0.00    +0.109 A 
ATOM     38  C   UNL     1       5.603   3.919  15.487  0.00  0.00    -0.032 A 
ATOM     39  H   UNL     1       7.485   5.072  12.902  0.00  0.00    +0.062 HD
ATOM     40  H   UNL     1       8.306   6.566  14.660  0.00  0.00    +0.062 HD
ATOM     41  H   UNL     1       4.857   3.158  15.714  0.00  0.00    +0.064 HD
BRANCH  33  42
ATOM     42  C   UNL     1       5.622   3.093  13.107  0.00  0.00    -0.040 C 
ATOM     43  H   UNL     1       6.383   2.335  12.894  0.00  0.00    +0.028 HD
ATOM     44  H   UNL     1       4.698   2.595  13.421  0.00  0.00    +0.028 HD
ATOM     45  H   UNL     1       5.431   3.631  12.171  0.00  0.00    +0.028 HD
ENDBRANCH  33  42
BRANCH  36  46
ATOM     46  C   UNL     1       7.609   6.682  17.263  0.00  0.00    -0.038 C 
ATOM     47  H   UNL     1       8.675   6.848  17.085  0.00  0.00    +0.028 HD
ATOM     48  H   UNL     1       7.115   7.660  17.233  0.00  0.00    +0.028 HD
ATOM     49  H   UNL     1       7.454   6.290  18.271  0.00  0.00    +0.028 HD
ENDBRANCH  36  46
ENDBRANCH  30  37
ENDBRANCH   1  30
TORSDOF 6
ENDMDL
MODEL 2
REMARK VINA RESULT:    -7.118      3.400     10.379
REMARK INTER + INTRA:          -6.852
REMARK INTER:                  -7.188
REMARK INTRA:                   0.336
REMARK UNBOUND:                 2.138
REMARK  Name = 
REMARK  6 active torsions:
REMARK  status: ('A' for Active; 'I' for Inactive)
REMARK    1  A    between atoms: C_1  and  C_2
REMARK    2  A    between atoms: C_5  and  C_6
REMARK    3  A    between atoms: C_7  and  S_8
REMARK    4  A    between atoms: S_8  and  N_11
REMARK    5  A    between atoms: C_15  and  C_17
REMARK    6  A    between atoms: C_20  and  C_21
REMARK                            x       y       z     vdW  Elec       q    Type
REMARK                         _______ _______ _______ _____ _____    ______ ____
ROOT
ATOM      1  N   UNL     1      -1.376  12.230  20.148  0.00  0.00    -0.174 NA
ATOM      2  C   UNL     1      -0.471  12.928  19.158  0.00  0.00    +0.036 C 
ATOM      3  C   UNL     1      -0.215  12.082  17.903  0.00  0.00    +0.029 C 
ATOM      4  N   UNL     1       0.162  10.720  18.275  0.00  0.00    -0.295 N 
ATOM      5  C   UNL     1       1.532  10.432  18.369  0.00  0.00    +0.253 C 
ATOM      6  O   UNL     1       2.369  11.315  18.172  0.00  0.00    -0.269 OA
ATOM      7  C   UNL     1      -0.839  10.009  19.088  0.00  0.00    +0.029 C 
ATOM      8  C   UNL     1      -1.942  10.946  19.619  0.00  0.00    +0.036 C 
ATOM      9  H   UNL     1       0.493  13.164  19.619  0.00  0.00    +0.046 HD
ATOM     10  H   UNL     1      -0.940  13.877  18.881  0.00  0.00    +0.046 HD
ATOM     11  H   UNL     1       0.555  12.551  17.282  0.00  0.00    +0.048 HD
ATOM     12  H   UNL     1      -1.119  12.017  17.287  0.00  0.00    +0.048 HD
ATOM     13  H   UNL     1      -1.298   9.241  18.458  0.00  0.00    +0.048 HD
ATOM     14  H   UNL     1      -0.347   9.515  19.932  0.00  0.00    +0.048 HD
ATOM     15  H   UNL     1      -2.546  10.437  20.377  0.00  0.00    +0.046 HD
ATOM     16  H   UNL     1      -2.642  11.203  18.813  0.00  0.00    +0.046 HD
ENDROOT
BRANCH   5  17
ATOM     17  C   UNL     1       1.945   9.080  18.712  0.00  0.00    +0.078 A 
ATOM     18  C   UNL     1       2.560   8.155  17.862  0.00  0.00    -0.030 A 
ATOM     19  C   UNL     1       2.719   6.959  18.549  0.00  0.00    +0.052 A 
ATOM     20  C   UNL     1       3.243   5.704  18.288  0.00  0.00    +0.089 A 
ATOM     21  N   UNL     1       3.095   4.926  19.385  0.00  0.00    -0.082 NA
ATOM     22  O   UNL     1       2.455   5.736  20.351  0.00  0.00    -0.347 OA
ATOM     23  C   UNL     1       2.249   6.947  19.799  0.00  0.00    +0.206 A 
ATOM     24  S   UNL     1       1.558   8.382  20.272  0.00  0.00    -0.044 S 
ATOM     25  H   UNL     1       2.851   8.378  16.843  0.00  0.00    +0.064 HD
BRANCH  20  26
ATOM     26  C   UNL     1       3.875   5.163  17.065  0.00  0.00    -0.018 C 
ATOM     27  H   UNL     1       4.686   5.819  16.736  0.00  0.00    +0.029 HD
ATOM     28  H   UNL     1       3.144   5.082  16.253  0.00  0.00    +0.029 HD
ATOM     29  H   UNL     1       4.293   4.167  17.239  0.00  0.00    +0.029 HD
ENDBRANCH  20  26
ENDBRANCH   5  17
BRANCH   1  30
ATOM     30  S   UNL     1      -0.752  12.093  21.738  0.00  0.00    +0.061 S 
ATOM     31  O   UNL     1       0.531  12.767  21.748  0.00  0.00    -0.153 OA
ATOM     32  O   UNL     1      -0.849  10.706  22.144  0.00  0.00    -0.153 OA
BRANCH  30  37
ATOM     33  C   UNL     1      -3.860  13.014  24.170  0.00  0.00    -0.049 A 
ATOM     34  C   UNL     1      -3.803  14.408  24.238  0.00  0.00    -0.058 A 
ATOM     35  C   UNL     1      -2.807  15.113  23.555  0.00  0.00    -0.057 A 
ATOM     36  C   UNL     1      -1.842  14.445  22.783  0.00  0.00    -0.024 A 
ATOM     37  C   UNL     1      -1.914  13.041  22.707  0.00  0.00    +0.109 A 
ATOM     38  C   UNL     1      -2.922  12.335  23.387  0.00  0.00    -0.032 A 
ATOM     39  H   UNL     1      -4.538  14.959  24.821  0.00  0.00    +0.062 HD
ATOM     40  H   UNL     1      -2.797  16.199  23.625  0.00  0.00    +0.062 HD
ATOM     41  H   UNL     1      -2.977  11.249  23.311  0.00  0.00    +0.064 HD
BRANCH  33  42
ATOM     42  C   UNL     1      -4.953  12.265  24.876  0.00  0.00    -0.040 C 
ATOM     43  H   UNL     1      -5.462  12.913  25.596  0.00  0.00    +0.028 HD
ATOM     44  H   UNL     1      -5.684  11.894  24.149  0.00  0.00    +0.028 HD
ATOM     45  H   UNL     1      -4.550  11.414  25.436  0.00  0.00    +0.028 HD
ENDBRANCH  33  42
BRANCH  36  46
ATOM     46  C   UNL     1      -0.818  15.267  22.048  0.00  0.00    -0.038 C 
ATOM     47  H   UNL     1      -0.620  14.838  21.062  0.00  0.00    +0.028 HD
ATOM     48  H   UNL     1      -1.171  16.293  21.895  0.00  0.00    +0.028 HD
ATOM     49  H   UNL     1       0.113  15.343  22.617  0.00  0.00    +0.028 HD
ENDBRANCH  36  46
ENDBRANCH  30  37
ENDBRANCH   1  30
TORSDOF 6
ENDMDL
MODEL 3
REMARK VINA RESULT:    -7.014      3.668     10.646
REMARK INTER + INTRA:          -6.721
REMARK INTER:                  -7.409
REMARK INTRA:                   0.688
REMARK UNBOUND:                 2.138
REMARK  Name = 
REMARK  6 active torsions:
REMARK  status: ('A' for Active; 'I' for Inactive)
REMARK    1  A    between atoms: C_1  and  C_2
REMARK    2  A    between atoms: C_5  and  C_6
REMARK    3  A    between atoms: C_7  and  S_8
REMARK    4  A    between atoms: S_8  and  N_11
REMARK    5  A    between atoms: C_15  and  C_17
REMARK    6  A    between atoms: C_20  and  C_21
REMARK                            x       y       z     vdW  Elec       q    Type
REMARK                         _______ _______ _______ _____ _____    ______ ____
ROOT
ATOM      1  N   UNL     1      -1.334  13.567  20.109  0.00  0.00    -0.174 NA
ATOM      2  C   UNL     1      -0.373  14.010  19.030  0.00  0.00    +0.036 C 
ATOM      3  C   UNL     1      -0.263  12.988  17.889  0.00  0.00    +0.029 C 
ATOM      4  N   UNL     1      -0.056  11.645  18.428  0.00  0.00    -0.295 N 
ATOM      5  C   UNL     1       1.266  11.192  18.544  0.00  0.00    +0.253 C 
ATOM      6  O   UNL     1       2.205  11.925  18.228  0.00  0.00    -0.269 OA
ATOM      7  C   UNL     1      -1.119  11.180  19.335  0.00  0.00    +0.029 C 
ATOM      8  C   UNL     1      -2.076  12.314  19.754  0.00  0.00    +0.036 C 
ATOM      9  H   UNL     1       0.626  14.172  19.447  0.00  0.00    +0.046 HD
ATOM     10  H   UNL     1      -0.721  14.971  18.639  0.00  0.00    +0.046 HD
ATOM     11  H   UNL     1       0.545  13.269  17.207  0.00  0.00    +0.048 HD
ATOM     12  H   UNL     1      -1.183  12.967  17.296  0.00  0.00    +0.048 HD
ATOM     13  H   UNL     1      -1.691  10.408  18.812  0.00  0.00    +0.048 HD
ATOM     14  H   UNL     1      -0.674  10.734  20.229  0.00  0.00    +0.048 HD
ATOM     15  H   UNL     1      -2.721  11.988  20.577  0.00  0.00    +0.046 HD
ATOM     16  H   UNL     1      -2.759  12.559  18.929  0.00  0.00    +0.046 HD
ENDROOT
BRANCH   5  17
ATOM     17  C   UNL     1       1.509   9.851  19.052  0.00  0.00    +0.078 A 
ATOM     18  C   UNL     1       2.000   8.760  18.326  0.00  0.00    -0.030 A 
ATOM     19  C   UNL     1       2.010   7.646  19.154  0.00  0.00    +0.052 A 
ATOM     20  C   UNL     1       2.373   6.313  19.052  0.00  0.00    +0.089 A 
ATOM     21  N   UNL     1       2.134   5.698  20.233  0.00  0.00    -0.082 NA
ATOM     22  O   UNL     1       1.603   6.691  21.087  0.00  0.00    -0.347 OA
ATOM     23  C   UNL     1       1.548   7.843  20.391  0.00  0.00    +0.206 A 
ATOM     24  S   UNL     1       1.043   9.399  20.680  0.00  0.00    -0.044 S 
ATOM     25  H   UNL     1       2.313   8.820  17.292  0.00  0.00    +0.064 HD
BRANCH  20  26
ATOM     26  C   UNL     1       2.927   5.554  17.910  0.00  0.00    -0.018 C 
ATOM     27  H   UNL     1       4.008   5.710  17.840  0.00  0.00    +0.029 HD
ATOM     28  H   UNL     1       2.469   5.877  16.969  0.00  0.00    +0.029 HD
ATOM     29  H   UNL     1       2.746   4.480  18.018  0.00  0.00    +0.029 HD
ENDBRANCH  20  26
ENDBRANCH   5  17
BRANCH   1  30
ATOM     30  S   UNL     1      -0.691  13.548  21.697  0.00  0.00    +0.061 S 
ATOM     31  O   UNL     1      -0.198  14.884  21.970  0.00  0.00    -0.153 OA
ATOM     32  O   UNL     1       0.194  12.408  21.813  0.00  0.00    -0.153 OA
BRANCH  30  37
ATOM     33  C   UNL     1      -4.188  14.129  23.661  0.00  0.00    -0.049 A 
ATOM     34  C   UNL     1      -4.406  12.898  24.284  0.00  0.00    -0.058 A 
ATOM     35  C   UNL     1      -3.501  11.846  24.116  0.00  0.00    -0.057 A 
ATOM     36  C   UNL     1      -2.352  11.994  23.323  0.00  0.00    -0.024 A 
ATOM     37  C   UNL     1      -2.130  13.242  22.709  0.00  0.00    +0.109 A 
ATOM     38  C   UNL     1      -3.037  14.302  22.887  0.00  0.00    -0.032 A 
ATOM     39  H   UNL     1      -5.283  12.749  24.911  0.00  0.00    +0.062 HD
ATOM     40  H   UNL     1      -3.700  10.903  24.622  0.00  0.00    +0.062 HD
ATOM     41  H   UNL     1      -2.849  15.268  22.418  0.00  0.00    +0.064 HD
BRANCH  33  42
ATOM     42  C   UNL     1      -5.145  15.266  23.874  0.00  0.00    -0.040 C 
ATOM     43  H   UNL     1      -4.910  16.100  23.205  0.00  0.00    +0.028 HD
ATOM     44  H   UNL     1      -6.171  14.933  23.684  0.00  0.00    +0.028 HD
ATOM     45  H   UNL     1      -5.083  15.647  24.900  0.00  0.00    +0.028 HD
ENDBRANCH  33  42
BRANCH  36  46
ATOM     46  C   UNL     1      -1.403  10.832  23.211  0.00  0.00    -0.038 C 
ATOM     47  H   UNL     1      -1.518  10.161  24.067  0.00  0.00    +0.028 HD
ATOM     48  H   UNL     1      -1.601  10.246  22.306  0.00  0.00    +0.028 HD
ATOM     49  H   UNL     1      -0.366  11.170  23.137  0.00  0.00    +0.028 HD
ENDBRANCH  36  46
ENDBRANCH  30  37
ENDBRANCH   1  30
TORSDOF 6
ENDMDL
MODEL 4
REMARK VINA RESULT:    -6.772      3.413      9.551
REMARK INTER + INTRA:          -6.416
REMARK INTER:                  -6.685
REMARK INTRA:                   0.268
REMARK UNBOUND:                 2.138
REMARK  Name = 
REMARK  6 active torsions:
REMARK  status: ('A' for Active; 'I' for Inactive)
REMARK    1  A    between atoms: C_1  and  C_2
REMARK    2  A    between atoms: C_5  and  C_6
REMARK    3  A    between atoms: C_7  and  S_8
REMARK    4  A    between atoms: S_8  and  N_11
REMARK    5  A    between atoms: C_15  and  C_17
REMARK    6  A    between atoms: C_20  and  C_21
REMARK                            x       y       z     vdW  Elec       q    Type
REMARK                         _______ _______ _______ _____ _____    ______ ____
ROOT
ATOM      1  N   UNL     1      -0.293  11.512  20.849  0.00  0.00    -0.174 NA
ATOM      2  C   UNL     1      -0.716  10.467  21.856  0.00  0.00    +0.036 C 
ATOM      3  C   UNL     1       0.478   9.691  22.430  0.00  0.00    +0.029 C 
ATOM      4  N   UNL     1       1.354   9.234  21.353  0.00  0.00    -0.295 N 
ATOM      5  C   UNL     1       1.148   7.938  20.858  0.00  0.00    +0.253 C 
ATOM      6  O   UNL     1       0.238   7.238  21.307  0.00  0.00    -0.269 OA
ATOM      7  C   UNL     1       1.894  10.312  20.507  0.00  0.00    +0.029 C 
ATOM      8  C   UNL     1       1.196  11.663  20.753  0.00  0.00    +0.036 C 
ATOM      9  H   UNL     1      -1.406   9.751  21.400  0.00  0.00    +0.046 HD
ATOM     10  H   UNL     1      -1.257  10.972  22.662  0.00  0.00    +0.046 HD
ATOM     11  H   UNL     1       0.126   8.851  23.037  0.00  0.00    +0.048 HD
ATOM     12  H   UNL     1       1.074  10.329  23.092  0.00  0.00    +0.048 HD
ATOM     13  H   UNL     1       2.959  10.415  20.736  0.00  0.00    +0.048 HD
ATOM     14  H   UNL     1       1.794  10.040  19.452  0.00  0.00    +0.048 HD
ATOM     15  H   UNL     1       1.472  12.386  19.978  0.00  0.00    +0.046 HD
ATOM     16  H   UNL     1       1.543  12.104  21.697  0.00  0.00    +0.046 HD
ENDROOT
BRANCH   5  17
ATOM     17  C   UNL     1       2.017   7.440  19.803  0.00  0.00    +0.078 A 
ATOM     18  C   UNL     1       2.817   6.294  19.853  0.00  0.00    -0.030 A 
ATOM     19  C   UNL     1       3.551   6.214  18.677  0.00  0.00    +0.052 A 
ATOM     20  C   UNL     1       4.483   5.352  18.122  0.00  0.00    +0.089 A 
ATOM     21  N   UNL     1       4.859   5.828  16.913  0.00  0.00    -0.082 NA
ATOM     22  O   UNL     1       4.133   7.025  16.724  0.00  0.00    -0.347 OA
ATOM     23  C   UNL     1       3.362   7.214  17.812  0.00  0.00    +0.206 A 
ATOM     24  S   UNL     1       2.280   8.361  18.335  0.00  0.00    -0.044 S 
ATOM     25  H   UNL     1       2.828   5.605  20.689  0.00  0.00    +0.064 HD
BRANCH  20  26
ATOM     26  C   UNL     1       5.065   4.100  18.651  0.00  0.00    -0.018 C 
ATOM     27  H   UNL     1       4.322   3.298  18.631  0.00  0.00    +0.029 HD
ATOM     28  H   UNL     1       5.403   4.234  19.684  0.00  0.00    +0.029 HD
ATOM     29  H   UNL     1       5.927   3.779  18.057  0.00  0.00    +0.029 HD
ENDBRANCH  20  26
ENDBRANCH   5  17
BRANCH   1  30
ATOM     30  S   UNL     1      -1.065  11.412  19.323  0.00  0.00    +0.061 S 
ATOM     31  O   UNL     1      -1.215  10.003  19.017  0.00  0.00    -0.153 OA
ATOM     32  O   UNL     1      -0.366  12.286  18.405  0.00  0.00    -0.153 OA
BRANCH  30  37
ATOM     33  C   UNL     1      -4.050  13.512  21.086  0.00  0.00    -0.049 A 
ATOM     34  C   UNL     1      -5.147  13.248  20.263  0.00  0.00    -0.058 A 
ATOM     35  C   UNL     1      -5.011  12.432  19.136  0.00  0.00    -0.057 A 
ATOM     36  C   UNL     1      -3.776  11.854  18.801  0.00  0.00    -0.024 A 
ATOM     37  C   UNL     1      -2.676  12.112  19.642  0.00  0.00    +0.109 A 
ATOM     38  C   UNL     1      -2.818  12.926  20.780  0.00  0.00    -0.032 A 
ATOM     39  H   UNL     1      -6.121  13.674  20.495  0.00  0.00    +0.062 HD
ATOM     40  H   UNL     1      -5.889  12.243  18.521  0.00  0.00    +0.062 HD
ATOM     41  H   UNL     1      -1.964  13.109  21.433  0.00  0.00    +0.064 HD
BRANCH  33  42
ATOM     42  C   UNL     1      -4.210  14.360  22.314  0.00  0.00    -0.040 C 
ATOM     43  H   UNL     1      -3.240  14.738  22.652  0.00  0.00    +0.028 HD
ATOM     44  H   UNL     1      -4.871  15.207  22.101  0.00  0.00    +0.028 HD
ATOM     45  H   UNL     1      -4.637  13.780  23.141  0.00  0.00    +0.028 HD
ENDBRANCH  33  42
BRANCH  36  46
ATOM     46  C   UNL     1      -3.706  10.960  17.593  0.00  0.00    -0.038 C 
ATOM     47  H   UNL     1      -4.700  10.578  17.343  0.00  0.00    +0.028 HD
ATOM     48  H   UNL     1      -3.335  11.507  16.718  0.00  0.00    +0.028 HD
ATOM     49  H   UNL     1      -3.015  10.129  17.752  0.00  0.00    +0.028 HD
ENDBRANCH  36  46
ENDBRANCH  30  37
ENDBRANCH   1  30
TORSDOF 6
ENDMDL
MODEL 5
REMARK VINA RESULT:    -6.622      3.485      9.242
REMARK INTER + INTRA:          -6.227
REMARK INTER:                  -7.153
REMARK INTRA:                   0.926
REMARK UNBOUND:                 2.138
REMARK  Name = 
REMARK  6 active torsions:
REMARK  status: ('A' for Active; 'I' for Inactive)
REMARK    1  A    between atoms: C_1  and  C_2
REMARK    2  A    between atoms: C_5  and  C_6
REMARK    3  A    between atoms: C_7  and  S_8
REMARK    4  A    between atoms: S_8  and  N_11
REMARK    5  A    between atoms: C_15  and  C_17
REMARK    6  A    between atoms: C_20  and  C_21
REMARK                            x       y       z     vdW  Elec       q    Type
REMARK                         _______ _______ _______ _____ _____    ______ ____
ROOT
ATOM      1  N   UNL     1      -0.163  11.966  20.474  0.00  0.00    -0.174 NA
ATOM      2  C   UNL     1      -0.988  11.194  21.478  0.00  0.00    +0.036 C 
ATOM      3  C   UNL     1      -0.122  10.335  22.410  0.00  0.00    +0.029 C 
ATOM      4  N   UNL     1       0.846   9.560  21.636  0.00  0.00    -0.295 N 
ATOM      5  C   UNL     1       0.487   8.253  21.276  0.00  0.00    +0.253 C 
ATOM      6  O   UNL     1      -0.619   7.804  21.584  0.00  0.00    -0.269 OA
ATOM      7  C   UNL     1       1.757  10.371  20.810  0.00  0.00    +0.029 C 
ATOM      8  C   UNL     1       1.312  11.844  20.712  0.00  0.00    +0.036 C 
ATOM      9  H   UNL     1      -1.700  10.539  20.967  0.00  0.00    +0.046 HD
ATOM     10  H   UNL     1      -1.570  11.912  22.064  0.00  0.00    +0.046 HD
ATOM     11  H   UNL     1      -0.755   9.682  23.019  0.00  0.00    +0.048 HD
ATOM     12  H   UNL     1       0.442  10.965  23.107  0.00  0.00    +0.048 HD
ATOM     13  H   UNL     1       2.750  10.330  21.269  0.00  0.00    +0.048 HD
ATOM     14  H   UNL     1       1.823   9.945  19.805  0.00  0.00    +0.048 HD
ATOM     15  H   UNL     1       1.883  12.367  19.937  0.00  0.00    +0.046 HD
ATOM     16  H   UNL     1       1.540  12.373  21.647  0.00  0.00    +0.046 HD
ENDROOT
BRANCH   5  17
ATOM     17  C   UNL     1       1.435   7.444  20.527  0.00  0.00    +0.078 A 
ATOM     18  C   UNL     1       2.138   7.829  19.380  0.00  0.00    -0.030 A 
ATOM     19  C   UNL     1       2.878   6.744  18.929  0.00  0.00    +0.052 A 
ATOM     20  C   UNL     1       3.754   6.480  17.889  0.00  0.00    +0.089 A 
ATOM     21  N   UNL     1       4.157   5.191  17.968  0.00  0.00    -0.082 NA
ATOM     22  O   UNL     1       3.500   4.647  19.096  0.00  0.00    -0.347 OA
ATOM     23  C   UNL     1       2.743   5.620  19.637  0.00  0.00    +0.206 A 
ATOM     24  S   UNL     1       1.698   5.756  20.922  0.00  0.00    -0.044 S 
ATOM     25  H   UNL     1       2.087   8.821  18.951  0.00  0.00    +0.064 HD
BRANCH  20  26
ATOM     26  C   UNL     1       4.245   7.354  16.802  0.00  0.00    -0.018 C 
ATOM     27  H   UNL     1       5.257   7.705  17.026  0.00  0.00    +0.029 HD
ATOM     28  H   UNL     1       3.594   8.226  16.681  0.00  0.00    +0.029 HD
ATOM     29  H   UNL     1       4.274   6.823  15.845  0.00  0.00    +0.029 HD
ENDBRANCH  20  26
ENDBRANCH   5  17
BRANCH   1  30
ATOM     30  S   UNL     1      -0.607  11.741  18.835  0.00  0.00    +0.061 S 
ATOM     31  O   UNL     1      -0.279  10.372  18.491  0.00  0.00    -0.153 OA
ATOM     32  O   UNL     1      -0.058  12.837  18.063  0.00  0.00    -0.153 OA
BRANCH  30  37
ATOM     33  C   UNL     1      -4.328  12.786  20.055  0.00  0.00    -0.049 A 
ATOM     34  C   UNL     1      -5.147  12.249  19.059  0.00  0.00    -0.058 A 
ATOM     35  C   UNL     1      -4.591  11.562  17.976  0.00  0.00    -0.057 A 
ATOM     36  C   UNL     1      -3.203  11.390  17.858  0.00  0.00    -0.024 A 
ATOM     37  C   UNL     1      -2.383  11.921  18.872  0.00  0.00    +0.109 A 
ATOM     38  C   UNL     1      -2.945  12.603  19.966  0.00  0.00    -0.032 A 
ATOM     39  H   UNL     1      -6.228  12.358  19.121  0.00  0.00    +0.062 HD
ATOM     40  H   UNL     1      -5.260  11.151  17.222  0.00  0.00    +0.062 HD
ATOM     41  H   UNL     1      -2.303  12.999  20.753  0.00  0.00    +0.064 HD
BRANCH  33  42
ATOM     42  C   UNL     1      -4.932  13.491  21.235  0.00  0.00    -0.040 C 
ATOM     43  H   UNL     1      -5.063  12.800  22.073  0.00  0.00    +0.028 HD
ATOM     44  H   UNL     1      -4.286  14.318  21.549  0.00  0.00    +0.028 HD
ATOM     45  H   UNL     1      -5.922  13.893  20.989  0.00  0.00    +0.028 HD
ENDBRANCH  33  42
BRANCH  36  46
ATOM     46  C   UNL     1      -2.674  10.612  16.683  0.00  0.00    -0.038 C 
ATOM     47  H   UNL     1      -3.096   9.604  16.671  0.00  0.00    +0.028 HD
ATOM     48  H   UNL     1      -2.945  11.094  15.736  0.00  0.00    +0.028 HD
ATOM     49  H   UNL     1      -1.582  10.561  16.700  0.00  0.00    +0.028 HD
ENDBRANCH  36  46
ENDBRANCH  30  37
ENDBRANCH   1  30
TORSDOF 6
ENDMDL
MODEL 6
REMARK VINA RESULT:    -6.611      4.768      7.743
REMARK INTER + INTRA:          -6.212
REMARK INTER:                  -7.383
REMARK INTRA:                   1.171
REMARK UNBOUND:                 2.138
REMARK  Name = 
REMARK  6 active torsions:
REMARK  status: ('A' for Active; 'I' for Inactive)
REMARK    1  A    between atoms: C_1  and  C_2
REMARK    2  A    between atoms: C_5  and  C_6
REMARK    3  A    between atoms: C_7  and  S_8
REMARK    4  A    between atoms: S_8  and  N_11
REMARK    5  A    between atoms: C_15  and  C_17
REMARK    6  A    between atoms: C_20  and  C_21
REMARK                            x       y       z     vdW  Elec       q    Type
REMARK                         _______ _______ _______ _____ _____    ______ ____
ROOT
ATOM      1  N   UNL     1       0.275  10.691  18.847  0.00  0.00    -0.174 NA
ATOM      2  C   UNL     1      -0.980  10.376  18.065  0.00  0.00    +0.036 C 
ATOM      3  C   UNL     1      -1.805  11.633  17.751  0.00  0.00    +0.029 C 
ATOM      4  N   UNL     1      -1.979  12.442  18.956  0.00  0.00    -0.295 N 
ATOM      5  C   UNL     1      -3.148  12.240  19.705  0.00  0.00    +0.253 C 
ATOM      6  O   UNL     1      -3.969  11.389  19.360  0.00  0.00    -0.269 OA
ATOM      7  C   UNL     1      -0.722  12.884  19.582  0.00  0.00    +0.029 C 
ATOM      8  C   UNL     1       0.512  12.163  19.004  0.00  0.00    +0.036 C 
ATOM      9  H   UNL     1      -1.614   9.677  18.620  0.00  0.00    +0.046 HD
ATOM     10  H   UNL     1      -0.685   9.880  17.135  0.00  0.00    +0.046 HD
ATOM     11  H   UNL     1      -2.770  11.353  17.319  0.00  0.00    +0.048 HD
ATOM     12  H   UNL     1      -1.296  12.256  17.007  0.00  0.00    +0.048 HD
ATOM     13  H   UNL     1      -0.620  13.959  19.405  0.00  0.00    +0.048 HD
ATOM     14  H   UNL     1      -0.766  12.715  20.662  0.00  0.00    +0.048 HD
ATOM     15  H   UNL     1       1.396  12.358  19.621  0.00  0.00    +0.046 HD
ATOM     16  H   UNL     1       0.756  12.565  18.012  0.00  0.00    +0.046 HD
ENDROOT
BRANCH   5  17
ATOM     17  C   UNL     1      -3.368  13.045  20.896  0.00  0.00    +0.078 A 
ATOM     18  C   UNL     1      -2.402  13.431  21.833  0.00  0.00    -0.030 A 
ATOM     19  C   UNL     1      -3.031  14.123  22.858  0.00  0.00    +0.052 A 
ATOM     20  C   UNL     1      -2.654  14.750  24.035  0.00  0.00    +0.089 A 
ATOM     21  N   UNL     1      -3.755  15.254  24.639  0.00  0.00    -0.082 NA
ATOM     22  O   UNL     1      -4.844  14.921  23.801  0.00  0.00    -0.347 OA
ATOM     23  C   UNL     1      -4.356  14.241  22.745  0.00  0.00    +0.206 A 
ATOM     24  S   UNL     1      -4.982  13.517  21.388  0.00  0.00    -0.044 S 
ATOM     25  H   UNL     1      -1.347  13.208  21.733  0.00  0.00    +0.064 HD
BRANCH  20  26
ATOM     26  C   UNL     1      -1.321  14.908  24.654  0.00  0.00    -0.018 C 
ATOM     27  H   UNL     1      -0.561  14.403  24.051  0.00  0.00    +0.029 HD
ATOM     28  H   UNL     1      -1.306  14.477  25.661  0.00  0.00    +0.029 HD
ATOM     29  H   UNL     1      -1.042  15.963  24.738  0.00  0.00    +0.029 HD
ENDBRANCH  20  26
ENDBRANCH   5  17
BRANCH   1  30
ATOM     30  S   UNL     1       0.467   9.812  20.305  0.00  0.00    +0.061 S 
ATOM     31  O   UNL     1      -0.855   9.385  20.719  0.00  0.00    -0.153 OA
ATOM     32  O   UNL     1       1.292  10.597  21.200  0.00  0.00    -0.153 OA
BRANCH  30  37
ATOM     33  C   UNL     1       2.055   6.084  20.262  0.00  0.00    -0.049 A 
ATOM     34  C   UNL     1       2.843   6.092  19.110  0.00  0.00    -0.058 A 
ATOM     35  C   UNL     1       2.908   7.231  18.301  0.00  0.00    -0.057 A 
ATOM     36  C   UNL     1       2.188   8.393  18.621  0.00  0.00    -0.024 A 
ATOM     37  C   UNL     1       1.405   8.383  19.791  0.00  0.00    +0.109 A 
ATOM     38  C   UNL     1       1.350   7.240  20.608  0.00  0.00    -0.032 A 
ATOM     39  H   UNL     1       3.420   5.212  18.834  0.00  0.00    +0.062 HD
ATOM     40  H   UNL     1       3.538   7.204  17.414  0.00  0.00    +0.062 HD
ATOM     41  H   UNL     1       0.752   7.247  21.520  0.00  0.00    +0.064 HD
BRANCH  33  42
ATOM     42  C   UNL     1       2.018   4.871  21.146  0.00  0.00    -0.040 C 
ATOM     43  H   UNL     1       0.995   4.666  21.479  0.00  0.00    +0.028 HD
ATOM     44  H   UNL     1       2.399   4.000  20.603  0.00  0.00    +0.028 HD
ATOM     45  H   UNL     1       2.627   5.020  22.045  0.00  0.00    +0.028 HD
ENDBRANCH  33  42
BRANCH  36  46
ATOM     46  C   UNL     1       2.328   9.593  17.724  0.00  0.00    -0.038 C 
ATOM     47  H   UNL     1       1.346   9.926  17.375  0.00  0.00    +0.028 HD
ATOM     48  H   UNL     1       2.790  10.433  18.256  0.00  0.00    +0.028 HD
ATOM     49  H   UNL     1       2.975   9.377  16.869  0.00  0.00    +0.028 HD
ENDBRANCH  36  46
ENDBRANCH  30  37
ENDBRANCH   1  30
TORSDOF 6
ENDMDL
MODEL 7
REMARK VINA RESULT:    -6.562      0.954      1.525
REMARK INTER + INTRA:          -6.150
REMARK INTER:                  -6.862
REMARK INTRA:                   0.712
REMARK UNBOUND:                 2.138
REMARK  Name = 
REMARK  6 active torsions:
REMARK  status: ('A' for Active; 'I' for Inactive)
REMARK    1  A    between atoms: C_1  and  C_2
REMARK    2  A    between atoms: C_5  and  C_6
REMARK    3  A    between atoms: C_7  and  S_8
REMARK    4  A    between atoms: S_8  and  N_11
REMARK    5  A    between atoms: C_15  and  C_17
REMARK    6  A    between atoms: C_20  and  C_21
REMARK                            x       y       z     vdW  Elec       q    Type
REMARK                         _______ _______ _______ _____ _____    ______ ____
ROOT
ATOM      1  N   UNL     1       4.103   3.636  17.989  0.00  0.00    -0.174 NA
ATOM      2  C   UNL     1       3.600   2.981  19.254  0.00  0.00    +0.036 C 
ATOM      3  C   UNL     1       2.104   3.235  19.489  0.00  0.00    +0.029 C 
ATOM      4  N   UNL     1       1.798   4.655  19.330  0.00  0.00    -0.295 N 
ATOM      5  C   UNL     1       1.796   5.449  20.487  0.00  0.00    +0.253 C 
ATOM      6  O   UNL     1       2.074   4.955  21.581  0.00  0.00    -0.269 OA
ATOM      7  C   UNL     1       2.137   5.209  18.008  0.00  0.00    +0.029 C 
ATOM      8  C   UNL     1       3.007   4.250  17.172  0.00  0.00    +0.036 C 
ATOM      9  H   UNL     1       4.153   3.348  20.124  0.00  0.00    +0.046 HD
ATOM     10  H   UNL     1       3.789   1.905  19.179  0.00  0.00    +0.046 HD
ATOM     11  H   UNL     1       1.811   2.875  20.480  0.00  0.00    +0.048 HD
ATOM     12  H   UNL     1       1.497   2.683  18.762  0.00  0.00    +0.048 HD
ATOM     13  H   UNL     1       1.200   5.396  17.474  0.00  0.00    +0.048 HD
ATOM     14  H   UNL     1       2.662   6.161  18.129  0.00  0.00    +0.048 HD
ATOM     15  H   UNL     1       3.408   4.764  16.292  0.00  0.00    +0.046 HD
ATOM     16  H   UNL     1       2.394   3.430  16.774  0.00  0.00    +0.046 HD
ENDROOT
BRANCH   5  17
ATOM     17  C   UNL     1       1.470   6.861  20.370  0.00  0.00    +0.078 A 
ATOM     18  C   UNL     1       1.914   7.741  19.377  0.00  0.00    -0.030 A 
ATOM     19  C   UNL     1       1.443   9.013  19.668  0.00  0.00    +0.052 A 
ATOM     20  C   UNL     1       1.518  10.275  19.100  0.00  0.00    +0.089 A 
ATOM     21  N   UNL     1       0.843  11.151  19.880  0.00  0.00    -0.082 NA
ATOM     22  O   UNL     1       0.338  10.397  20.964  0.00  0.00    -0.347 OA
ATOM     23  C   UNL     1       0.727   9.119  20.791  0.00  0.00    +0.206 A 
ATOM     24  S   UNL     1       0.557   7.688  21.617  0.00  0.00    -0.044 S 
ATOM     25  H   UNL     1       2.521   7.436  18.533  0.00  0.00    +0.064 HD
BRANCH  20  26
ATOM     26  C   UNL     1       2.195  10.734  17.869  0.00  0.00    -0.018 C 
ATOM     27  H   UNL     1       2.590   9.879  17.312  0.00  0.00    +0.029 HD
ATOM     28  H   UNL     1       3.027  11.405  18.108  0.00  0.00    +0.029 HD
ATOM     29  H   UNL     1       1.506  11.277  17.213  0.00  0.00    +0.029 HD
ENDBRANCH  20  26
ENDBRANCH   5  17
BRANCH   1  30
ATOM     30  S   UNL     1       5.460   4.664  18.187  0.00  0.00    +0.061 S 
ATOM     31  O   UNL     1       6.427   3.938  18.987  0.00  0.00    -0.153 OA
ATOM     32  O   UNL     1       4.984   5.961  18.621  0.00  0.00    -0.153 OA
BRANCH  30  37
ATOM     33  C   UNL     1       6.033   4.016  14.228  0.00  0.00    -0.049 A 
ATOM     34  C   UNL     1       7.001   4.965  13.892  0.00  0.00    -0.058 A 
ATOM     35  C   UNL     1       7.503   5.842  14.859  0.00  0.00    -0.057 A 
ATOM     36  C   UNL     1       7.053   5.795  16.188  0.00  0.00    -0.024 A 
ATOM     37  C   UNL     1       6.086   4.827  16.524  0.00  0.00    +0.109 A 
ATOM     38  C   UNL     1       5.591   3.940  15.552  0.00  0.00    -0.032 A 
ATOM     39  H   UNL     1       7.379   5.027  12.874  0.00  0.00    +0.062 HD
ATOM     40  H   UNL     1       8.262   6.564  14.563  0.00  0.00    +0.062 HD
ATOM     41  H   UNL     1       4.853   3.185  15.825  0.00  0.00    +0.064 HD
BRANCH  33  42
ATOM     42  C   UNL     1       5.525   3.054  13.194  0.00  0.00    -0.040 C 
ATOM     43  H   UNL     1       4.815   2.349  13.638  0.00  0.00    +0.028 HD
ATOM     44  H   UNL     1       5.028   3.600  12.385  0.00  0.00    +0.028 HD
ATOM     45  H   UNL     1       6.344   2.464  12.769  0.00  0.00    +0.028 HD
ENDBRANCH  33  42
BRANCH  36  46
ATOM     46  C   UNL     1       7.658   6.747  17.185  0.00  0.00    -0.038 C 
ATOM     47  H   UNL     1       8.672   6.434  17.444  0.00  0.00    +0.028 HD
ATOM     48  H   UNL     1       7.721   7.761  16.774  0.00  0.00    +0.028 HD
ATOM     49  H   UNL     1       7.046   6.819  18.088  0.00  0.00    +0.028 HD
ENDBRANCH  36  46
ENDBRANCH  30  37
ENDBRANCH   1  30
TORSDOF 6
ENDMDL
MODEL 8
REMARK VINA RESULT:    -6.488      6.613     10.126
REMARK INTER + INTRA:          -6.057
REMARK INTER:                  -7.062
REMARK INTRA:                   1.005
REMARK UNBOUND:                 2.138
REMARK  Name = 
REMARK  6 active torsions:
REMARK  status: ('A' for Active; 'I' for Inactive)
REMARK    1  A    between atoms: C_1  and  C_2
REMARK    2  A    between atoms: C_5  and  C_6
REMARK    3  A    between atoms: C_7  and  S_8
REMARK    4  A    between atoms: S_8  and  N_11
REMARK    5  A    between atoms: C_15  and  C_17
REMARK    6  A    between atoms: C_20  and  C_21
REMARK                            x       y       z     vdW  Elec       q    Type
REMARK                         _______ _______ _______ _____ _____    ______ ____
ROOT
ATOM      1  N   UNL     1       0.398  13.511  20.096  0.00  0.00    -0.174 NA
ATOM      2  C   UNL     1       0.688  13.924  21.521  0.00  0.00    +0.036 C 
ATOM      3  C   UNL     1       1.436  15.263  21.600  0.00  0.00    +0.029 C 
ATOM      4  N   UNL     1       2.572  15.267  20.681  0.00  0.00    -0.295 N 
ATOM      5  C   UNL     1       3.822  14.893  21.198  0.00  0.00    +0.253 C 
ATOM      6  O   UNL     1       3.931  14.550  22.377  0.00  0.00    -0.269 OA
ATOM      7  C   UNL     1       2.217  15.043  19.270  0.00  0.00    +0.029 C 
ATOM      8  C   UNL     1       0.763  14.565  19.095  0.00  0.00    +0.036 C 
ATOM      9  H   UNL     1       1.288  13.163  22.028  0.00  0.00    +0.046 HD
ATOM     10  H   UNL     1      -0.265  13.996  22.055  0.00  0.00    +0.046 HD
ATOM     11  H   UNL     1       1.758  15.456  22.629  0.00  0.00    +0.048 HD
ATOM     12  H   UNL     1       0.779  16.093  21.316  0.00  0.00    +0.048 HD
ATOM     13  H   UNL     1       2.346  15.991  18.738  0.00  0.00    +0.048 HD
ATOM     14  H   UNL     1       2.895  14.306  18.830  0.00  0.00    +0.048 HD
ATOM     15  H   UNL     1       0.593  14.215  18.071  0.00  0.00    +0.046 HD
ATOM     16  H   UNL     1       0.068  15.405  19.233  0.00  0.00    +0.046 HD
ENDROOT
BRANCH   5  17
ATOM     17  C   UNL     1       4.981  14.910  20.319  0.00  0.00    +0.078 A 
ATOM     18  C   UNL     1       6.323  14.837  20.706  0.00  0.00    -0.030 A 
ATOM     19  C   UNL     1       7.118  14.963  19.575  0.00  0.00    +0.052 A 
ATOM     20  C   UNL     1       8.473  14.967  19.286  0.00  0.00    +0.089 A 
ATOM     21  N   UNL     1       8.640  15.147  17.955  0.00  0.00    -0.082 NA
ATOM     22  O   UNL     1       7.339  15.260  17.413  0.00  0.00    -0.347 OA
ATOM     23  C   UNL     1       6.460  15.144  18.427  0.00  0.00    +0.206 A 
ATOM     24  S   UNL     1       4.809  15.188  18.597  0.00  0.00    -0.044 S 
ATOM     25  H   UNL     1       6.645  14.701  21.731  0.00  0.00    +0.064 HD
BRANCH  20  26
ATOM     26  C   UNL     1       9.644  14.823  20.176  0.00  0.00    -0.018 C 
ATOM     27  H   UNL     1       9.504  15.414  21.086  0.00  0.00    +0.029 HD
ATOM     28  H   UNL     1      10.557  15.167  19.677  0.00  0.00    +0.029 HD
ATOM     29  H   UNL     1       9.797  13.779  20.469  0.00  0.00    +0.029 HD
ENDBRANCH  20  26
ENDBRANCH   5  17
BRANCH   1  30
ATOM     30  S   UNL     1       0.944  11.946  19.664  0.00  0.00    +0.061 S 
ATOM     31  O   UNL     1       1.179  11.223  20.899  0.00  0.00    -0.153 OA
ATOM     32  O   UNL     1       2.008  12.091  18.692  0.00  0.00    -0.153 OA
BRANCH  30  37
ATOM     33  C   UNL     1      -2.870  11.356  18.429  0.00  0.00    -0.049 A 
ATOM     34  C   UNL     1      -2.767  10.221  17.622  0.00  0.00    -0.058 A 
ATOM     35  C   UNL     1      -1.528   9.604  17.418  0.00  0.00    -0.057 A 
ATOM     36  C   UNL     1      -0.360  10.103  18.015  0.00  0.00    -0.024 A 
ATOM     37  C   UNL     1      -0.472  11.240  18.838  0.00  0.00    +0.109 A 
ATOM     38  C   UNL     1      -1.720  11.852  19.050  0.00  0.00    -0.032 A 
ATOM     39  H   UNL     1      -3.652   9.802  17.149  0.00  0.00    +0.062 HD
ATOM     40  H   UNL     1      -1.486   8.717  16.788  0.00  0.00    +0.062 HD
ATOM     41  H   UNL     1      -1.800  12.724  19.700  0.00  0.00    +0.064 HD
BRANCH  33  42
ATOM     42  C   UNL     1      -4.208  11.992  18.674  0.00  0.00    -0.040 C 
ATOM     43  H   UNL     1      -4.794  11.398  19.382  0.00  0.00    +0.028 HD
ATOM     44  H   UNL     1      -4.075  13.002  19.077  0.00  0.00    +0.028 HD
ATOM     45  H   UNL     1      -4.789  12.057  17.747  0.00  0.00    +0.028 HD
ENDBRANCH  33  42
BRANCH  36  46
ATOM     46  C   UNL     1       0.935   9.373  17.778  0.00  0.00    -0.038 C 
ATOM     47  H   UNL     1       0.786   8.293  17.870  0.00  0.00    +0.028 HD
ATOM     48  H   UNL     1       1.320   9.567  16.771  0.00  0.00    +0.028 HD
ATOM     49  H   UNL     1       1.711   9.704  18.474  0.00  0.00    +0.028 HD
ENDBRANCH  36  46
ENDBRANCH  30  37
ENDBRANCH   1  30
TORSDOF 6
ENDMDL
MODEL 9
REMARK VINA RESULT:    -6.384      3.387      9.911
REMARK INTER + INTRA:          -5.926
REMARK INTER:                  -6.131
REMARK INTRA:                   0.205
REMARK UNBOUND:                 2.138
REMARK  Name = 
REMARK  6 active torsions:
REMARK  status: ('A' for Active; 'I' for Inactive)
REMARK    1  A    between atoms: C_1  and  C_2
REMARK    2  A    between atoms: C_5  and  C_6
REMARK    3  A    between atoms: C_7  and  S_8
REMARK    4  A    between atoms: S_8  and  N_11
REMARK    5  A    between atoms: C_15  and  C_17
REMARK    6  A    between atoms: C_20  and  C_21
REMARK                            x       y       z     vdW  Elec       q    Type
REMARK                         _______ _______ _______ _____ _____    ______ ____
ROOT
ATOM      1  N   UNL     1      -0.793  11.794  20.041  0.00  0.00    -0.174 NA
ATOM      2  C   UNL     1       0.160  12.263  18.966  0.00  0.00    +0.036 C 
ATOM      3  C   UNL     1       0.233  11.287  17.783  0.00  0.00    +0.029 C 
ATOM      4  N   UNL     1       0.422   9.919  18.262  0.00  0.00    -0.295 N 
ATOM      5  C   UNL     1       1.737   9.437  18.340  0.00  0.00    +0.253 C 
ATOM      6  O   UNL     1       2.685  10.165  18.039  0.00  0.00    -0.269 OA
ATOM      7  C   UNL     1      -0.636   9.438  19.166  0.00  0.00    +0.029 C 
ATOM      8  C   UNL     1      -1.565  10.571  19.646  0.00  0.00    +0.036 C 
ATOM      9  H   UNL     1       1.168  12.388  19.374  0.00  0.00    +0.046 HD
ATOM     10  H   UNL     1      -0.176  13.246  18.620  0.00  0.00    +0.046 HD
ATOM     11  H   UNL     1       1.036  11.581  17.100  0.00  0.00    +0.048 HD
ATOM     12  H   UNL     1      -0.696  11.308  17.203  0.00  0.00    +0.048 HD
ATOM     13  H   UNL     1      -1.231   8.698  18.621  0.00  0.00    +0.048 HD
ATOM     14  H   UNL     1      -0.187   8.947  20.034  0.00  0.00    +0.048 HD
ATOM     15  H   UNL     1      -2.204  10.223  20.465  0.00  0.00    +0.046 HD
ATOM     16  H   UNL     1      -2.255  10.862  18.843  0.00  0.00    +0.046 HD
ENDROOT
BRANCH   5  17
ATOM     17  C   UNL     1       1.961   8.072  18.788  0.00  0.00    +0.078 A 
ATOM     18  C   UNL     1       2.141   6.946  17.977  0.00  0.00    -0.030 A 
ATOM     19  C   UNL     1       2.245   5.826  18.790  0.00  0.00    +0.052 A 
ATOM     20  C   UNL     1       2.432   4.464  18.617  0.00  0.00    +0.089 A 
ATOM     21  N   UNL     1       2.434   3.862  19.829  0.00  0.00    -0.082 NA
ATOM     22  O   UNL     1       2.238   4.893  20.775  0.00  0.00    -0.347 OA
ATOM     23  C   UNL     1       2.129   6.054  20.101  0.00  0.00    +0.206 A 
ATOM     24  S   UNL     1       1.874   7.649  20.487  0.00  0.00    -0.044 S 
ATOM     25  H   UNL     1       2.189   6.988  16.896  0.00  0.00    +0.064 HD
BRANCH  20  26
ATOM     26  C   UNL     1       2.603   3.668  17.384  0.00  0.00    -0.018 C 
ATOM     27  H   UNL     1       2.096   2.703  17.481  0.00  0.00    +0.029 HD
ATOM     28  H   UNL     1       3.663   3.483  17.183  0.00  0.00    +0.029 HD
ATOM     29  H   UNL     1       2.184   4.185  16.514  0.00  0.00    +0.029 HD
ENDBRANCH  20  26
ENDBRANCH   5  17
BRANCH   1  30
ATOM     30  S   UNL     1      -0.128  11.697  21.617  0.00  0.00    +0.061 S 
ATOM     31  O   UNL     1       1.217  12.234  21.542  0.00  0.00    -0.153 OA
ATOM     32  O   UNL     1      -0.350  10.357  22.120  0.00  0.00    -0.153 OA
BRANCH  30  37
ATOM     33  C   UNL     1      -3.121  13.111  23.955  0.00  0.00    -0.049 A 
ATOM     34  C   UNL     1      -2.840  14.476  24.032  0.00  0.00    -0.058 A 
ATOM     35  C   UNL     1      -1.722  15.010  23.383  0.00  0.00    -0.057 A 
ATOM     36  C   UNL     1      -0.855  14.195  22.639  0.00  0.00    -0.024 A 
ATOM     37  C   UNL     1      -1.150  12.821  22.554  0.00  0.00    +0.109 A 
ATOM     38  C   UNL     1      -2.280  12.288  23.199  0.00  0.00    -0.032 A 
ATOM     39  H   UNL     1      -3.494  15.140  24.595  0.00  0.00    +0.062 HD
ATOM     40  H   UNL     1      -1.538  16.080  23.460  0.00  0.00    +0.062 HD
ATOM     41  H   UNL     1      -2.508  11.225  23.116  0.00  0.00    +0.064 HD
BRANCH  33  42
ATOM     42  C   UNL     1      -4.342  12.549  24.623  0.00  0.00    -0.040 C 
ATOM     43  H   UNL     1      -4.877  11.874  23.948  0.00  0.00    +0.028 HD
ATOM     44  H   UNL     1      -4.057  12.000  25.527  0.00  0.00    +0.028 HD
ATOM     45  H   UNL     1      -5.041  13.346  24.903  0.00  0.00    +0.028 HD
ENDBRANCH  33  42
BRANCH  36  46
ATOM     46  C   UNL     1       0.312  14.840  21.941  0.00  0.00    -0.038 C 
ATOM     47  H   UNL     1       0.610  15.754  22.460  0.00  0.00    +0.028 HD
ATOM     48  H   UNL     1       1.181  14.172  21.926  0.00  0.00    +0.028 HD
ATOM     49  H   UNL     1       0.077  15.062  20.897  0.00  0.00    +0.028 HD
ENDBRANCH  36  46
ENDBRANCH  30  37
ENDBRANCH   1  30
TORSDOF 6
ENDMDL
MODEL 10
REMARK VINA RESULT:    -6.320      4.400      7.615
REMARK INTER + INTRA:          -5.845
REMARK INTER:                  -5.788
REMARK INTRA:                  -0.058
REMARK UNBOUND:                 2.138
REMARK  Name = 
REMARK  6 active torsions:
REMARK  status: ('A' for Active; 'I' for Inactive)
REMARK    1  A    between atoms: C_1  and  C_2
REMARK    2  A    between atoms: C_5  and  C_6
REMARK    3  A    between atoms: C_7  and  S_8
REMARK    4  A    between atoms: S_8  and  N_11
REMARK    5  A    between atoms: C_15  and  C_17
REMARK    6  A    between atoms: C_20  and  C_21
REMARK                            x       y       z     vdW  Elec       q    Type
REMARK                         _______ _______ _______ _____ _____    ______ ____
ROOT
ATOM      1  N   UNL     1       0.383  10.744  18.469  0.00  0.00    -0.174 NA
ATOM      2  C   UNL     1      -0.831  10.242  17.722  0.00  0.00    +0.036 C 
ATOM      3  C   UNL     1      -1.775  11.380  17.309  0.00  0.00    +0.029 C 
ATOM      4  N   UNL     1      -2.034  12.264  18.444  0.00  0.00    -0.295 N 
ATOM      5  C   UNL     1      -3.180  12.010  19.212  0.00  0.00    +0.253 C 
ATOM      6  O   UNL     1      -3.911  11.055  18.943  0.00  0.00    -0.269 OA
ATOM      7  C   UNL     1      -0.829  12.879  19.025  0.00  0.00    +0.029 C 
ATOM      8  C   UNL     1       0.472  12.240  18.503  0.00  0.00    +0.036 C 
ATOM      9  H   UNL     1      -1.393   9.531  18.335  0.00  0.00    +0.046 HD
ATOM     10  H   UNL     1      -0.485   9.703  16.834  0.00  0.00    +0.046 HD
ATOM     11  H   UNL     1      -2.707  10.970  16.906  0.00  0.00    +0.048 HD
ATOM     12  H   UNL     1      -1.328  11.987  16.513  0.00  0.00    +0.048 HD
ATOM     13  H   UNL     1      -0.835  13.941  18.759  0.00  0.00    +0.048 HD
ATOM     14  H   UNL     1      -0.861  12.797  20.116  0.00  0.00    +0.048 HD
ATOM     15  H   UNL     1       1.330  12.573  19.098  0.00  0.00    +0.046 HD
ATOM     16  H   UNL     1       0.679  12.581  17.479  0.00  0.00    +0.046 HD
ENDROOT
BRANCH   5  17
ATOM     17  C   UNL     1      -3.483  12.884  20.334  0.00  0.00    +0.078 A 
ATOM     18  C   UNL     1      -2.662  13.141  21.438  0.00  0.00    -0.030 A 
ATOM     19  C   UNL     1      -3.348  13.965  22.318  0.00  0.00    +0.052 A 
ATOM     20  C   UNL     1      -3.102  14.567  23.542  0.00  0.00    +0.089 A 
ATOM     21  N   UNL     1      -4.197  15.267  23.918  0.00  0.00    -0.082 NA
ATOM     22  O   UNL     1      -5.147  15.085  22.887  0.00  0.00    -0.347 OA
ATOM     23  C   UNL     1      -4.589  14.295  21.950  0.00  0.00    +0.206 A 
ATOM     24  S   UNL     1      -5.059  13.633  20.501  0.00  0.00    -0.044 S 
ATOM     25  H   UNL     1      -1.660  12.744  21.545  0.00  0.00    +0.064 HD
BRANCH  20  26
ATOM     26  C   UNL     1      -1.904  14.526  24.407  0.00  0.00    -0.018 C 
ATOM     27  H   UNL     1      -2.164  14.143  25.399  0.00  0.00    +0.029 HD
ATOM     28  H   UNL     1      -1.475  15.527  24.525  0.00  0.00    +0.029 HD
ATOM     29  H   UNL     1      -1.129  13.879  23.986  0.00  0.00    +0.029 HD
ENDBRANCH  20  26
ENDBRANCH   5  17
BRANCH   1  30
ATOM     30  S   UNL     1       0.658  10.012  19.994  0.00  0.00    +0.061 S 
ATOM     31  O   UNL     1      -0.636   9.604  20.506  0.00  0.00    -0.153 OA
ATOM     32  O   UNL     1       1.504  10.893  20.772  0.00  0.00    -0.153 OA
BRANCH  30  37
ATOM     33  C   UNL     1       3.100   7.474  17.990  0.00  0.00    -0.049 A 
ATOM     34  C   UNL     1       3.102   6.336  18.800  0.00  0.00    -0.058 A 
ATOM     35  C   UNL     1       2.367   6.308  19.989  0.00  0.00    -0.057 A 
ATOM     36  C   UNL     1       1.611   7.416  20.403  0.00  0.00    -0.024 A 
ATOM     37  C   UNL     1       1.602   8.556  19.576  0.00  0.00    +0.109 A 
ATOM     38  C   UNL     1       2.333   8.578  18.375  0.00  0.00    -0.032 A 
ATOM     39  H   UNL     1       3.672   5.456  18.508  0.00  0.00    +0.062 HD
ATOM     40  H   UNL     1       2.387   5.402  20.592  0.00  0.00    +0.062 HD
ATOM     41  H   UNL     1       2.310   9.460  17.735  0.00  0.00    +0.064 HD
BRANCH  33  42
ATOM     42  C   UNL     1       3.861   7.484  16.696  0.00  0.00    -0.040 C 
ATOM     43  H   UNL     1       3.635   8.388  16.122  0.00  0.00    +0.028 HD
ATOM     44  H   UNL     1       4.938   7.446  16.894  0.00  0.00    +0.028 HD
ATOM     45  H   UNL     1       3.588   6.627  16.071  0.00  0.00    +0.028 HD
ENDBRANCH  33  42
BRANCH  36  46
ATOM     46  C   UNL     1       0.819   7.308  21.678  0.00  0.00    -0.038 C 
ATOM     47  H   UNL     1       0.161   6.435  21.647  0.00  0.00    +0.028 HD
ATOM     48  H   UNL     1       1.480   7.191  22.545  0.00  0.00    +0.028 HD
ATOM     49  H   UNL     1       0.232   8.213  21.859  0.00  0.00    +0.028 HD
ENDBRANCH  36  46
ENDBRANCH  30  37
ENDBRANCH   1  30
TORSDOF 6
ENDMDL
MODEL 11
REMARK VINA RESULT:    -6.309      3.605     10.646
REMARK INTER + INTRA:          -5.830
REMARK INTER:                  -6.870
REMARK INTRA:                   1.040
REMARK UNBOUND:                 2.138
REMARK  Name = 
REMARK  6 active torsions:
REMARK  status: ('A' for Active; 'I' for Inactive)
REMARK    1  A    between atoms: C_1  and  C_2
REMARK    2  A    between atoms: C_5  and  C_6
REMARK    3  A    between atoms: C_7  and  S_8
REMARK    4  A    between atoms: S_8  and  N_11
REMARK    5  A    between atoms: C_15  and  C_17
REMARK    6  A    between atoms: C_20  and  C_21
REMARK                            x       y       z     vdW  Elec       q    Type
REMARK                         _______ _______ _______ _____ _____    ______ ____
ROOT
ATOM      1  N   UNL     1      -1.607  12.365  20.085  0.00  0.00    -0.174 NA
ATOM      2  C   UNL     1      -0.634  13.146  19.232  0.00  0.00    +0.036 C 
ATOM      3  C   UNL     1      -0.248  12.396  17.949  0.00  0.00    +0.029 C 
ATOM      4  N   UNL     1       0.125  11.017  18.258  0.00  0.00    -0.295 N 
ATOM      5  C   UNL     1       1.487  10.745  18.456  0.00  0.00    +0.253 C 
ATOM      6  O   UNL     1       2.318  11.653  18.397  0.00  0.00    -0.269 OA
ATOM      7  C   UNL     1      -0.929  10.235  18.926  0.00  0.00    +0.029 C 
ATOM      8  C   UNL     1      -2.095  11.114  19.419  0.00  0.00    +0.036 C 
ATOM      9  H   UNL     1       0.280  13.364  19.793  0.00  0.00    +0.046 HD
ATOM     10  H   UNL     1      -1.097  14.105  18.980  0.00  0.00    +0.046 HD
ATOM     11  H   UNL     1       0.564  12.920  17.435  0.00  0.00    +0.048 HD
ATOM     12  H   UNL     1      -1.091  12.362  17.251  0.00  0.00    +0.048 HD
ATOM     13  H   UNL     1      -1.313   9.507  18.205  0.00  0.00    +0.048 HD
ATOM     14  H   UNL     1      -0.504   9.689  19.774  0.00  0.00    +0.048 HD
ATOM     15  H   UNL     1      -2.753  10.543  20.082  0.00  0.00    +0.046 HD
ATOM     16  H   UNL     1      -2.727  11.416  18.573  0.00  0.00    +0.046 HD
ENDROOT
BRANCH   5  17
ATOM     17  C   UNL     1       1.897   9.379  18.740  0.00  0.00    +0.078 A 
ATOM     18  C   UNL     1       2.619   8.531  17.892  0.00  0.00    -0.030 A 
ATOM     19  C   UNL     1       2.737   7.290  18.503  0.00  0.00    +0.052 A 
ATOM     20  C   UNL     1       3.318   6.068  18.206  0.00  0.00    +0.089 A 
ATOM     21  N   UNL     1       3.079   5.207  19.222  0.00  0.00    -0.082 NA
ATOM     22  O   UNL     1       2.322   5.930  20.173  0.00  0.00    -0.347 OA
ATOM     23  C   UNL     1       2.143   7.175  19.693  0.00  0.00    +0.206 A 
ATOM     24  S   UNL     1       1.371   8.558  20.196  0.00  0.00    -0.044 S 
ATOM     25  H   UNL     1       3.007   8.835  16.928  0.00  0.00    +0.064 HD
BRANCH  20  26
ATOM     26  C   UNL     1       4.083   5.632  17.019  0.00  0.00    -0.018 C 
ATOM     27  H   UNL     1       5.153   5.604  17.247  0.00  0.00    +0.029 HD
ATOM     28  H   UNL     1       3.927   6.320  16.181  0.00  0.00    +0.029 HD
ATOM     29  H   UNL     1       3.779   4.633  16.691  0.00  0.00    +0.029 HD
ENDBRANCH  20  26
ENDBRANCH   5  17
BRANCH   1  30
ATOM     30  S   UNL     1      -1.125  12.125  21.711  0.00  0.00    +0.061 S 
ATOM     31  O   UNL     1       0.213  12.668  21.840  0.00  0.00    -0.153 OA
ATOM     32  O   UNL     1      -1.388  10.745  22.061  0.00  0.00    -0.153 OA
BRANCH  30  37
ATOM     33  C   UNL     1      -2.612  14.615  24.542  0.00  0.00    -0.049 A 
ATOM     34  C   UNL     1      -3.942  14.780  24.147  0.00  0.00    -0.058 A 
ATOM     35  C   UNL     1      -4.426  14.148  22.998  0.00  0.00    -0.057 A 
ATOM     36  C   UNL     1      -3.596  13.332  22.212  0.00  0.00    -0.024 A 
ATOM     37  C   UNL     1      -2.260  13.158  22.623  0.00  0.00    +0.109 A 
ATOM     38  C   UNL     1      -1.779  13.787  23.784  0.00  0.00    -0.032 A 
ATOM     39  H   UNL     1      -4.615  15.400  24.735  0.00  0.00    +0.062 HD
ATOM     40  H   UNL     1      -5.469  14.294  22.724  0.00  0.00    +0.062 HD
ATOM     41  H   UNL     1      -0.747  13.635  24.101  0.00  0.00    +0.064 HD
BRANCH  33  42
ATOM     42  C   UNL     1      -2.108  15.267  25.797  0.00  0.00    -0.040 C 
ATOM     43  H   UNL     1      -1.908  14.517  26.568  0.00  0.00    +0.028 HD
ATOM     44  H   UNL     1      -1.186  15.819  25.587  0.00  0.00    +0.028 HD
ATOM     45  H   UNL     1      -2.850  15.962  26.205  0.00  0.00    +0.028 HD
ENDBRANCH  33  42
BRANCH  36  46
ATOM     46  C   UNL     1      -4.190  12.656  21.005  0.00  0.00    -0.038 C 
ATOM     47  H   UNL     1      -4.107  11.570  21.097  0.00  0.00    +0.028 HD
ATOM     48  H   UNL     1      -5.254  12.897  20.902  0.00  0.00    +0.028 HD
ATOM     49  H   UNL     1      -3.707  12.992  20.084  0.00  0.00    +0.028 HD
ENDBRANCH  36  46
ENDBRANCH  30  37
ENDBRANCH   1  30
TORSDOF 6
ENDMDL
MODEL 12
REMARK VINA RESULT:    -6.265      4.261      7.777
REMARK INTER + INTRA:          -5.775
REMARK INTER:                  -6.001
REMARK INTRA:                   0.226
REMARK UNBOUND:                 2.138
REMARK  Name = 
REMARK  6 active torsions:
REMARK  status: ('A' for Active; 'I' for Inactive)
REMARK    1  A    between atoms: C_1  and  C_2
REMARK    2  A    between atoms: C_5  and  C_6
REMARK    3  A    between atoms: C_7  and  S_8
REMARK    4  A    between atoms: S_8  and  N_11
REMARK    5  A    between atoms: C_15  and  C_17
REMARK    6  A    between atoms: C_20  and  C_21
REMARK                            x       y       z     vdW  Elec       q    Type
REMARK                         _______ _______ _______ _____ _____    ______ ____
ROOT
ATOM      1  N   UNL     1       1.784  11.208  19.338  0.00  0.00    -0.174 NA
ATOM      2  C   UNL     1       1.780  12.464  18.497  0.00  0.00    +0.036 C 
ATOM      3  C   UNL     1       1.600  13.734  19.341  0.00  0.00    +0.029 C 
ATOM      4  N   UNL     1       0.483  13.574  20.270  0.00  0.00    -0.295 N 
ATOM      5  C   UNL     1      -0.772  14.046  19.857  0.00  0.00    +0.253 C 
ATOM      6  O   UNL     1      -0.913  14.545  18.739  0.00  0.00    -0.269 OA
ATOM      7  C   UNL     1       0.620  12.441  21.201  0.00  0.00    +0.029 C 
ATOM      8  C   UNL     1       1.769  11.491  20.811  0.00  0.00    +0.036 C 
ATOM      9  H   UNL     1       0.977  12.426  17.754  0.00  0.00    +0.046 HD
ATOM     10  H   UNL     1       2.727  12.509  17.950  0.00  0.00    +0.046 HD
ATOM     11  H   UNL     1       1.454  14.602  18.691  0.00  0.00    +0.048 HD
ATOM     12  H   UNL     1       2.498  13.934  19.936  0.00  0.00    +0.048 HD
ATOM     13  H   UNL     1       0.819  12.848  22.197  0.00  0.00    +0.048 HD
ATOM     14  H   UNL     1      -0.317  11.878  21.239  0.00  0.00    +0.048 HD
ATOM     15  H   UNL     1       1.716  10.564  21.392  0.00  0.00    +0.046 HD
ATOM     16  H   UNL     1       2.738  11.940  21.069  0.00  0.00    +0.046 HD
ENDROOT
BRANCH   5  17
ATOM     17  C   UNL     1      -1.901  13.927  20.766  0.00  0.00    +0.078 A 
ATOM     18  C   UNL     1      -2.048  14.565  22.002  0.00  0.00    -0.030 A 
ATOM     19  C   UNL     1      -3.227  14.126  22.590  0.00  0.00    +0.052 A 
ATOM     20  C   UNL     1      -3.924  14.368  23.762  0.00  0.00    +0.089 A 
ATOM     21  N   UNL     1      -5.042  13.606  23.777  0.00  0.00    -0.082 NA
ATOM     22  O   UNL     1      -5.025  12.869  22.570  0.00  0.00    -0.347 OA
ATOM     23  C   UNL     1      -3.914  13.217  21.893  0.00  0.00    +0.206 A 
ATOM     24  S   UNL     1      -3.200  12.791  20.455  0.00  0.00    -0.044 S 
ATOM     25  H   UNL     1      -1.337  15.280  22.396  0.00  0.00    +0.064 HD
BRANCH  20  26
ATOM     26  C   UNL     1      -3.615  15.267  24.895  0.00  0.00    -0.018 C 
ATOM     27  H   UNL     1      -2.790  15.937  24.632  0.00  0.00    +0.029 HD
ATOM     28  H   UNL     1      -3.324  14.691  25.780  0.00  0.00    +0.029 HD
ATOM     29  H   UNL     1      -4.479  15.881  25.166  0.00  0.00    +0.029 HD
ENDBRANCH  20  26
ENDBRANCH   5  17
BRANCH   1  30
ATOM     30  S   UNL     1       0.656  10.008  18.866  0.00  0.00    +0.061 S 
ATOM     31  O   UNL     1       0.482  10.132  17.432  0.00  0.00    -0.153 OA
ATOM     32  O   UNL     1      -0.489  10.092  19.749  0.00  0.00    -0.153 OA
BRANCH  30  37
ATOM     33  C   UNL     1       3.075   6.786  18.427  0.00  0.00    -0.049 A 
ATOM     34  C   UNL     1       2.910   6.103  19.634  0.00  0.00    -0.058 A 
ATOM     35  C   UNL     1       2.065   6.608  20.627  0.00  0.00    -0.057 A 
ATOM     36  C   UNL     1       1.361   7.809  20.442  0.00  0.00    -0.024 A 
ATOM     37  C   UNL     1       1.521   8.486  19.217  0.00  0.00    +0.109 A 
ATOM     38  C   UNL     1       2.363   7.971  18.216  0.00  0.00    -0.032 A 
ATOM     39  H   UNL     1       3.435   5.167  19.810  0.00  0.00    +0.062 HD
ATOM     40  H   UNL     1       1.956   6.046  21.552  0.00  0.00    +0.062 HD
ATOM     41  H   UNL     1       2.470   8.495  17.267  0.00  0.00    +0.064 HD
BRANCH  33  42
ATOM     42  C   UNL     1       3.955   6.220  17.350  0.00  0.00    -0.040 C 
ATOM     43  H   UNL     1       4.866   5.792  17.781  0.00  0.00    +0.028 HD
ATOM     44  H   UNL     1       3.419   5.440  16.799  0.00  0.00    +0.028 HD
ATOM     45  H   UNL     1       4.266   6.999  16.645  0.00  0.00    +0.028 HD
ENDBRANCH  33  42
BRANCH  36  46
ATOM     46  C   UNL     1       0.444   8.279  21.539  0.00  0.00    -0.038 C 
ATOM     47  H   UNL     1      -0.595   8.266  21.200  0.00  0.00    +0.028 HD
ATOM     48  H   UNL     1       0.512   7.626  22.417  0.00  0.00    +0.028 HD
ATOM     49  H   UNL     1       0.714   9.282  21.879  0.00  0.00    +0.028 HD
ENDBRANCH  36  46
ENDBRANCH  30  37
ENDBRANCH   1  30
TORSDOF 6
ENDMDL
MODEL 13
REMARK VINA RESULT:    -6.127      3.631      9.487
REMARK INTER + INTRA:          -5.600
REMARK INTER:                  -6.722
REMARK INTRA:                   1.122
REMARK UNBOUND:                 2.138
REMARK  Name = 
REMARK  6 active torsions:
REMARK  status: ('A' for Active; 'I' for Inactive)
REMARK    1  A    between atoms: C_1  and  C_2
REMARK    2  A    between atoms: C_5  and  C_6
REMARK    3  A    between atoms: C_7  and  S_8
REMARK    4  A    between atoms: S_8  and  N_11
REMARK    5  A    between atoms: C_15  and  C_17
REMARK    6  A    between atoms: C_20  and  C_21
REMARK                            x       y       z     vdW  Elec       q    Type
REMARK                         _______ _______ _______ _____ _____    ______ ____
ROOT
ATOM      1  N   UNL     1      -0.111  11.701  19.231  0.00  0.00    -0.174 NA
ATOM      2  C   UNL     1       0.047  11.629  20.732  0.00  0.00    +0.036 C 
ATOM      3  C   UNL     1       1.403  11.041  21.150  0.00  0.00    +0.029 C 
ATOM      4  N   UNL     1       1.673   9.809  20.412  0.00  0.00    -0.295 N 
ATOM      5  C   UNL     1       1.311   8.598  21.022  0.00  0.00    +0.253 C 
ATOM      6  O   UNL     1       0.760   8.597  22.124  0.00  0.00    -0.269 OA
ATOM      7  C   UNL     1       1.693   9.966  18.948  0.00  0.00    +0.029 C 
ATOM      8  C   UNL     1       1.141  11.331  18.492  0.00  0.00    +0.036 C 
ATOM      9  H   UNL     1      -0.745  11.017  21.174  0.00  0.00    +0.046 HD
ATOM     10  H   UNL     1      -0.061  12.641  21.134  0.00  0.00    +0.046 HD
ATOM     11  H   UNL     1       1.422  10.868  22.231  0.00  0.00    +0.048 HD
ATOM     12  H   UNL     1       2.215  11.743  20.930  0.00  0.00    +0.048 HD
ATOM     13  H   UNL     1       2.732   9.875  18.616  0.00  0.00    +0.048 HD
ATOM     14  H   UNL     1       1.111   9.166  18.482  0.00  0.00    +0.048 HD
ATOM     15  H   UNL     1       0.979  11.338  17.409  0.00  0.00    +0.046 HD
ATOM     16  H   UNL     1       1.879  12.122  18.681  0.00  0.00    +0.046 HD
ENDROOT
BRANCH   5  17
ATOM     17  C   UNL     1       1.588   7.351  20.327  0.00  0.00    +0.078 A 
ATOM     18  C   UNL     1       1.300   6.060  20.784  0.00  0.00    -0.030 A 
ATOM     19  C   UNL     1       1.793   5.145  19.864  0.00  0.00    +0.052 A 
ATOM     20  C   UNL     1       1.827   3.766  19.727  0.00  0.00    +0.089 A 
ATOM     21  N   UNL     1       2.481   3.452  18.585  0.00  0.00    -0.082 NA
ATOM     22  O   UNL     1       2.862   4.683  18.005  0.00  0.00    -0.347 OA
ATOM     23  C   UNL     1       2.426   5.669  18.812  0.00  0.00    +0.206 A 
ATOM     24  S   UNL     1       2.498   7.329  18.830  0.00  0.00    -0.044 S 
ATOM     25  H   UNL     1       0.773   5.854  21.707  0.00  0.00    +0.064 HD
BRANCH  20  26
ATOM     26  C   UNL     1       1.295   2.702  20.604  0.00  0.00    -0.018 C 
ATOM     27  H   UNL     1       1.712   1.731  20.318  0.00  0.00    +0.029 HD
ATOM     28  H   UNL     1       0.204   2.645  20.528  0.00  0.00    +0.029 HD
ATOM     29  H   UNL     1       1.548   2.884  21.653  0.00  0.00    +0.029 HD
ENDBRANCH  20  26
ENDBRANCH   5  17
BRANCH   1  30
ATOM     30  S   UNL     1      -1.516  10.944  18.607  0.00  0.00    +0.061 S 
ATOM     31  O   UNL     1      -1.585   9.624  19.202  0.00  0.00    -0.153 OA
ATOM     32  O   UNL     1      -1.507  11.094  17.167  0.00  0.00    -0.153 OA
BRANCH  30  37
ATOM     33  C   UNL     1      -3.493  13.710  20.812  0.00  0.00    -0.049 A 
ATOM     34  C   UNL     1      -4.815  13.561  20.388  0.00  0.00    -0.058 A 
ATOM     35  C   UNL     1      -5.147  12.621  19.408  0.00  0.00    -0.057 A 
ATOM     36  C   UNL     1      -4.167  11.803  18.824  0.00  0.00    -0.024 A 
ATOM     37  C   UNL     1      -2.837  11.948  19.265  0.00  0.00    +0.109 A 
ATOM     38  C   UNL     1      -2.508  12.887  20.258  0.00  0.00    -0.032 A 
ATOM     39  H   UNL     1      -5.603  14.174  20.823  0.00  0.00    +0.062 HD
ATOM     40  H   UNL     1      -6.189  12.528  19.107  0.00  0.00    +0.062 HD
ATOM     41  H   UNL     1      -1.478  12.982  20.602  0.00  0.00    +0.064 HD
BRANCH  33  42
ATOM     42  C   UNL     1      -3.149  14.696  21.891  0.00  0.00    -0.040 C 
ATOM     43  H   UNL     1      -3.846  14.609  22.730  0.00  0.00    +0.028 HD
ATOM     44  H   UNL     1      -2.130  14.516  22.252  0.00  0.00    +0.028 HD
ATOM     45  H   UNL     1      -3.215  15.725  21.520  0.00  0.00    +0.028 HD
ENDBRANCH  33  42
BRANCH  36  46
ATOM     46  C   UNL     1      -4.597  10.790  17.797  0.00  0.00    -0.038 C 
ATOM     47  H   UNL     1      -5.686  10.693  17.790  0.00  0.00    +0.028 HD
ATOM     48  H   UNL     1      -4.287  11.093  16.790  0.00  0.00    +0.028 HD
ATOM     49  H   UNL     1      -4.135   9.816  17.981  0.00  0.00    +0.028 HD
ENDBRANCH  36  46
ENDBRANCH  30  37
ENDBRANCH   1  30
TORSDOF 6
ENDMDL
MODEL 14
REMARK VINA RESULT:    -6.032      3.582      9.454
REMARK INTER + INTRA:          -5.482
REMARK INTER:                  -6.072
REMARK INTRA:                   0.590
REMARK UNBOUND:                 2.138
REMARK  Name = 
REMARK  6 active torsions:
REMARK  status: ('A' for Active; 'I' for Inactive)
REMARK    1  A    between atoms: C_1  and  C_2
REMARK    2  A    between atoms: C_5  and  C_6
REMARK    3  A    between atoms: C_7  and  S_8
REMARK    4  A    between atoms: S_8  and  N_11
REMARK    5  A    between atoms: C_15  and  C_17
REMARK    6  A    between atoms: C_20  and  C_21
REMARK                            x       y       z     vdW  Elec       q    Type
REMARK                         _______ _______ _______ _____ _____    ______ ____
ROOT
ATOM      1  N   UNL     1      -0.076  12.628  21.043  0.00  0.00    -0.174 NA
ATOM      2  C   UNL     1      -0.889  11.656  21.868  0.00  0.00    +0.036 C 
ATOM      3  C   UNL     1      -0.017  10.579  22.529  0.00  0.00    +0.029 C 
ATOM      4  N   UNL     1       0.895   9.991  21.550  0.00  0.00    -0.295 N 
ATOM      5  C   UNL     1       0.479   8.817  20.904  0.00  0.00    +0.253 C 
ATOM      6  O   UNL     1      -0.628   8.333  21.143  0.00  0.00    -0.269 OA
ATOM      7  C   UNL     1       1.801  10.955  20.903  0.00  0.00    +0.029 C 
ATOM      8  C   UNL     1       1.402  12.418  21.179  0.00  0.00    +0.036 C 
ATOM      9  H   UNL     1      -1.641  11.160  21.247  0.00  0.00    +0.046 HD
ATOM     10  H   UNL     1      -1.424  12.226  22.633  0.00  0.00    +0.046 HD
ATOM     11  H   UNL     1      -0.649   9.814  22.991  0.00  0.00    +0.048 HD
ATOM     12  H   UNL     1       0.592  11.010  23.331  0.00  0.00    +0.048 HD
ATOM     13  H   UNL     1       2.808  10.781  21.294  0.00  0.00    +0.048 HD
ATOM     14  H   UNL     1       1.816  10.782  19.823  0.00  0.00    +0.048 HD
ATOM     15  H   UNL     1       1.961  13.098  20.528  0.00  0.00    +0.046 HD
ATOM     16  H   UNL     1       1.681  12.701  22.203  0.00  0.00    +0.046 HD
ENDROOT
BRANCH   5  17
ATOM     17  C   UNL     1       1.372   8.189  19.942  0.00  0.00    +0.078 A 
ATOM     18  C   UNL     1       2.132   7.032  20.141  0.00  0.00    -0.030 A 
ATOM     19  C   UNL     1       2.908   6.811  19.012  0.00  0.00    +0.052 A 
ATOM     20  C   UNL     1       3.832   5.870  18.587  0.00  0.00    +0.089 A 
ATOM     21  N   UNL     1       4.271   6.208  17.352  0.00  0.00    -0.082 NA
ATOM     22  O   UNL     1       3.591   7.400  17.012  0.00  0.00    -0.347 OA
ATOM     23  C   UNL     1       2.785   7.721  18.042  0.00  0.00    +0.206 A 
ATOM     24  S   UNL     1       1.722   8.946  18.401  0.00  0.00    -0.044 S 
ATOM     25  H   UNL     1       2.089   6.433  21.043  0.00  0.00    +0.064 HD
BRANCH  20  26
ATOM     26  C   UNL     1       4.354   4.664  19.263  0.00  0.00    -0.018 C 
ATOM     27  H   UNL     1       5.448   4.683  19.283  0.00  0.00    +0.029 HD
ATOM     28  H   UNL     1       4.033   3.756  18.742  0.00  0.00    +0.029 HD
ATOM     29  H   UNL     1       3.997   4.599  20.296  0.00  0.00    +0.029 HD
ENDBRANCH  20  26
ENDBRANCH   5  17
BRANCH   1  30
ATOM     30  S   UNL     1      -0.588  12.814  19.418  0.00  0.00    +0.061 S 
ATOM     31  O   UNL     1      -0.118  11.651  18.691  0.00  0.00    -0.153 OA
ATOM     32  O   UNL     1      -0.221  14.144  18.979  0.00  0.00    -0.153 OA
BRANCH  30  37
ATOM     33  C   UNL     1      -4.427  11.657  18.830  0.00  0.00    -0.049 A 
ATOM     34  C   UNL     1      -5.147  12.535  19.644  0.00  0.00    -0.058 A 
ATOM     35  C   UNL     1      -4.485  13.501  20.407  0.00  0.00    -0.057 A 
ATOM     36  C   UNL     1      -3.086  13.618  20.380  0.00  0.00    -0.024 A 
ATOM     37  C   UNL     1      -2.367  12.739  19.547  0.00  0.00    +0.109 A 
ATOM     38  C   UNL     1      -3.035  11.775  18.773  0.00  0.00    -0.032 A 
ATOM     39  H   UNL     1      -6.233  12.478  19.685  0.00  0.00    +0.062 HD
ATOM     40  H   UNL     1      -5.079  14.173  21.025  0.00  0.00    +0.062 HD
ATOM     41  H   UNL     1      -2.470  11.108  18.121  0.00  0.00    +0.064 HD
BRANCH  33  42
ATOM     42  C   UNL     1      -5.145  10.646  17.985  0.00  0.00    -0.040 C 
ATOM     43  H   UNL     1      -4.579  10.433  17.072  0.00  0.00    +0.028 HD
ATOM     44  H   UNL     1      -5.280   9.715  18.547  0.00  0.00    +0.028 HD
ATOM     45  H   UNL     1      -6.129  11.017  17.677  0.00  0.00    +0.028 HD
ENDBRANCH  33  42
BRANCH  36  46
ATOM     46  C   UNL     1      -2.441  14.701  21.202  0.00  0.00    -0.038 C 
ATOM     47  H   UNL     1      -1.357  14.696  21.057  0.00  0.00    +0.028 HD
ATOM     48  H   UNL     1      -2.808  15.691  20.909  0.00  0.00    +0.028 HD
ATOM     49  H   UNL     1      -2.676  14.587  22.264  0.00  0.00    +0.028 HD
ENDBRANCH  36  46
ENDBRANCH  30  37
ENDBRANCH   1  30
TORSDOF 6
ENDMDL
MODEL 15
REMARK VINA RESULT:    -5.946      3.609      9.117
REMARK INTER + INTRA:          -5.373
REMARK INTER:                  -5.902
REMARK INTRA:                   0.529
REMARK UNBOUND:                 2.138
REMARK  Name = 
REMARK  6 active torsions:
REMARK  status: ('A' for Active; 'I' for Inactive)
REMARK    1  A    between atoms: C_1  and  C_2
REMARK    2  A    between atoms: C_5  and  C_6
REMARK    3  A    between atoms: C_7  and  S_8
REMARK    4  A    between atoms: S_8  and  N_11
REMARK    5  A    between atoms: C_15  and  C_17
REMARK    6  A    between atoms: C_20  and  C_21
REMARK                            x       y       z     vdW  Elec       q    Type
REMARK                         _______ _______ _______ _____ _____    ______ ____
ROOT
ATOM      1  N   UNL     1       0.591  11.352  19.305  0.00  0.00    -0.174 NA
ATOM      2  C   UNL     1       1.782  11.400  18.377  0.00  0.00    +0.036 C 
ATOM      3  C   UNL     1       1.749  10.284  17.323  0.00  0.00    +0.029 C 
ATOM      4  N   UNL     1       1.473   8.996  17.955  0.00  0.00    -0.295 N 
ATOM      5  C   UNL     1       2.574   8.201  18.309  0.00  0.00    +0.253 C 
ATOM      6  O   UNL     1       3.722   8.606  18.114  0.00  0.00    -0.269 OA
ATOM      7  C   UNL     1       0.203   8.939  18.698  0.00  0.00    +0.029 C 
ATOM      8  C   UNL     1      -0.428  10.331  18.897  0.00  0.00    +0.036 C 
ATOM      9  H   UNL     1       2.715  11.313  18.943  0.00  0.00    +0.046 HD
ATOM     10  H   UNL     1       1.791  12.378  17.886  0.00  0.00    +0.046 HD
ATOM     11  H   UNL     1       2.692  10.260  16.768  0.00  0.00    +0.048 HD
ATOM     12  H   UNL     1       0.957  10.467  16.588  0.00  0.00    +0.048 HD
ATOM     13  H   UNL     1      -0.490   8.312  18.128  0.00  0.00    +0.048 HD
ATOM     14  H   UNL     1       0.366   8.473  19.675  0.00  0.00    +0.048 HD
ATOM     15  H   UNL     1      -1.251  10.281  19.618  0.00  0.00    +0.046 HD
ATOM     16  H   UNL     1      -0.885  10.678  17.960  0.00  0.00    +0.046 HD
ENDROOT
BRANCH   5  17
ATOM     17  C   UNL     1       2.337   6.901  18.917  0.00  0.00    +0.078 A 
ATOM     18  C   UNL     1       2.323   5.665  18.263  0.00  0.00    -0.030 A 
ATOM     19  C   UNL     1       1.984   4.681  19.182  0.00  0.00    +0.052 A 
ATOM     20  C   UNL     1       1.811   3.307  19.175  0.00  0.00    +0.089 A 
ATOM     21  N   UNL     1       1.456   2.900  20.416  0.00  0.00    -0.082 NA
ATOM     22  O   UNL     1       1.408   4.070  21.208  0.00  0.00    -0.347 OA
ATOM     23  C   UNL     1       1.732   5.113  20.420  0.00  0.00    +0.206 A 
ATOM     24  S   UNL     1       1.872   6.758  20.600  0.00  0.00    -0.044 S 
ATOM     25  H   UNL     1       2.550   5.540  17.211  0.00  0.00    +0.064 HD
BRANCH  20  26
ATOM     26  C   UNL     1       1.945   2.328  18.075  0.00  0.00    -0.018 C 
ATOM     27  H   UNL     1       2.229   1.348  18.472  0.00  0.00    +0.029 HD
ATOM     28  H   UNL     1       2.712   2.647  17.361  0.00  0.00    +0.029 HD
ATOM     29  H   UNL     1       1.005   2.213  17.526  0.00  0.00    +0.029 HD
ENDBRANCH  20  26
ENDBRANCH   5  17
BRANCH   1  30
ATOM     30  S   UNL     1       0.967  11.305  20.976  0.00  0.00    +0.061 S 
ATOM     31  O   UNL     1       1.971  12.324  21.212  0.00  0.00    -0.153 OA
ATOM     32  O   UNL     1       1.227   9.928  21.342  0.00  0.00    -0.153 OA
BRANCH  30  37
ATOM     33  C   UNL     1      -2.370  13.437  21.837  0.00  0.00    -0.049 A 
ATOM     34  C   UNL     1      -2.946  12.711  22.881  0.00  0.00    -0.058 A 
ATOM     35  C   UNL     1      -2.342  11.540  23.351  0.00  0.00    -0.057 A 
ATOM     36  C   UNL     1      -1.146  11.063  22.790  0.00  0.00    -0.024 A 
ATOM     37  C   UNL     1      -0.563  11.807  21.746  0.00  0.00    +0.109 A 
ATOM     38  C   UNL     1      -1.167  12.989  21.283  0.00  0.00    -0.032 A 
ATOM     39  H   UNL     1      -3.869  13.054  23.344  0.00  0.00    +0.062 HD
ATOM     40  H   UNL     1      -2.815  11.004  24.171  0.00  0.00    +0.062 HD
ATOM     41  H   UNL     1      -0.701  13.565  20.483  0.00  0.00    +0.064 HD
BRANCH  33  42
ATOM     42  C   UNL     1      -3.003  14.713  21.362  0.00  0.00    -0.040 C 
ATOM     43  H   UNL     1      -3.070  15.439  22.178  0.00  0.00    +0.028 HD
ATOM     44  H   UNL     1      -2.412  15.144  20.547  0.00  0.00    +0.028 HD
ATOM     45  H   UNL     1      -4.023  14.536  21.001  0.00  0.00    +0.028 HD
ENDBRANCH  33  42
BRANCH  36  46
ATOM     46  C   UNL     1      -0.534   9.814  23.364  0.00  0.00    -0.038 C 
ATOM     47  H   UNL     1      -1.295   9.040  23.492  0.00  0.00    +0.028 HD
ATOM     48  H   UNL     1       0.237   9.410  22.697  0.00  0.00    +0.028 HD
ATOM     49  H   UNL     1      -0.040  10.015  24.318  0.00  0.00    +0.028 HD
ENDBRANCH  36  46
ENDBRANCH  30  37
ENDBRANCH   1  30
TORSDOF 6
ENDMDL
MODEL 16
REMARK VINA RESULT:    -5.803      3.681      6.332
REMARK INTER + INTRA:          -5.191
REMARK INTER:                  -5.408
REMARK INTRA:                   0.216
REMARK UNBOUND:                 2.138
REMARK  Name = 
REMARK  6 active torsions:
REMARK  status: ('A' for Active; 'I' for Inactive)
REMARK    1  A    between atoms: C_1  and  C_2
REMARK    2  A    between atoms: C_5  and  C_6
REMARK    3  A    between atoms: C_7  and  S_8
REMARK    4  A    between atoms: S_8  and  N_11
REMARK    5  A    between atoms: C_15  and  C_17
REMARK    6  A    between atoms: C_20  and  C_21
REMARK                            x       y       z     vdW  Elec       q    Type
REMARK                         _______ _______ _______ _____ _____    ______ ____
ROOT
ATOM      1  N   UNL     1       1.605   8.146  20.801  0.00  0.00    -0.174 NA
ATOM      2  C   UNL     1       2.039   9.514  21.275  0.00  0.00    +0.036 C 
ATOM      3  C   UNL     1       0.875  10.327  21.861  0.00  0.00    +0.029 C 
ATOM      4  N   UNL     1      -0.276  10.289  20.962  0.00  0.00    -0.295 N 
ATOM      5  C   UNL     1      -0.413  11.341  20.044  0.00  0.00    +0.253 C 
ATOM      6  O   UNL     1       0.432  12.237  19.993  0.00  0.00    -0.269 OA
ATOM      7  C   UNL     1      -0.783   8.937  20.675  0.00  0.00    +0.029 C 
ATOM      8  C   UNL     1       0.181   7.831  21.149  0.00  0.00    +0.036 C 
ATOM      9  H   UNL     1       2.478  10.085  20.451  0.00  0.00    +0.046 HD
ATOM     10  H   UNL     1       2.820   9.380  22.030  0.00  0.00    +0.046 HD
ATOM     11  H   UNL     1       1.194  11.356  22.055  0.00  0.00    +0.048 HD
ATOM     12  H   UNL     1       0.557   9.910  22.823  0.00  0.00    +0.048 HD
ATOM     13  H   UNL     1      -1.739   8.821  21.195  0.00  0.00    +0.048 HD
ATOM     14  H   UNL     1      -0.959   8.827  19.601  0.00  0.00    +0.048 HD
ATOM     15  H   UNL     1      -0.120   6.859  20.745  0.00  0.00    +0.046 HD
ATOM     16  H   UNL     1       0.126   7.721  22.241  0.00  0.00    +0.046 HD
ENDROOT
BRANCH   5  17
ATOM     17  C   UNL     1      -1.561  11.350  19.151  0.00  0.00    +0.078 A 
ATOM     18  C   UNL     1      -1.603  10.862  17.841  0.00  0.00    -0.030 A 
ATOM     19  C   UNL     1      -2.856  11.130  17.308  0.00  0.00    +0.052 A 
ATOM     20  C   UNL     1      -3.514  10.909  16.108  0.00  0.00    +0.089 A 
ATOM     21  N   UNL     1      -4.760  11.429  16.186  0.00  0.00    -0.082 NA
ATOM     22  O   UNL     1      -4.866  11.991  17.479  0.00  0.00    -0.347 OA
ATOM     23  C   UNL     1      -3.696  11.786  18.113  0.00  0.00    +0.206 A 
ATOM     24  S   UNL     1      -3.052  12.154  19.599  0.00  0.00    -0.044 S 
ATOM     25  H   UNL     1      -0.771  10.360  17.361  0.00  0.00    +0.064 HD
BRANCH  20  26
ATOM     26  C   UNL     1      -3.054  10.245  14.870  0.00  0.00    -0.018 C 
ATOM     27  H   UNL     1      -3.532  10.699  13.996  0.00  0.00    +0.029 HD
ATOM     28  H   UNL     1      -3.302   9.178  14.885  0.00  0.00    +0.029 HD
ATOM     29  H   UNL     1      -1.970  10.334  14.748  0.00  0.00    +0.029 HD
ENDBRANCH  20  26
ENDBRANCH   5  17
BRANCH   1  30
ATOM     30  S   UNL     1       2.005   7.774  19.177  0.00  0.00    +0.061 S 
ATOM     31  O   UNL     1       3.111   8.634  18.806  0.00  0.00    -0.153 OA
ATOM     32  O   UNL     1       0.784   7.781  18.398  0.00  0.00    -0.153 OA
BRANCH  30  37
ATOM     33  C   UNL     1       2.481   3.957  20.453  0.00  0.00    -0.049 A 
ATOM     34  C   UNL     1       3.437   3.449  19.571  0.00  0.00    -0.058 A 
ATOM     35  C   UNL     1       3.960   4.249  18.551  0.00  0.00    -0.057 A 
ATOM     36  C   UNL     1       3.544   5.579  18.383  0.00  0.00    -0.024 A 
ATOM     37  C   UNL     1       2.589   6.091  19.284  0.00  0.00    +0.109 A 
ATOM     38  C   UNL     1       2.072   5.287  20.315  0.00  0.00    -0.032 A 
ATOM     39  H   UNL     1       3.788   2.424  19.675  0.00  0.00    +0.062 HD
ATOM     40  H   UNL     1       4.709   3.821  17.886  0.00  0.00    +0.062 HD
ATOM     41  H   UNL     1       1.344   5.696  21.015  0.00  0.00    +0.064 HD
BRANCH  33  42
ATOM     42  C   UNL     1       1.950   3.105  21.569  0.00  0.00    -0.040 C 
ATOM     43  H   UNL     1       0.892   2.873  21.409  0.00  0.00    +0.028 HD
ATOM     44  H   UNL     1       2.516   2.169  21.628  0.00  0.00    +0.028 HD
ATOM     45  H   UNL     1       2.025   3.623  22.531  0.00  0.00    +0.028 HD
ENDBRANCH  33  42
BRANCH  36  46
ATOM     46  C   UNL     1       4.170   6.394  17.284  0.00  0.00    -0.038 C 
ATOM     47  H   UNL     1       5.261   6.345  17.347  0.00  0.00    +0.028 HD
ATOM     48  H   UNL     1       3.880   6.015  16.298  0.00  0.00    +0.028 HD
ATOM     49  H   UNL     1       3.840   7.435  17.324  0.00  0.00    +0.028 HD
ENDBRANCH  36  46
ENDBRANCH  30  37
ENDBRANCH   1  30
TORSDOF 6
ENDMDL
MODEL 17
REMARK VINA RESULT:    -5.746      4.451      8.935
REMARK INTER + INTRA:          -5.120
REMARK INTER:                  -5.531
REMARK INTRA:                   0.411
REMARK UNBOUND:                 2.138
REMARK  Name = 
REMARK  6 active torsions:
REMARK  status: ('A' for Active; 'I' for Inactive)
REMARK    1  A    between atoms: C_1  and  C_2
REMARK    2  A    between atoms: C_5  and  C_6
REMARK    3  A    between atoms: C_7  and  S_8
REMARK    4  A    between atoms: S_8  and  N_11
REMARK    5  A    between atoms: C_15  and  C_17
REMARK    6  A    between atoms: C_20  and  C_21
REMARK                            x       y       z     vdW  Elec       q    Type
REMARK                         _______ _______ _______ _____ _____    ______ ____
ROOT
ATOM      1  N   UNL     1       0.985  13.796  20.421  0.00  0.00    -0.174 NA
ATOM      2  C   UNL     1      -0.436  13.487  20.011  0.00  0.00    +0.036 C 
ATOM      3  C   UNL     1      -0.942  12.164  20.604  0.00  0.00    +0.029 C 
ATOM      4  N   UNL     1       0.038  11.102  20.389  0.00  0.00    -0.295 N 
ATOM      5  C   UNL     1      -0.123  10.294  19.253  0.00  0.00    +0.253 C 
ATOM      6  O   UNL     1      -1.045  10.508  18.464  0.00  0.00    -0.269 OA
ATOM      7  C   UNL     1       1.364  11.368  20.972  0.00  0.00    +0.029 C 
ATOM      8  C   UNL     1       1.525  12.830  21.433  0.00  0.00    +0.036 C 
ATOM      9  H   UNL     1      -0.518  13.431  18.921  0.00  0.00    +0.046 HD
ATOM     10  H   UNL     1      -1.072  14.314  20.343  0.00  0.00    +0.046 HD
ATOM     11  H   UNL     1      -1.912  11.902  20.170  0.00  0.00    +0.048 HD
ATOM     12  H   UNL     1      -1.097  12.257  21.685  0.00  0.00    +0.048 HD
ATOM     13  H   UNL     1       1.489  10.707  21.835  0.00  0.00    +0.048 HD
ATOM     14  H   UNL     1       2.144  11.131  20.241  0.00  0.00    +0.048 HD
ATOM     15  H   UNL     1       2.573  13.046  21.668  0.00  0.00    +0.046 HD
ATOM     16  H   UNL     1       0.977  12.995  22.371  0.00  0.00    +0.046 HD
ENDROOT
BRANCH   5  17
ATOM     17  C   UNL     1       0.819   9.211  19.021  0.00  0.00    +0.078 A 
ATOM     18  C   UNL     1       0.987   8.068  19.810  0.00  0.00    -0.030 A 
ATOM     19  C   UNL     1       2.037   7.323  19.292  0.00  0.00    +0.052 A 
ATOM     20  C   UNL     1       2.677   6.131  19.593  0.00  0.00    +0.089 A 
ATOM     21  N   UNL     1       3.674   5.928  18.701  0.00  0.00    -0.082 NA
ATOM     22  O   UNL     1       3.644   7.038  17.826  0.00  0.00    -0.347 OA
ATOM     23  C   UNL     1       2.643   7.847  18.224  0.00  0.00    +0.206 A 
ATOM     24  S   UNL     1       2.010   9.304  17.739  0.00  0.00    -0.044 S 
ATOM     25  H   UNL     1       0.373   7.839  20.673  0.00  0.00    +0.064 HD
BRANCH  20  26
ATOM     26  C   UNL     1       2.429   5.155  20.675  0.00  0.00    -0.018 C 
ATOM     27  H   UNL     1       1.776   5.592  21.438  0.00  0.00    +0.029 HD
ATOM     28  H   UNL     1       3.368   4.857  21.154  0.00  0.00    +0.029 HD
ATOM     29  H   UNL     1       1.946   4.249  20.294  0.00  0.00    +0.029 HD
ENDBRANCH  20  26
ENDBRANCH   5  17
BRANCH   1  30
ATOM     30  S   UNL     1       2.069  14.103  19.130  0.00  0.00    +0.061 S 
ATOM     31  O   UNL     1       1.561  15.259  18.418  0.00  0.00    -0.153 OA
ATOM     32  O   UNL     1       2.298  12.858  18.427  0.00  0.00    -0.153 OA
BRANCH  30  37
ATOM     33  C   UNL     1       4.704  14.918  22.099  0.00  0.00    -0.049 A 
ATOM     34  C   UNL     1       5.863  15.267  21.403  0.00  0.00    -0.058 A 
ATOM     35  C   UNL     1       5.884  15.253  20.005  0.00  0.00    -0.057 A 
ATOM     36  C   UNL     1       4.747  14.893  19.263  0.00  0.00    -0.024 A 
ATOM     37  C   UNL     1       3.577  14.555  19.971  0.00  0.00    +0.109 A 
ATOM     38  C   UNL     1       3.556  14.579  21.377  0.00  0.00    -0.032 A 
ATOM     39  H   UNL     1       6.761  15.558  21.944  0.00  0.00    +0.062 HD
ATOM     40  H   UNL     1       6.803  15.537  19.495  0.00  0.00    +0.062 HD
ATOM     41  H   UNL     1       2.642  14.330  21.915  0.00  0.00    +0.064 HD
BRANCH  33  42
ATOM     42  C   UNL     1       4.677  14.969  23.599  0.00  0.00    -0.040 C 
ATOM     43  H   UNL     1       4.473  13.978  24.016  0.00  0.00    +0.028 HD
ATOM     44  H   UNL     1       5.640  15.327  23.980  0.00  0.00    +0.028 HD
ATOM     45  H   UNL     1       3.887  15.640  23.957  0.00  0.00    +0.028 HD
ENDBRANCH  33  42
BRANCH  36  46
ATOM     46  C   UNL     1       4.829  14.930  17.761  0.00  0.00    -0.038 C 
ATOM     47  H   UNL     1       5.446  15.771  17.433  0.00  0.00    +0.028 HD
ATOM     48  H   UNL     1       5.285  14.014  17.368  0.00  0.00    +0.028 HD
ATOM     49  H   UNL     1       3.835  14.997  17.311  0.00  0.00    +0.028 HD
ENDBRANCH  36  46
ENDBRANCH  30  37
ENDBRANCH   1  30
TORSDOF 6
ENDMDL
MODEL 18
REMARK VINA RESULT:    -5.715      3.180      8.140
REMARK INTER + INTRA:          -5.080
REMARK INTER:                  -5.265
REMARK INTRA:                   0.184
REMARK UNBOUND:                 2.138
REMARK  Name = 
REMARK  6 active torsions:
REMARK  status: ('A' for Active; 'I' for Inactive)
REMARK    1  A    between atoms: C_1  and  C_2
REMARK    2  A    between atoms: C_5  and  C_6
REMARK    3  A    between atoms: C_7  and  S_8
REMARK    4  A    between atoms: S_8  and  N_11
REMARK    5  A    between atoms: C_15  and  C_17
REMARK    6  A    between atoms: C_20  and  C_21
REMARK                            x       y       z     vdW  Elec       q    Type
REMARK                         _______ _______ _______ _____ _____    ______ ____
ROOT
ATOM      1  N   UNL     1       0.207  10.235  20.528  0.00  0.00    -0.174 NA
ATOM      2  C   UNL     1      -0.764   9.155  20.950  0.00  0.00    +0.036 C 
ATOM      3  C   UNL     1      -0.117   8.119  21.880  0.00  0.00    +0.029 C 
ATOM      4  N   UNL     1       1.157   7.663  21.328  0.00  0.00    -0.295 N 
ATOM      5  C   UNL     1       1.143   6.497  20.548  0.00  0.00    +0.253 C 
ATOM      6  O   UNL     1       0.082   5.910  20.325  0.00  0.00    -0.269 OA
ATOM      7  C   UNL     1       2.144   8.733  21.106  0.00  0.00    +0.029 C 
ATOM      8  C   UNL     1       1.528  10.141  21.230  0.00  0.00    +0.036 C 
ATOM      9  H   UNL     1      -1.162   8.633  20.075  0.00  0.00    +0.046 HD
ATOM     10  H   UNL     1      -1.608   9.636  21.454  0.00  0.00    +0.046 HD
ATOM     11  H   UNL     1      -0.801   7.280  22.043  0.00  0.00    +0.048 HD
ATOM     12  H   UNL     1       0.087   8.554  22.865  0.00  0.00    +0.048 HD
ATOM     13  H   UNL     1       2.931   8.623  21.858  0.00  0.00    +0.048 HD
ATOM     14  H   UNL     1       2.595   8.622  20.116  0.00  0.00    +0.048 HD
ATOM     15  H   UNL     1       2.227  10.900  20.864  0.00  0.00    +0.046 HD
ATOM     16  H   UNL     1       1.357  10.389  22.287  0.00  0.00    +0.046 HD
ENDROOT
BRANCH   5  17
ATOM     17  C   UNL     1       2.396   6.000  20.004  0.00  0.00    +0.078 A 
ATOM     18  C   UNL     1       3.156   6.588  18.986  0.00  0.00    -0.030 A 
ATOM     19  C   UNL     1       4.236   5.763  18.706  0.00  0.00    +0.052 A 
ATOM     20  C   UNL     1       5.322   5.774  17.845  0.00  0.00    +0.089 A 
ATOM     21  N   UNL     1       6.046   4.648  18.033  0.00  0.00    -0.082 NA
ATOM     22  O   UNL     1       5.378   3.920  19.044  0.00  0.00    -0.347 OA
ATOM     23  C   UNL     1       4.296   4.632  19.415  0.00  0.00    +0.206 A 
ATOM     24  S   UNL     1       3.044   4.446  20.490  0.00  0.00    -0.044 S 
ATOM     25  H   UNL     1       2.907   7.535  18.524  0.00  0.00    +0.064 HD
BRANCH  20  26
ATOM     26  C   UNL     1       5.734   6.771  16.835  0.00  0.00    -0.018 C 
ATOM     27  H   UNL     1       5.763   6.315  15.841  0.00  0.00    +0.029 HD
ATOM     28  H   UNL     1       6.730   7.167  17.062  0.00  0.00    +0.029 HD
ATOM     29  H   UNL     1       5.039   7.617  16.800  0.00  0.00    +0.029 HD
ENDBRANCH  20  26
ENDBRANCH   5  17
BRANCH   1  30
ATOM     30  S   UNL     1       0.351  10.468  18.837  0.00  0.00    +0.061 S 
ATOM     31  O   UNL     1       0.772   9.201  18.270  0.00  0.00    -0.153 OA
ATOM     32  O   UNL     1       1.137  11.663  18.611  0.00  0.00    -0.153 OA
BRANCH  30  37
ATOM     33  C   UNL     1      -3.114  10.351  16.739  0.00  0.00    -0.049 A 
ATOM     34  C   UNL     1      -3.928  11.252  17.429  0.00  0.00    -0.058 A 
ATOM     35  C   UNL     1      -3.452  11.916  18.563  0.00  0.00    -0.057 A 
ATOM     36  C   UNL     1      -2.149  11.700  19.040  0.00  0.00    -0.024 A 
ATOM     37  C   UNL     1      -1.328  10.801  18.333  0.00  0.00    +0.109 A 
ATOM     38  C   UNL     1      -1.806  10.141  17.186  0.00  0.00    -0.032 A 
ATOM     39  H   UNL     1      -4.942  11.449  17.085  0.00  0.00    +0.062 HD
ATOM     40  H   UNL     1      -4.113  12.616  19.072  0.00  0.00    +0.062 HD
ATOM     41  H   UNL     1      -1.158   9.457  16.638  0.00  0.00    +0.064 HD
BRANCH  33  42
ATOM     42  C   UNL     1      -3.618   9.668  15.501  0.00  0.00    -0.040 C 
ATOM     43  H   UNL     1      -4.325   8.873  15.759  0.00  0.00    +0.028 HD
ATOM     44  H   UNL     1      -4.118  10.394  14.850  0.00  0.00    +0.028 HD
ATOM     45  H   UNL     1      -2.797   9.204  14.944  0.00  0.00    +0.028 HD
ENDBRANCH  33  42
BRANCH  36  46
ATOM     46  C   UNL     1      -1.690  12.472  20.248  0.00  0.00    -0.038 C 
ATOM     47  H   UNL     1      -0.599  12.522  20.276  0.00  0.00    +0.028 HD
ATOM     48  H   UNL     1      -2.067  13.501  20.225  0.00  0.00    +0.028 HD
ATOM     49  H   UNL     1      -2.069  12.026  21.171  0.00  0.00    +0.028 HD
ENDBRANCH  36  46
ENDBRANCH  30  37
ENDBRANCH   1  30
TORSDOF 6
ENDMDL
MODEL 19
REMARK VINA RESULT:    -5.679      3.530      5.517
REMARK INTER + INTRA:          -5.035
REMARK INTER:                  -4.626
REMARK INTRA:                  -0.409
REMARK UNBOUND:                 2.138
REMARK  Name = 
REMARK  6 active torsions:
REMARK  status: ('A' for Active; 'I' for Inactive)
REMARK    1  A    between atoms: C_1  and  C_2
REMARK    2  A    between atoms: C_5  and  C_6
REMARK    3  A    between atoms: C_7  and  S_8
REMARK    4  A    between atoms: S_8  and  N_11
REMARK    5  A    between atoms: C_15  and  C_17
REMARK    6  A    between atoms: C_20  and  C_21
REMARK                            x       y       z     vdW  Elec       q    Type
REMARK                         _______ _______ _______ _____ _____    ______ ____
ROOT
ATOM      1  N   UNL     1       1.937   7.267  20.351  0.00  0.00    -0.174 NA
ATOM      2  C   UNL     1       2.491   8.554  20.916  0.00  0.00    +0.036 C 
ATOM      3  C   UNL     1       1.416   9.396  21.618  0.00  0.00    +0.029 C 
ATOM      4  N   UNL     1       0.232   9.519  20.771  0.00  0.00    -0.295 N 
ATOM      5  C   UNL     1       0.140  10.652  19.949  0.00  0.00    +0.253 C 
ATOM      6  O   UNL     1       1.048  11.485  19.934  0.00  0.00    -0.269 OA
ATOM      7  C   UNL     1      -0.387   8.236  20.397  0.00  0.00    +0.029 C 
ATOM      8  C   UNL     1       0.508   7.027  20.735  0.00  0.00    +0.036 C 
ATOM      9  H   UNL     1       2.941   9.160  20.123  0.00  0.00    +0.046 HD
ATOM     10  H   UNL     1       3.288   8.300  21.622  0.00  0.00    +0.046 HD
ATOM     11  H   UNL     1       1.818  10.380  21.881  0.00  0.00    +0.048 HD
ATOM     12  H   UNL     1       1.104   8.924  22.556  0.00  0.00    +0.048 HD
ATOM     13  H   UNL     1      -1.329   8.146  20.947  0.00  0.00    +0.048 HD
ATOM     14  H   UNL     1      -0.611   8.231  19.326  0.00  0.00    +0.048 HD
ATOM     15  H   UNL     1       0.118   6.117  20.266  0.00  0.00    +0.046 HD
ATOM     16  H   UNL     1       0.486   6.829  21.815  0.00  0.00    +0.046 HD
ENDROOT
BRANCH   5  17
ATOM     17  C   UNL     1      -1.037  10.820  19.111  0.00  0.00    +0.078 A 
ATOM     18  C   UNL     1      -1.212  10.334  17.811  0.00  0.00    -0.030 A 
ATOM     19  C   UNL     1      -2.439  10.776  17.334  0.00  0.00    +0.052 A 
ATOM     20  C   UNL     1      -3.180  10.643  16.171  0.00  0.00    +0.089 A 
ATOM     21  N   UNL     1      -4.333  11.338  16.300  0.00  0.00    -0.082 NA
ATOM     22  O   UNL     1      -4.295  11.918  17.589  0.00  0.00    -0.347 OA
ATOM     23  C   UNL     1      -3.136  11.551  18.169  0.00  0.00    +0.206 A 
ATOM     24  S   UNL     1      -2.374  11.833  19.618  0.00  0.00    -0.044 S 
ATOM     25  H   UNL     1      -0.486   9.715  17.299  0.00  0.00    +0.064 HD
BRANCH  20  26
ATOM     26  C   UNL     1      -2.881   9.912  14.921  0.00  0.00    -0.018 C 
ATOM     27  H   UNL     1      -2.245  10.519  14.269  0.00  0.00    +0.029 HD
ATOM     28  H   UNL     1      -3.802   9.672  14.380  0.00  0.00    +0.029 HD
ATOM     29  H   UNL     1      -2.359   8.971  15.124  0.00  0.00    +0.029 HD
ENDBRANCH  20  26
ENDBRANCH   5  17
BRANCH   1  30
ATOM     30  S   UNL     1       2.246   7.006  18.686  0.00  0.00    +0.061 S 
ATOM     31  O   UNL     1       2.414   8.311  18.078  0.00  0.00    -0.153 OA
ATOM     32  O   UNL     1       1.245   6.090  18.180  0.00  0.00    -0.153 OA
BRANCH  30  37
ATOM     33  C   UNL     1       6.139   6.149  17.955  0.00  0.00    -0.049 A 
ATOM     34  C   UNL     1       6.322   4.934  18.619  0.00  0.00    -0.058 A 
ATOM     35  C   UNL     1       5.269   4.341  19.322  0.00  0.00    -0.057 A 
ATOM     36  C   UNL     1       4.002   4.945  19.380  0.00  0.00    -0.024 A 
ATOM     37  C   UNL     1       3.819   6.163  18.697  0.00  0.00    +0.109 A 
ATOM     38  C   UNL     1       4.877   6.751  17.983  0.00  0.00    -0.032 A 
ATOM     39  H   UNL     1       7.288   4.434  18.591  0.00  0.00    +0.062 HD
ATOM     40  H   UNL     1       5.446   3.391  19.823  0.00  0.00    +0.062 HD
ATOM     41  H   UNL     1       4.722   7.687  17.446  0.00  0.00    +0.064 HD
BRANCH  33  42
ATOM     42  C   UNL     1       7.263   6.761  17.172  0.00  0.00    -0.040 C 
ATOM     43  H   UNL     1       8.026   7.167  17.843  0.00  0.00    +0.028 HD
ATOM     44  H   UNL     1       7.721   6.008  16.522  0.00  0.00    +0.028 HD
ATOM     45  H   UNL     1       6.905   7.590  16.551  0.00  0.00    +0.028 HD
ENDBRANCH  33  42
BRANCH  36  46
ATOM     46  C   UNL     1       2.904   4.238  20.128  0.00  0.00    -0.038 C 
ATOM     47  H   UNL     1       1.927   4.624  19.827  0.00  0.00    +0.028 HD
ATOM     48  H   UNL     1       2.912   3.162  19.918  0.00  0.00    +0.028 HD
ATOM     49  H   UNL     1       3.030   4.341  21.210  0.00  0.00    +0.028 HD
ENDBRANCH  36  46
ENDBRANCH  30  37
ENDBRANCH   1  30
TORSDOF 6
ENDMDL
MODEL 20
REMARK VINA RESULT:    -5.527      3.487      8.646
REMARK INTER + INTRA:          -4.843
REMARK INTER:                  -4.274
REMARK INTRA:                  -0.569
REMARK UNBOUND:                 2.138
REMARK  Name = 
REMARK  6 active torsions:
REMARK  status: ('A' for Active; 'I' for Inactive)
REMARK    1  A    between atoms: C_1  and  C_2
REMARK    2  A    between atoms: C_5  and  C_6
REMARK    3  A    between atoms: C_7  and  S_8
REMARK    4  A    between atoms: S_8  and  N_11
REMARK    5  A    between atoms: C_15  and  C_17
REMARK    6  A    between atoms: C_20  and  C_21
REMARK                            x       y       z     vdW  Elec       q    Type
REMARK                         _______ _______ _______ _____ _____    ______ ____
ROOT
ATOM      1  N   UNL     1       0.657  10.265  18.883  0.00  0.00    -0.174 NA
ATOM      2  C   UNL     1       2.112  10.467  18.527  0.00  0.00    +0.036 C 
ATOM      3  C   UNL     1       2.558   9.572  17.361  0.00  0.00    +0.029 C 
ATOM      4  N   UNL     1       2.133   8.192  17.586  0.00  0.00    -0.295 N 
ATOM      5  C   UNL     1       3.052   7.325  18.196  0.00  0.00    +0.253 C 
ATOM      6  O   UNL     1       4.159   7.738  18.547  0.00  0.00    -0.269 OA
ATOM      7  C   UNL     1       0.679   8.019  17.744  0.00  0.00    +0.029 C 
ATOM      8  C   UNL     1      -0.059   9.359  17.927  0.00  0.00    +0.036 C 
ATOM      9  H   UNL     1       2.752  10.256  19.389  0.00  0.00    +0.046 HD
ATOM     10  H   UNL     1       2.255  11.520  18.266  0.00  0.00    +0.046 HD
ATOM     11  H   UNL     1       3.643   9.636  17.230  0.00  0.00    +0.048 HD
ATOM     12  H   UNL     1       2.108   9.907  16.420  0.00  0.00    +0.048 HD
ATOM     13  H   UNL     1       0.302   7.526  16.842  0.00  0.00    +0.048 HD
ATOM     14  H   UNL     1       0.474   7.373  18.602  0.00  0.00    +0.048 HD
ATOM     15  H   UNL     1      -1.094   9.188  18.242  0.00  0.00    +0.046 HD
ATOM     16  H   UNL     1      -0.132   9.887  16.966  0.00  0.00    +0.046 HD
ENDROOT
BRANCH   5  17
ATOM     17  C   UNL     1       2.673   5.938  18.412  0.00  0.00    +0.078 A 
ATOM     18  C   UNL     1       2.225   5.373  19.611  0.00  0.00    -0.030 A 
ATOM     19  C   UNL     1       2.044   4.010  19.418  0.00  0.00    +0.052 A 
ATOM     20  C   UNL     1       1.627   2.927  20.176  0.00  0.00    +0.089 A 
ATOM     21  N   UNL     1       1.674   1.810  19.414  0.00  0.00    -0.082 NA
ATOM     22  O   UNL     1       2.139   2.226  18.145  0.00  0.00    -0.347 OA
ATOM     23  C   UNL     1       2.348   3.555  18.200  0.00  0.00    +0.206 A 
ATOM     24  S   UNL     1       2.892   4.731  17.160  0.00  0.00    -0.044 S 
ATOM     25  H   UNL     1       2.057   5.942  20.517  0.00  0.00    +0.064 HD
BRANCH  20  26
ATOM     26  C   UNL     1       1.191   2.854  21.586  0.00  0.00    -0.018 C 
ATOM     27  H   UNL     1       1.186   1.815  21.929  0.00  0.00    +0.029 HD
ATOM     28  H   UNL     1       0.181   3.262  21.703  0.00  0.00    +0.029 HD
ATOM     29  H   UNL     1       1.858   3.424  22.241  0.00  0.00    +0.029 HD
ENDBRANCH  20  26
ENDBRANCH   5  17
BRANCH   1  30
ATOM     30  S   UNL     1       0.352   9.893  20.528  0.00  0.00    +0.061 S 
ATOM     31  O   UNL     1       1.633   9.600  21.140  0.00  0.00    -0.153 OA
ATOM     32  O   UNL     1      -0.719   8.920  20.580  0.00  0.00    -0.153 OA
BRANCH  30  37
ATOM     33  C   UNL     1      -0.617  13.818  20.813  0.00  0.00    -0.049 A 
ATOM     34  C   UNL     1      -1.169  13.912  22.092  0.00  0.00    -0.058 A 
ATOM     35  C   UNL     1      -1.276  12.780  22.906  0.00  0.00    -0.057 A 
ATOM     36  C   UNL     1      -0.833  11.523  22.465  0.00  0.00    -0.024 A 
ATOM     37  C   UNL     1      -0.264  11.436  21.180  0.00  0.00    +0.109 A 
ATOM     38  C   UNL     1      -0.149  12.578  20.368  0.00  0.00    -0.032 A 
ATOM     39  H   UNL     1      -1.518  14.871  22.470  0.00  0.00    +0.062 HD
ATOM     40  H   UNL     1      -1.706  12.892  23.900  0.00  0.00    +0.062 HD
ATOM     41  H   UNL     1       0.306  12.504  19.380  0.00  0.00    +0.064 HD
BRANCH  33  42
ATOM     42  C   UNL     1      -0.471  15.043  19.959  0.00  0.00    -0.040 C 
ATOM     43  H   UNL     1       0.493  15.041  19.441  0.00  0.00    +0.028 HD
ATOM     44  H   UNL     1      -1.276  15.081  19.216  0.00  0.00    +0.028 HD
ATOM     45  H   UNL     1      -0.510  15.955  20.566  0.00  0.00    +0.028 HD
ENDBRANCH  33  42
BRANCH  36  46
ATOM     46  C   UNL     1      -0.949  10.352  23.404  0.00  0.00    -0.038 C 
ATOM     47  H   UNL     1      -1.231  10.691  24.404  0.00  0.00    +0.028 HD
ATOM     48  H   UNL     1      -1.720   9.650  23.065  0.00  0.00    +0.028 HD
ATOM     49  H   UNL     1      -0.015   9.786  23.450  0.00  0.00    +0.028 HD
ENDBRANCH  36  46
ENDBRANCH  30  37
ENDBRANCH   1  30
TORSDOF 6
ENDMDL
MODEL 21
REMARK VINA RESULT:    -5.451      3.482      9.470
REMARK INTER + INTRA:          -4.747
REMARK INTER:                  -6.041
REMARK INTRA:                   1.294
REMARK UNBOUND:                 2.138
REMARK  Name = 
REMARK  6 active torsions:
REMARK  status: ('A' for Active; 'I' for Inactive)
REMARK    1  A    between atoms: C_1  and  C_2
REMARK    2  A    between atoms: C_5  and  C_6
REMARK    3  A    between atoms: C_7  and  S_8
REMARK    4  A    between atoms: S_8  and  N_11
REMARK    5  A    between atoms: C_15  and  C_17
REMARK    6  A    between atoms: C_20  and  C_21
REMARK                            x       y       z     vdW  Elec       q    Type
REMARK                         _______ _______ _______ _____ _____    ______ ____
ROOT
ATOM      1  N   UNL     1      -2.056  12.071  19.715  0.00  0.00    -0.174 NA
ATOM      2  C   UNL     1      -1.014  12.840  18.937  0.00  0.00    +0.036 C 
ATOM      3  C   UNL     1      -0.468  12.042  17.744  0.00  0.00    +0.029 C 
ATOM      4  N   UNL     1      -0.098  10.692  18.161  0.00  0.00    -0.295 N 
ATOM      5  C   UNL     1       1.240  10.471  18.521  0.00  0.00    +0.253 C 
ATOM      6  O   UNL     1       2.049  11.400  18.509  0.00  0.00    -0.269 OA
ATOM      7  C   UNL     1      -1.200   9.910  18.747  0.00  0.00    +0.029 C 
ATOM      8  C   UNL     1      -2.435  10.775  19.064  0.00  0.00    +0.036 C 
ATOM      9  H   UNL     1      -0.174  13.112  19.583  0.00  0.00    +0.046 HD
ATOM     10  H   UNL     1      -1.469  13.772  18.587  0.00  0.00    +0.046 HD
ATOM     11  H   UNL     1       0.383  12.566  17.296  0.00  0.00    +0.048 HD
ATOM     12  H   UNL     1      -1.228  11.949  16.959  0.00  0.00    +0.048 HD
ATOM     13  H   UNL     1      -1.483   9.137  18.026  0.00  0.00    +0.048 HD
ATOM     14  H   UNL     1      -0.859   9.419  19.663  0.00  0.00    +0.048 HD
ATOM     15  H   UNL     1      -3.149  10.217  19.678  0.00  0.00    +0.046 HD
ATOM     16  H   UNL     1      -2.976  11.018  18.139  0.00  0.00    +0.046 HD
ENDROOT
BRANCH   5  17
ATOM     17  C   UNL     1       1.650   9.133  18.917  0.00  0.00    +0.078 A 
ATOM     18  C   UNL     1       2.220   8.157  18.093  0.00  0.00    -0.030 A 
ATOM     19  C   UNL     1       2.391   6.996  18.834  0.00  0.00    +0.052 A 
ATOM     20  C   UNL     1       2.891   5.721  18.618  0.00  0.00    +0.089 A 
ATOM     21  N   UNL     1       2.777   5.003  19.759  0.00  0.00    -0.082 NA
ATOM     22  O   UNL     1       2.183   5.869  20.705  0.00  0.00    -0.347 OA
ATOM     23  C   UNL     1       1.971   7.054  20.100  0.00  0.00    +0.206 A 
ATOM     24  S   UNL     1       1.315   8.520  20.525  0.00  0.00    -0.044 S 
ATOM     25  H   UNL     1       2.474   8.323  17.054  0.00  0.00    +0.064 HD
BRANCH  20  26
ATOM     26  C   UNL     1       3.467   5.111  17.402  0.00  0.00    -0.018 C 
ATOM     27  H   UNL     1       4.359   5.662  17.086  0.00  0.00    +0.029 HD
ATOM     28  H   UNL     1       2.744   5.123  16.579  0.00  0.00    +0.029 HD
ATOM     29  H   UNL     1       3.757   4.069  17.576  0.00  0.00    +0.029 HD
ENDBRANCH  20  26
ENDBRANCH   5  17
BRANCH   1  30
ATOM     30  S   UNL     1      -1.753  11.923  21.395  0.00  0.00    +0.061 S 
ATOM     31  O   UNL     1      -1.127  10.632  21.599  0.00  0.00    -0.153 OA
ATOM     32  O   UNL     1      -2.968  12.264  22.105  0.00  0.00    -0.153 OA
BRANCH  30  37
ATOM     33  C   UNL     1       1.701  14.040  21.290  0.00  0.00    -0.049 A 
ATOM     34  C   UNL     1       1.425  15.133  22.115  0.00  0.00    -0.058 A 
ATOM     35  C   UNL     1       0.172  15.267  22.721  0.00  0.00    -0.057 A 
ATOM     36  C   UNL     1      -0.839  14.313  22.522  0.00  0.00    -0.024 A 
ATOM     37  C   UNL     1      -0.550  13.207  21.700  0.00  0.00    +0.109 A 
ATOM     38  C   UNL     1       0.714  13.069  21.099  0.00  0.00    -0.032 A 
ATOM     39  H   UNL     1       2.186  15.889  22.298  0.00  0.00    +0.062 HD
ATOM     40  H   UNL     1      -0.006  16.128  23.363  0.00  0.00    +0.062 HD
ATOM     41  H   UNL     1       0.933  12.202  20.476  0.00  0.00    +0.064 HD
BRANCH  33  42
ATOM     42  C   UNL     1       3.060  13.883  20.672  0.00  0.00    -0.040 C 
ATOM     43  H   UNL     1       3.036  14.154  19.611  0.00  0.00    +0.028 HD
ATOM     44  H   UNL     1       3.784  14.523  21.188  0.00  0.00    +0.028 HD
ATOM     45  H   UNL     1       3.403  12.844  20.733  0.00  0.00    +0.028 HD
ENDBRANCH  33  42
BRANCH  36  46
ATOM     46  C   UNL     1      -2.154  14.502  23.229  0.00  0.00    -0.038 C 
ATOM     47  H   UNL     1      -2.957  14.663  22.505  0.00  0.00    +0.028 HD
ATOM     48  H   UNL     1      -2.416  13.617  23.819  0.00  0.00    +0.028 HD
ATOM     49  H   UNL     1      -2.110  15.339  23.932  0.00  0.00    +0.028 HD
ENDBRANCH  36  46
ENDBRANCH  30  37
ENDBRANCH   1  30
TORSDOF 6
ENDMDL
MODEL 22
REMARK VINA RESULT:    -5.403      3.049      8.100
REMARK INTER + INTRA:          -4.686
REMARK INTER:                  -4.761
REMARK INTRA:                   0.074
REMARK UNBOUND:                 2.138
REMARK  Name = 
REMARK  6 active torsions:
REMARK  status: ('A' for Active; 'I' for Inactive)
REMARK    1  A    between atoms: C_1  and  C_2
REMARK    2  A    between atoms: C_5  and  C_6
REMARK    3  A    between atoms: C_7  and  S_8
REMARK    4  A    between atoms: S_8  and  N_11
REMARK    5  A    between atoms: C_15  and  C_17
REMARK    6  A    between atoms: C_20  and  C_21
REMARK                            x       y       z     vdW  Elec       q    Type
REMARK                         _______ _______ _______ _____ _____    ______ ____
ROOT
ATOM      1  N   UNL     1      -0.002   9.934  20.732  0.00  0.00    -0.174 NA
ATOM      2  C   UNL     1      -0.803   8.746  21.211  0.00  0.00    +0.036 C 
ATOM      3  C   UNL     1       0.049   7.749  22.009  0.00  0.00    +0.029 C 
ATOM      4  N   UNL     1       1.287   7.448  21.292  0.00  0.00    -0.295 N 
ATOM      5  C   UNL     1       1.295   6.315  20.465  0.00  0.00    +0.253 C 
ATOM      6  O   UNL     1       0.278   5.630  20.338  0.00  0.00    -0.269 OA
ATOM      7  C   UNL     1       2.129   8.622  21.010  0.00  0.00    +0.029 C 
ATOM      8  C   UNL     1       1.397   9.953  21.271  0.00  0.00    +0.036 C 
ATOM      9  H   UNL     1      -1.250   8.217  20.364  0.00  0.00    +0.046 HD
ATOM     10  H   UNL     1      -1.624   9.117  21.832  0.00  0.00    +0.046 HD
ATOM     11  H   UNL     1      -0.523   6.838  22.210  0.00  0.00    +0.048 HD
ATOM     12  H   UNL     1       0.326   8.167  22.984  0.00  0.00    +0.048 HD
ATOM     13  H   UNL     1       3.008   8.567  21.659  0.00  0.00    +0.048 HD
ATOM     14  H   UNL     1       2.467   8.594  19.969  0.00  0.00    +0.048 HD
ATOM     15  H   UNL     1       1.968  10.793  20.863  0.00  0.00    +0.046 HD
ATOM     16  H   UNL     1       1.330  10.144  22.351  0.00  0.00    +0.046 HD
ENDROOT
BRANCH   5  17
ATOM     17  C   UNL     1       2.517   5.971  19.756  0.00  0.00    +0.078 A 
ATOM     18  C   UNL     1       2.953   6.504  18.538  0.00  0.00    -0.030 A 
ATOM     19  C   UNL     1       4.123   5.856  18.165  0.00  0.00    +0.052 A 
ATOM     20  C   UNL     1       5.022   5.918  17.113  0.00  0.00    +0.089 A 
ATOM     21  N   UNL     1       5.991   4.994  17.305  0.00  0.00    -0.082 NA
ATOM     22  O   UNL     1       5.670   4.342  18.517  0.00  0.00    -0.347 OA
ATOM     23  C   UNL     1       4.539   4.895  18.994  0.00  0.00    +0.206 A 
ATOM     24  S   UNL     1       3.552   4.670  20.311  0.00  0.00    -0.044 S 
ATOM     25  H   UNL     1       2.436   7.295  18.010  0.00  0.00    +0.064 HD
BRANCH  20  26
ATOM     26  C   UNL     1       5.039   6.785  15.915  0.00  0.00    -0.018 C 
ATOM     27  H   UNL     1       5.807   7.558  16.017  0.00  0.00    +0.029 HD
ATOM     28  H   UNL     1       4.070   7.276  15.776  0.00  0.00    +0.029 HD
ATOM     29  H   UNL     1       5.255   6.210  15.009  0.00  0.00    +0.029 HD
ENDBRANCH  20  26
ENDBRANCH   5  17
BRANCH   1  30
ATOM     30  S   UNL     1      -0.085  10.241  19.048  0.00  0.00    +0.061 S 
ATOM     31  O   UNL     1      -1.464  10.043  18.650  0.00  0.00    -0.153 OA
ATOM     32  O   UNL     1       0.975   9.496  18.401  0.00  0.00    -0.153 OA
BRANCH  30  37
ATOM     33  C   UNL     1       1.992  13.671  18.454  0.00  0.00    -0.049 A 
ATOM     34  C   UNL     1       1.052  14.661  18.750  0.00  0.00    -0.058 A 
ATOM     35  C   UNL     1      -0.249  14.317  19.130  0.00  0.00    -0.057 A 
ATOM     36  C   UNL     1      -0.648  12.974  19.225  0.00  0.00    -0.024 A 
ATOM     37  C   UNL     1       0.308  11.979  18.938  0.00  0.00    +0.109 A 
ATOM     38  C   UNL     1       1.618  12.328  18.567  0.00  0.00    -0.032 A 
ATOM     39  H   UNL     1       1.328  15.712  18.694  0.00  0.00    +0.062 HD
ATOM     40  H   UNL     1      -0.952  15.115  19.360  0.00  0.00    +0.062 HD
ATOM     41  H   UNL     1       2.354  11.551  18.360  0.00  0.00    +0.064 HD
BRANCH  33  42
ATOM     42  C   UNL     1       3.397  14.046  18.083  0.00  0.00    -0.040 C 
ATOM     43  H   UNL     1       4.109  13.645  18.811  0.00  0.00    +0.028 HD
ATOM     44  H   UNL     1       3.640  13.651  17.090  0.00  0.00    +0.028 HD
ATOM     45  H   UNL     1       3.524  15.134  18.070  0.00  0.00    +0.028 HD
ENDBRANCH  33  42
BRANCH  36  46
ATOM     46  C   UNL     1      -2.054  12.673  19.669  0.00  0.00    -0.038 C 
ATOM     47  H   UNL     1      -2.118  11.659  20.074  0.00  0.00    +0.028 HD
ATOM     48  H   UNL     1      -2.375  13.363  20.458  0.00  0.00    +0.028 HD
ATOM     49  H   UNL     1      -2.764  12.793  18.847  0.00  0.00    +0.028 HD
ENDBRANCH  36  46
ENDBRANCH  30  37
ENDBRANCH   1  30
TORSDOF 6
ENDMDL
MODEL 23
REMARK VINA RESULT:    -5.349      7.230     10.764
REMARK INTER + INTRA:          -4.619
REMARK INTER:                  -5.314
REMARK INTRA:                   0.695
REMARK UNBOUND:                 2.138
REMARK  Name = 
REMARK  6 active torsions:
REMARK  status: ('A' for Active; 'I' for Inactive)
REMARK    1  A    between atoms: C_1  and  C_2
REMARK    2  A    between atoms: C_5  and  C_6
REMARK    3  A    between atoms: C_7  and  S_8
REMARK    4  A    between atoms: S_8  and  N_11
REMARK    5  A    between atoms: C_15  and  C_17
REMARK    6  A    between atoms: C_20  and  C_21
REMARK                            x       y       z     vdW  Elec       q    Type
REMARK                         _______ _______ _______ _____ _____    ______ ____
ROOT
ATOM      1  N   UNL     1      -0.517  11.204  20.050  0.00  0.00    -0.174 NA
ATOM      2  C   UNL     1      -1.217  12.366  19.384  0.00  0.00    +0.036 C 
ATOM      3  C   UNL     1      -0.459  12.876  18.151  0.00  0.00    +0.029 C 
ATOM      4  N   UNL     1       0.955  13.069  18.465  0.00  0.00    -0.295 N 
ATOM      5  C   UNL     1       1.360  14.353  18.860  0.00  0.00    +0.253 C 
ATOM      6  O   UNL     1       0.534  15.262  18.961  0.00  0.00    -0.269 OA
ATOM      7  C   UNL     1       1.646  11.857  18.937  0.00  0.00    +0.029 C 
ATOM      8  C   UNL     1       0.669  10.713  19.275  0.00  0.00    +0.036 C 
ATOM      9  H   UNL     1      -1.336  13.197  20.086  0.00  0.00    +0.046 HD
ATOM     10  H   UNL     1      -2.221  12.037  19.097  0.00  0.00    +0.046 HD
ATOM     11  H   UNL     1      -0.913  13.803  17.785  0.00  0.00    +0.048 HD
ATOM     12  H   UNL     1      -0.519  12.152  17.330  0.00  0.00    +0.048 HD
ATOM     13  H   UNL     1       2.319  11.525  18.141  0.00  0.00    +0.048 HD
ATOM     14  H   UNL     1       2.246  12.093  19.821  0.00  0.00    +0.048 HD
ATOM     15  H   UNL     1       1.188   9.910  19.809  0.00  0.00    +0.046 HD
ATOM     16  H   UNL     1       0.291  10.251  18.353  0.00  0.00    +0.046 HD
ENDROOT
BRANCH   5  17
ATOM     17  C   UNL     1       2.764  14.587  19.156  0.00  0.00    +0.078 A 
ATOM     18  C   UNL     1       3.825  14.559  18.245  0.00  0.00    -0.030 A 
ATOM     19  C   UNL     1       5.011  14.755  18.939  0.00  0.00    +0.052 A 
ATOM     20  C   UNL     1       6.360  14.841  18.634  0.00  0.00    +0.089 A 
ATOM     21  N   UNL     1       7.059  15.036  19.776  0.00  0.00    -0.082 NA
ATOM     22  O   UNL     1       6.103  15.068  20.816  0.00  0.00    -0.347 OA
ATOM     23  C   UNL     1       4.888  14.894  20.262  0.00  0.00    +0.206 A 
ATOM     24  S   UNL     1       3.321  14.793  20.805  0.00  0.00    -0.044 S 
ATOM     25  H   UNL     1       3.697  14.410  17.180  0.00  0.00    +0.064 HD
BRANCH  20  26
ATOM     26  C   UNL     1       7.058  14.742  17.335  0.00  0.00    -0.018 C 
ATOM     27  H   UNL     1       6.537  15.337  16.578  0.00  0.00    +0.029 HD
ATOM     28  H   UNL     1       7.096  13.703  16.992  0.00  0.00    +0.029 HD
ATOM     29  H   UNL     1       8.087  15.109  17.405  0.00  0.00    +0.029 HD
ENDBRANCH  20  26
ENDBRANCH   5  17
BRANCH   1  30
ATOM     30  S   UNL     1      -0.199  11.403  21.722  0.00  0.00    +0.061 S 
ATOM     31  O   UNL     1       1.133  11.964  21.836  0.00  0.00    -0.153 OA
ATOM     32  O   UNL     1      -0.527  10.163  22.395  0.00  0.00    -0.153 OA
BRANCH  30  37
ATOM     33  C   UNL     1      -3.715  13.138  22.749  0.00  0.00    -0.049 A 
ATOM     34  C   UNL     1      -3.357  14.472  22.955  0.00  0.00    -0.058 A 
ATOM     35  C   UNL     1      -2.031  14.885  22.800  0.00  0.00    -0.057 A 
ATOM     36  C   UNL     1      -1.024  13.977  22.433  0.00  0.00    -0.024 A 
ATOM     37  C   UNL     1      -1.393  12.636  22.213  0.00  0.00    +0.109 A 
ATOM     38  C   UNL     1      -2.730  12.226  22.360  0.00  0.00    -0.032 A 
ATOM     39  H   UNL     1      -4.112  15.205  23.234  0.00  0.00    +0.062 HD
ATOM     40  H   UNL     1      -1.790  15.934  22.962  0.00  0.00    +0.062 HD
ATOM     41  H   UNL     1      -3.007  11.188  22.175  0.00  0.00    +0.064 HD
BRANCH  33  42
ATOM     42  C   UNL     1      -5.147  12.708  22.881  0.00  0.00    -0.040 C 
ATOM     43  H   UNL     1      -5.288  11.703  22.472  0.00  0.00    +0.028 HD
ATOM     44  H   UNL     1      -5.443  12.710  23.936  0.00  0.00    +0.028 HD
ATOM     45  H   UNL     1      -5.813  13.380  22.328  0.00  0.00    +0.028 HD
ENDBRANCH  33  42
BRANCH  36  46
ATOM     46  C   UNL     1       0.377  14.495  22.253  0.00  0.00    -0.038 C 
ATOM     47  H   UNL     1       1.006  14.198  23.097  0.00  0.00    +0.028 HD
ATOM     48  H   UNL     1       0.835  14.088  21.344  0.00  0.00    +0.028 HD
ATOM     49  H   UNL     1       0.389  15.582  22.143  0.00  0.00    +0.028 HD
ENDBRANCH  36  46
ENDBRANCH  30  37
ENDBRANCH   1  30
TORSDOF 6
ENDMDL
MODEL 24
REMARK VINA RESULT:    -5.342      2.676      4.894
REMARK INTER + INTRA:          -4.610
REMARK INTER:                  -5.895
REMARK INTRA:                   1.286
REMARK UNBOUND:                 2.138
REMARK  Name = 
REMARK  6 active torsions:
REMARK  status: ('A' for Active; 'I' for Inactive)
REMARK    1  A    between atoms: C_1  and  C_2
REMARK    2  A    between atoms: C_5  and  C_6
REMARK    3  A    between atoms: C_7  and  S_8
REMARK    4  A    between atoms: S_8  and  N_11
REMARK    5  A    between atoms: C_15  and  C_17
REMARK    6  A    between atoms: C_20  and  C_21
REMARK                            x       y       z     vdW  Elec       q    Type
REMARK                         _______ _______ _______ _____ _____    ______ ____
ROOT
ATOM      1  N   UNL     1       4.196   4.716  17.692  0.00  0.00    -0.174 NA
ATOM      2  C   UNL     1       4.221   5.768  16.607  0.00  0.00    +0.036 C 
ATOM      3  C   UNL     1       4.565   7.162  17.153  0.00  0.00    +0.029 C 
ATOM      4  N   UNL     1       3.751   7.463  18.328  0.00  0.00    -0.295 N 
ATOM      5  C   UNL     1       2.561   8.178  18.124  0.00  0.00    +0.253 C 
ATOM      6  O   UNL     1       2.218   8.503  16.986  0.00  0.00    -0.269 OA
ATOM      7  C   UNL     1       3.901   6.507  19.437  0.00  0.00    +0.029 C 
ATOM      8  C   UNL     1       4.662   5.233  19.020  0.00  0.00    +0.036 C 
ATOM      9  H   UNL     1       3.251   5.824  16.103  0.00  0.00    +0.046 HD
ATOM     10  H   UNL     1       4.960   5.467  15.858  0.00  0.00    +0.046 HD
ATOM     11  H   UNL     1       4.428   7.917  16.372  0.00  0.00    +0.048 HD
ATOM     12  H   UNL     1       5.616   7.211  17.457  0.00  0.00    +0.048 HD
ATOM     13  H   UNL     1       4.457   7.006  20.237  0.00  0.00    +0.048 HD
ATOM     14  H   UNL     1       2.916   6.229  19.824  0.00  0.00    +0.048 HD
ATOM     15  H   UNL     1       4.580   4.464  19.795  0.00  0.00    +0.046 HD
ATOM     16  H   UNL     1       5.737   5.443  18.932  0.00  0.00    +0.046 HD
ENDROOT
BRANCH   5  17
ATOM     17  C   UNL     1       1.738   8.519  19.274  0.00  0.00    +0.078 A 
ATOM     18  C   UNL     1       1.084   9.734  19.502  0.00  0.00    -0.030 A 
ATOM     19  C   UNL     1       0.473   9.682  20.747  0.00  0.00    +0.052 A 
ATOM     20  C   UNL     1      -0.305  10.521  21.528  0.00  0.00    +0.089 A 
ATOM     21  N   UNL     1      -0.599   9.895  22.691  0.00  0.00    -0.082 NA
ATOM     22  O   UNL     1       0.024   8.628  22.618  0.00  0.00    -0.347 OA
ATOM     23  C   UNL     1       0.656   8.550  21.431  0.00  0.00    +0.206 A 
ATOM     24  S   UNL     1       1.596   7.431  20.641  0.00  0.00    -0.044 S 
ATOM     25  H   UNL     1       1.078  10.554  18.794  0.00  0.00    +0.064 HD
BRANCH  20  26
ATOM     26  C   UNL     1      -0.795  11.892  21.270  0.00  0.00    -0.018 C 
ATOM     27  H   UNL     1      -0.011  12.622  21.490  0.00  0.00    +0.029 HD
ATOM     28  H   UNL     1      -1.665  12.119  21.895  0.00  0.00    +0.029 HD
ATOM     29  H   UNL     1      -1.094  12.019  20.224  0.00  0.00    +0.029 HD
ENDBRANCH  20  26
ENDBRANCH   5  17
BRANCH   1  30
ATOM     30  S   UNL     1       2.752   3.799  17.789  0.00  0.00    +0.061 S 
ATOM     31  O   UNL     1       2.843   2.758  16.784  0.00  0.00    -0.153 OA
ATOM     32  O   UNL     1       1.633   4.718  17.785  0.00  0.00    -0.153 OA
BRANCH  30  37
ATOM     33  C   UNL     1       4.185   1.749  20.978  0.00  0.00    -0.049 A 
ATOM     34  C   UNL     1       3.137   1.827  21.897  0.00  0.00    -0.058 A 
ATOM     35  C   UNL     1       1.962   2.517  21.580  0.00  0.00    -0.057 A 
ATOM     36  C   UNL     1       1.802   3.148  20.336  0.00  0.00    -0.024 A 
ATOM     37  C   UNL     1       2.857   3.054  19.408  0.00  0.00    +0.109 A 
ATOM     38  C   UNL     1       4.033   2.351  19.725  0.00  0.00    -0.032 A 
ATOM     39  H   UNL     1       3.223   1.345  22.869  0.00  0.00    +0.062 HD
ATOM     40  H   UNL     1       1.164   2.552  22.319  0.00  0.00    +0.062 HD
ATOM     41  H   UNL     1       4.838   2.273  18.995  0.00  0.00    +0.064 HD
BRANCH  33  42
ATOM     42  C   UNL     1       5.428   0.976  21.310  0.00  0.00    -0.040 C 
ATOM     43  H   UNL     1       5.210  -0.094  21.382  0.00  0.00    +0.028 HD
ATOM     44  H   UNL     1       6.187   1.136  20.535  0.00  0.00    +0.028 HD
ATOM     45  H   UNL     1       5.841   1.289  22.275  0.00  0.00    +0.028 HD
ENDBRANCH  33  42
BRANCH  36  46
ATOM     46  C   UNL     1       0.501   3.847  20.048  0.00  0.00    -0.038 C 
ATOM     47  H   UNL     1      -0.334   3.144  20.121  0.00  0.00    +0.028 HD
ATOM     48  H   UNL     1       0.317   4.651  20.769  0.00  0.00    +0.028 HD
ATOM     49  H   UNL     1       0.511   4.315  19.061  0.00  0.00    +0.028 HD
ENDBRANCH  36  46
ENDBRANCH  30  37
ENDBRANCH   1  30
TORSDOF 6
ENDMDL
MODEL 25
REMARK VINA RESULT:    -5.293      5.344      8.816
REMARK INTER + INTRA:          -4.548
REMARK INTER:                  -5.619
REMARK INTRA:                   1.071
REMARK UNBOUND:                 2.138
REMARK  Name = 
REMARK  6 active torsions:
REMARK  status: ('A' for Active; 'I' for Inactive)
REMARK    1  A    between atoms: C_1  and  C_2
REMARK    2  A    between atoms: C_5  and  C_6
REMARK    3  A    between atoms: C_7  and  S_8
REMARK    4  A    between atoms: S_8  and  N_11
REMARK    5  A    between atoms: C_15  and  C_17
REMARK    6  A    between atoms: C_20  and  C_21
REMARK                            x       y       z     vdW  Elec       q    Type
REMARK                         _______ _______ _______ _____ _____    ______ ____
ROOT
ATOM      1  N   UNL     1       1.927  12.126  19.049  0.00  0.00    -0.174 NA
ATOM      2  C   UNL     1       1.771  13.464  18.363  0.00  0.00    +0.036 C 
ATOM      3  C   UNL     1       1.536  14.609  19.360  0.00  0.00    +0.029 C 
ATOM      4  N   UNL     1       0.492  14.245  20.316  0.00  0.00    -0.295 N 
ATOM      5  C   UNL     1      -0.820  14.648  20.022  0.00  0.00    +0.253 C 
ATOM      6  O   UNL     1      -1.066  15.257  18.980  0.00  0.00    -0.269 OA
ATOM      7  C   UNL     1       0.775  13.030  21.097  0.00  0.00    +0.029 C 
ATOM      8  C   UNL     1       1.974  12.236  20.543  0.00  0.00    +0.036 C 
ATOM      9  H   UNL     1       0.932  13.441  17.661  0.00  0.00    +0.046 HD
ATOM     10  H   UNL     1       2.678  13.656  17.781  0.00  0.00    +0.046 HD
ATOM     11  H   UNL     1       1.282  15.529  18.826  0.00  0.00    +0.048 HD
ATOM     12  H   UNL     1       2.447  14.819  19.932  0.00  0.00    +0.048 HD
ATOM     13  H   UNL     1       0.996  13.337  22.124  0.00  0.00    +0.048 HD
ATOM     14  H   UNL     1      -0.109  12.385  21.113  0.00  0.00    +0.048 HD
ATOM     15  H   UNL     1       2.031  11.248  21.012  0.00  0.00    +0.046 HD
ATOM     16  H   UNL     1       2.916  12.737  20.806  0.00  0.00    +0.046 HD
ENDROOT
BRANCH   5  17
ATOM     17  C   UNL     1      -1.881  14.326  20.963  0.00  0.00    +0.078 A 
ATOM     18  C   UNL     1      -1.973  14.748  22.294  0.00  0.00    -0.030 A 
ATOM     19  C   UNL     1      -3.092  14.161  22.869  0.00  0.00    +0.052 A 
ATOM     20  C   UNL     1      -3.720  14.175  24.104  0.00  0.00    +0.089 A 
ATOM     21  N   UNL     1      -4.801  13.363  24.058  0.00  0.00    -0.082 NA
ATOM     22  O   UNL     1      -4.833  12.833  22.748  0.00  0.00    -0.347 OA
ATOM     23  C   UNL     1      -3.785  13.342  22.074  0.00  0.00    +0.206 A 
ATOM     24  S   UNL     1      -3.149  13.190  20.546  0.00  0.00    -0.044 S 
ATOM     25  H   UNL     1      -1.268  15.427  22.758  0.00  0.00    +0.064 HD
BRANCH  20  26
ATOM     26  C   UNL     1      -3.374  14.894  25.348  0.00  0.00    -0.018 C 
ATOM     27  H   UNL     1      -2.399  15.381  25.246  0.00  0.00    +0.029 HD
ATOM     28  H   UNL     1      -3.328  14.203  26.197  0.00  0.00    +0.029 HD
ATOM     29  H   UNL     1      -4.115  15.664  25.584  0.00  0.00    +0.029 HD
ENDBRANCH  20  26
ENDBRANCH   5  17
BRANCH   1  30
ATOM     30  S   UNL     1       0.877  10.893  18.492  0.00  0.00    +0.061 S 
ATOM     31  O   UNL     1       1.514  10.282  17.341  0.00  0.00    -0.153 OA
ATOM     32  O   UNL     1      -0.454  11.451  18.376  0.00  0.00    -0.153 OA
BRANCH  30  37
ATOM     33  C   UNL     1       0.132   9.212  22.104  0.00  0.00    -0.049 A 
ATOM     34  C   UNL     1       0.819   7.999  22.032  0.00  0.00    -0.058 A 
ATOM     35  C   UNL     1       1.523   7.646  20.876  0.00  0.00    -0.057 A 
ATOM     36  C   UNL     1       1.560   8.497  19.760  0.00  0.00    -0.024 A 
ATOM     37  C   UNL     1       0.877   9.726  19.843  0.00  0.00    +0.109 A 
ATOM     38  C   UNL     1       0.179  10.082  21.010  0.00  0.00    -0.032 A 
ATOM     39  H   UNL     1       0.817   7.317  22.881  0.00  0.00    +0.062 HD
ATOM     40  H   UNL     1       2.052   6.695  20.859  0.00  0.00    +0.062 HD
ATOM     41  H   UNL     1      -0.336  11.041  21.069  0.00  0.00    +0.064 HD
BRANCH  33  42
ATOM     42  C   UNL     1      -0.591   9.601  23.360  0.00  0.00    -0.040 C 
ATOM     43  H   UNL     1      -1.673   9.604  23.198  0.00  0.00    +0.028 HD
ATOM     44  H   UNL     1      -0.352   8.896  24.164  0.00  0.00    +0.028 HD
ATOM     45  H   UNL     1      -0.309  10.610  23.682  0.00  0.00    +0.028 HD
ENDBRANCH  33  42
BRANCH  36  46
ATOM     46  C   UNL     1       2.362   8.070  18.560  0.00  0.00    -0.038 C 
ATOM     47  H   UNL     1       2.154   8.725  17.709  0.00  0.00    +0.028 HD
ATOM     48  H   UNL     1       3.438   8.127  18.763  0.00  0.00    +0.028 HD
ATOM     49  H   UNL     1       2.154   7.031  18.292  0.00  0.00    +0.028 HD
ENDBRANCH  36  46
ENDBRANCH  30  37
ENDBRANCH   1  30
TORSDOF 6
ENDMDL
MODEL 26
REMARK VINA RESULT:    -5.186      2.413      5.015
REMARK INTER + INTRA:          -4.412
REMARK INTER:                  -6.345
REMARK INTRA:                   1.932
REMARK UNBOUND:                 2.138
REMARK  Name = 
REMARK  6 active torsions:
REMARK  status: ('A' for Active; 'I' for Inactive)
REMARK    1  A    between atoms: C_1  and  C_2
REMARK    2  A    between atoms: C_5  and  C_6
REMARK    3  A    between atoms: C_7  and  S_8
REMARK    4  A    between atoms: S_8  and  N_11
REMARK    5  A    between atoms: C_15  and  C_17
REMARK    6  A    between atoms: C_20  and  C_21
REMARK                            x       y       z     vdW  Elec       q    Type
REMARK                         _______ _______ _______ _____ _____    ______ ____
ROOT
ATOM      1  N   UNL     1       5.343   3.692  17.849  0.00  0.00    -0.174 NA
ATOM      2  C   UNL     1       5.789   4.550  16.688  0.00  0.00    +0.036 C 
ATOM      3  C   UNL     1       6.095   5.994  17.112  0.00  0.00    +0.029 C 
ATOM      4  N   UNL     1       5.008   6.526  17.930  0.00  0.00    -0.295 N 
ATOM      5  C   UNL     1       4.007   7.261  17.275  0.00  0.00    +0.253 C 
ATOM      6  O   UNL     1       4.046   7.414  16.053  0.00  0.00    -0.269 OA
ATOM      7  C   UNL     1       4.731   5.757  19.154  0.00  0.00    +0.029 C 
ATOM      8  C   UNL     1       5.449   4.393  19.170  0.00  0.00    +0.036 C 
ATOM      9  H   UNL     1       5.019   4.574  15.910  0.00  0.00    +0.046 HD
ATOM     10  H   UNL     1       6.681   4.092  16.249  0.00  0.00    +0.046 HD
ATOM     11  H   UNL     1       6.269   6.618  16.229  0.00  0.00    +0.048 HD
ATOM     12  H   UNL     1       7.011   6.036  17.712  0.00  0.00    +0.048 HD
ATOM     13  H   UNL     1       5.076   6.350  20.007  0.00  0.00    +0.048 HD
ATOM     14  H   UNL     1       3.653   5.599  19.257  0.00  0.00    +0.048 HD
ATOM     15  H   UNL     1       5.068   3.767  19.984  0.00  0.00    +0.046 HD
ATOM     16  H   UNL     1       6.518   4.529  19.386  0.00  0.00    +0.046 HD
ENDROOT
BRANCH   5  17
ATOM     17  C   UNL     1       2.923   7.827  18.061  0.00  0.00    +0.078 A 
ATOM     18  C   UNL     1       2.080   8.879  17.684  0.00  0.00    -0.030 A 
ATOM     19  C   UNL     1       1.232   9.169  18.744  0.00  0.00    +0.052 A 
ATOM     20  C   UNL     1       0.202  10.059  19.002  0.00  0.00    +0.089 A 
ATOM     21  N   UNL     1      -0.245   9.864  20.263  0.00  0.00    -0.082 NA
ATOM     22  O   UNL     1       0.542   8.817  20.796  0.00  0.00    -0.347 OA
ATOM     23  C   UNL     1       1.415   8.435  19.845  0.00  0.00    +0.206 A 
ATOM     24  S   UNL     1       2.640   7.321  19.715  0.00  0.00    -0.044 S 
ATOM     25  H   UNL     1       2.115   9.357  16.713  0.00  0.00    +0.064 HD
BRANCH  20  26
ATOM     26  C   UNL     1      -0.399  11.104  18.146  0.00  0.00    -0.018 C 
ATOM     27  H   UNL     1       0.146  11.180  17.200  0.00  0.00    +0.029 HD
ATOM     28  H   UNL     1      -0.366  12.080  18.643  0.00  0.00    +0.029 HD
ATOM     29  H   UNL     1      -1.446  10.881  17.918  0.00  0.00    +0.029 HD
ENDBRANCH  20  26
ENDBRANCH   5  17
BRANCH   1  30
ATOM     30  S   UNL     1       3.849   2.882  17.629  0.00  0.00    +0.061 S 
ATOM     31  O   UNL     1       4.157   1.487  17.382  0.00  0.00    -0.153 OA
ATOM     32  O   UNL     1       3.065   3.634  16.673  0.00  0.00    -0.153 OA
BRANCH  30  37
ATOM     33  C   UNL     1       1.325   4.074  20.566  0.00  0.00    -0.049 A 
ATOM     34  C   UNL     1       1.786   3.370  21.681  0.00  0.00    -0.058 A 
ATOM     35  C   UNL     1       2.874   2.499  21.572  0.00  0.00    -0.057 A 
ATOM     36  C   UNL     1       3.533   2.308  20.346  0.00  0.00    -0.024 A 
ATOM     37  C   UNL     1       3.072   3.031  19.229  0.00  0.00    +0.109 A 
ATOM     38  C   UNL     1       1.984   3.914  19.344  0.00  0.00    -0.032 A 
ATOM     39  H   UNL     1       1.303   3.498  22.648  0.00  0.00    +0.062 HD
ATOM     40  H   UNL     1       3.210   1.971  22.462  0.00  0.00    +0.062 HD
ATOM     41  H   UNL     1       1.644   4.480  18.477  0.00  0.00    +0.064 HD
BRANCH  33  42
ATOM     42  C   UNL     1       0.180   5.036  20.698  0.00  0.00    -0.040 C 
ATOM     43  H   UNL     1       0.527   6.068  20.589  0.00  0.00    +0.028 HD
ATOM     44  H   UNL     1      -0.574   4.828  19.931  0.00  0.00    +0.028 HD
ATOM     45  H   UNL     1      -0.291   4.955  21.684  0.00  0.00    +0.028 HD
ENDBRANCH  33  42
BRANCH  36  46
ATOM     46  C   UNL     1       4.716   1.379  20.306  0.00  0.00    -0.038 C 
ATOM     47  H   UNL     1       5.452   1.665  21.062  0.00  0.00    +0.028 HD
ATOM     48  H   UNL     1       4.415   0.346  20.515  0.00  0.00    +0.028 HD
ATOM     49  H   UNL     1       5.181   1.370  19.316  0.00  0.00    +0.028 HD
ENDBRANCH  36  46
ENDBRANCH  30  37
ENDBRANCH   1  30
TORSDOF 6
ENDMDL
MODEL 27
REMARK VINA RESULT:    -5.166      3.432      8.503
REMARK INTER + INTRA:          -4.387
REMARK INTER:                  -4.822
REMARK INTRA:                   0.436
REMARK UNBOUND:                 2.138
REMARK  Name = 
REMARK  6 active torsions:
REMARK  status: ('A' for Active; 'I' for Inactive)
REMARK    1  A    between atoms: C_1  and  C_2
REMARK    2  A    between atoms: C_5  and  C_6
REMARK    3  A    between atoms: C_7  and  S_8
REMARK    4  A    between atoms: S_8  and  N_11
REMARK    5  A    between atoms: C_15  and  C_17
REMARK    6  A    between atoms: C_20  and  C_21
REMARK                            x       y       z     vdW  Elec       q    Type
REMARK                         _______ _______ _______ _____ _____    ______ ____
ROOT
ATOM      1  N   UNL     1      -0.766  11.857  21.773  0.00  0.00    -0.174 NA
ATOM      2  C   UNL     1      -1.416  10.719  22.527  0.00  0.00    +0.036 C 
ATOM      3  C   UNL     1      -0.388   9.731  23.096  0.00  0.00    +0.029 C 
ATOM      4  N   UNL     1       0.581   9.356  22.069  0.00  0.00    -0.295 N 
ATOM      5  C   UNL     1       0.326   8.186  21.337  0.00  0.00    +0.253 C 
ATOM      6  O   UNL     1      -0.697   7.531  21.547  0.00  0.00    -0.269 OA
ATOM      7  C   UNL     1       1.328  10.486  21.491  0.00  0.00    +0.029 C 
ATOM      8  C   UNL     1       0.729  11.852  21.882  0.00  0.00    +0.036 C 
ATOM      9  H   UNL     1      -2.101  10.168  21.875  0.00  0.00    +0.046 HD
ATOM     10  H   UNL     1      -2.013  11.147  23.338  0.00  0.00    +0.046 HD
ATOM     11  H   UNL     1      -0.895   8.851  23.503  0.00  0.00    +0.048 HD
ATOM     12  H   UNL     1       0.169  10.184  23.925  0.00  0.00    +0.048 HD
ATOM     13  H   UNL     1       2.357  10.430  21.860  0.00  0.00    +0.048 HD
ATOM     14  H   UNL     1       1.347  10.399  20.401  0.00  0.00    +0.048 HD
ATOM     15  H   UNL     1       1.173  12.652  21.281  0.00  0.00    +0.046 HD
ATOM     16  H   UNL     1       0.984  12.094  22.923  0.00  0.00    +0.046 HD
ENDROOT
BRANCH   5  17
ATOM     17  C   UNL     1       1.281   7.768  20.323  0.00  0.00    +0.078 A 
ATOM     18  C   UNL     1       2.126   6.655  20.382  0.00  0.00    -0.030 A 
ATOM     19  C   UNL     1       2.936   6.652  19.255  0.00  0.00    +0.052 A 
ATOM     20  C   UNL     1       3.938   5.852  18.731  0.00  0.00    +0.089 A 
ATOM     21  N   UNL     1       4.370   6.391  17.567  0.00  0.00    -0.082 NA
ATOM     22  O   UNL     1       3.604   7.564  17.375  0.00  0.00    -0.347 OA
ATOM     23  C   UNL     1       2.758   7.677  18.417  0.00  0.00    +0.206 A 
ATOM     24  S   UNL     1       1.596   8.756  18.910  0.00  0.00    -0.044 S 
ATOM     25  H   UNL     1       2.115   5.935  21.192  0.00  0.00    +0.064 HD
BRANCH  20  26
ATOM     26  C   UNL     1       4.542   4.607  19.249  0.00  0.00    -0.018 C 
ATOM     27  H   UNL     1       5.340   4.266  18.583  0.00  0.00    +0.029 HD
ATOM     28  H   UNL     1       3.791   3.812  19.324  0.00  0.00    +0.029 HD
ATOM     29  H   UNL     1       4.970   4.755  20.246  0.00  0.00    +0.029 HD
ENDBRANCH  20  26
ENDBRANCH   5  17
BRANCH   1  30
ATOM     30  S   UNL     1      -1.329  12.089  20.172  0.00  0.00    +0.061 S 
ATOM     31  O   UNL     1      -2.565  12.841  20.263  0.00  0.00    -0.153 OA
ATOM     32  O   UNL     1      -1.304  10.809  19.494  0.00  0.00    -0.153 OA
BRANCH  30  37
ATOM     33  C   UNL     1       1.983  13.248  18.144  0.00  0.00    -0.049 A 
ATOM     34  C   UNL     1       1.972  14.636  18.293  0.00  0.00    -0.058 A 
ATOM     35  C   UNL     1       0.948  15.267  19.007  0.00  0.00    -0.057 A 
ATOM     36  C   UNL     1      -0.093  14.528  19.592  0.00  0.00    -0.024 A 
ATOM     37  C   UNL     1      -0.069  13.127  19.450  0.00  0.00    +0.109 A 
ATOM     38  C   UNL     1       0.967  12.495  18.740  0.00  0.00    -0.032 A 
ATOM     39  H   UNL     1       2.766  15.241  17.859  0.00  0.00    +0.062 HD
ATOM     40  H   UNL     1       0.976  16.350  19.109  0.00  0.00    +0.062 HD
ATOM     41  H   UNL     1       0.984  11.409  18.647  0.00  0.00    +0.064 HD
BRANCH  33  42
ATOM     42  C   UNL     1       3.104  12.574  17.408  0.00  0.00    -0.040 C 
ATOM     43  H   UNL     1       2.817  12.367  16.372  0.00  0.00    +0.028 HD
ATOM     44  H   UNL     1       3.994  13.213  17.412  0.00  0.00    +0.028 HD
ATOM     45  H   UNL     1       3.359  11.614  17.871  0.00  0.00    +0.028 HD
ENDBRANCH  33  42
BRANCH  36  46
ATOM     46  C   UNL     1      -1.146  15.267  20.373  0.00  0.00    -0.038 C 
ATOM     47  H   UNL     1      -0.735  15.631  21.319  0.00  0.00    +0.028 HD
ATOM     48  H   UNL     1      -1.512  16.138  19.817  0.00  0.00    +0.028 HD
ATOM     49  H   UNL     1      -2.017  14.634  20.563  0.00  0.00    +0.028 HD
ENDBRANCH  36  46
ENDBRANCH  30  37
ENDBRANCH   1  30
TORSDOF 6
ENDMDL
MODEL 28
REMARK VINA RESULT:    -5.111      3.191      8.281
REMARK INTER + INTRA:          -4.318
REMARK INTER:                  -4.551
REMARK INTRA:                   0.233
REMARK UNBOUND:                 2.138
REMARK  Name = 
REMARK  6 active torsions:
REMARK  status: ('A' for Active; 'I' for Inactive)
REMARK    1  A    between atoms: C_1  and  C_2
REMARK    2  A    between atoms: C_5  and  C_6
REMARK    3  A    between atoms: C_7  and  S_8
REMARK    4  A    between atoms: S_8  and  N_11
REMARK    5  A    between atoms: C_15  and  C_17
REMARK    6  A    between atoms: C_20  and  C_21
REMARK                            x       y       z     vdW  Elec       q    Type
REMARK                         _______ _______ _______ _____ _____    ______ ____
ROOT
ATOM      1  N   UNL     1      -0.133   9.962  20.803  0.00  0.00    -0.174 NA
ATOM      2  C   UNL     1      -0.662   8.627  21.273  0.00  0.00    +0.036 C 
ATOM      3  C   UNL     1       0.442   7.735  21.860  0.00  0.00    +0.029 C 
ATOM      4  N   UNL     1       1.595   7.694  20.963  0.00  0.00    -0.295 N 
ATOM      5  C   UNL     1       1.660   6.636  20.043  0.00  0.00    +0.253 C 
ATOM      6  O   UNL     1       0.755   5.801  19.990  0.00  0.00    -0.269 OA
ATOM      7  C   UNL     1       2.195   9.008  20.679  0.00  0.00    +0.029 C 
ATOM      8  C   UNL     1       1.309  10.177  21.153  0.00  0.00    +0.036 C 
ATOM      9  H   UNL     1      -1.138   8.089  20.448  0.00  0.00    +0.046 HD
ATOM     10  H   UNL     1      -1.432   8.814  22.028  0.00  0.00    +0.046 HD
ATOM     11  H   UNL     1       0.053   6.730  22.052  0.00  0.00    +0.048 HD
ATOM     12  H   UNL     1       0.787   8.127  22.823  0.00  0.00    +0.048 HD
ATOM     13  H   UNL     1       3.156   9.056  21.200  0.00  0.00    +0.048 HD
ATOM     14  H   UNL     1       2.379   9.107  19.605  0.00  0.00    +0.048 HD
ATOM     15  H   UNL     1       1.678  11.127  20.751  0.00  0.00    +0.046 HD
ATOM     16  H   UNL     1       1.370  10.281  22.245  0.00  0.00    +0.046 HD
ENDROOT
BRANCH   5  17
ATOM     17  C   UNL     1       2.805   6.549  19.152  0.00  0.00    +0.078 A 
ATOM     18  C   UNL     1       3.993   5.848  19.386  0.00  0.00    -0.030 A 
ATOM     19  C   UNL     1       4.861   6.081  18.328  0.00  0.00    +0.052 A 
ATOM     20  C   UNL     1       6.140   5.692  17.963  0.00  0.00    +0.089 A 
ATOM     21  N   UNL     1       6.461   6.277  16.787  0.00  0.00    -0.082 NA
ATOM     22  O   UNL     1       5.339   7.055  16.421  0.00  0.00    -0.347 OA
ATOM     23  C   UNL     1       4.405   6.904  17.380  0.00  0.00    +0.206 A 
ATOM     24  S   UNL     1       2.878   7.488  17.674  0.00  0.00    -0.044 S 
ATOM     25  H   UNL     1       4.164   5.232  20.260  0.00  0.00    +0.064 HD
BRANCH  20  26
ATOM     26  C   UNL     1       7.105   4.806  18.649  0.00  0.00    -0.018 C 
ATOM     27  H   UNL     1       7.516   4.076  17.945  0.00  0.00    +0.029 HD
ATOM     28  H   UNL     1       6.621   4.263  19.468  0.00  0.00    +0.029 HD
ATOM     29  H   UNL     1       7.939   5.375  19.072  0.00  0.00    +0.029 HD
ENDBRANCH  20  26
ENDBRANCH   5  17
BRANCH   1  30
ATOM     30  S   UNL     1      -0.504  10.364  19.179  0.00  0.00    +0.061 S 
ATOM     31  O   UNL     1      -1.932  10.180  19.014  0.00  0.00    -0.153 OA
ATOM     32  O   UNL     1       0.425   9.664  18.317  0.00  0.00    -0.153 OA
BRANCH  30  37
ATOM     33  C   UNL     1       1.484  13.831  18.505  0.00  0.00    -0.049 A 
ATOM     34  C   UNL     1       0.583  14.801  18.950  0.00  0.00    -0.058 A 
ATOM     35  C   UNL     1      -0.665  14.431  19.460  0.00  0.00    -0.057 A 
ATOM     36  C   UNL     1      -1.048  13.082  19.540  0.00  0.00    -0.024 A 
ATOM     37  C   UNL     1      -0.130  12.108  19.102  0.00  0.00    +0.109 A 
ATOM     38  C   UNL     1       1.129  12.482  18.599  0.00  0.00    -0.032 A 
ATOM     39  H   UNL     1       0.848  15.855  18.910  0.00  0.00    +0.062 HD
ATOM     40  H   UNL     1      -1.340  15.213  19.804  0.00  0.00    +0.062 HD
ATOM     41  H   UNL     1       1.838  11.720  18.276  0.00  0.00    +0.064 HD
BRANCH  33  42
ATOM     42  C   UNL     1       2.837  14.232  17.993  0.00  0.00    -0.040 C 
ATOM     43  H   UNL     1       3.285  14.993  18.640  0.00  0.00    +0.028 HD
ATOM     44  H   UNL     1       3.498  13.359  17.956  0.00  0.00    +0.028 HD
ATOM     45  H   UNL     1       2.767  14.663  16.988  0.00  0.00    +0.028 HD
ENDBRANCH  33  42
BRANCH  36  46
ATOM     46  C   UNL     1      -2.394  12.752  20.128  0.00  0.00    -0.038 C 
ATOM     47  H   UNL     1      -3.130  12.600  19.334  0.00  0.00    +0.028 HD
ATOM     48  H   UNL     1      -2.351  11.830  20.718  0.00  0.00    +0.028 HD
ATOM     49  H   UNL     1      -2.734  13.538  20.808  0.00  0.00    +0.028 HD
ENDBRANCH  36  46
ENDBRANCH  30  37
ENDBRANCH   1  30
TORSDOF 6
ENDMDL
MODEL 29
REMARK VINA RESULT:    -5.024      3.583      9.842
REMARK INTER + INTRA:          -4.208
REMARK INTER:                  -5.140
REMARK INTRA:                   0.932
REMARK UNBOUND:                 2.138
REMARK  Name = 
REMARK  6 active torsions:
REMARK  status: ('A' for Active; 'I' for Inactive)
REMARK    1  A    between atoms: C_1  and  C_2
REMARK    2  A    between atoms: C_5  and  C_6
REMARK    3  A    between atoms: C_7  and  S_8
REMARK    4  A    between atoms: S_8  and  N_11
REMARK    5  A    between atoms: C_15  and  C_17
REMARK    6  A    between atoms: C_20  and  C_21
REMARK                            x       y       z     vdW  Elec       q    Type
REMARK                         _______ _______ _______ _____ _____    ______ ____
ROOT
ATOM      1  N   UNL     1      -0.530  13.978  19.813  0.00  0.00    -0.174 NA
ATOM      2  C   UNL     1       0.400  14.284  18.661  0.00  0.00    +0.036 C 
ATOM      3  C   UNL     1       0.328  13.223  17.553  0.00  0.00    +0.029 C 
ATOM      4  N   UNL     1       0.428  11.882  18.125  0.00  0.00    -0.295 N 
ATOM      5  C   UNL     1       1.701  11.295  18.176  0.00  0.00    +0.253 C 
ATOM      6  O   UNL     1       2.688  11.914  17.776  0.00  0.00    -0.269 OA
ATOM      7  C   UNL     1      -0.616  11.560  19.112  0.00  0.00    +0.029 C 
ATOM      8  C   UNL     1      -1.420  12.801  19.549  0.00  0.00    +0.036 C 
ATOM      9  H   UNL     1       1.435  14.350  19.010  0.00  0.00    +0.046 HD
ATOM     10  H   UNL     1       0.129  15.265  18.258  0.00  0.00    +0.046 HD
ATOM     11  H   UNL     1       1.115  13.398  16.812  0.00  0.00    +0.048 HD
ATOM     12  H   UNL     1      -0.626  13.284  17.018  0.00  0.00    +0.048 HD
ATOM     13  H   UNL     1      -1.299  10.838  18.653  0.00  0.00    +0.048 HD
ATOM     14  H   UNL     1      -0.163  11.095  19.993  0.00  0.00    +0.048 HD
ATOM     15  H   UNL     1      -2.041  12.570  20.421  0.00  0.00    +0.046 HD
ATOM     16  H   UNL     1      -2.126  13.093  18.759  0.00  0.00    +0.046 HD
ENDROOT
BRANCH   5  17
ATOM     17  C   UNL     1       1.834   9.950  18.715  0.00  0.00    +0.078 A 
ATOM     18  C   UNL     1       2.352   8.833  18.052  0.00  0.00    -0.030 A 
ATOM     19  C   UNL     1       2.231   7.729  18.883  0.00  0.00    +0.052 A 
ATOM     20  C   UNL     1       2.548   6.381  18.828  0.00  0.00    +0.089 A 
ATOM     21  N   UNL     1       2.162   5.789  19.982  0.00  0.00    -0.082 NA
ATOM     22  O   UNL     1       1.588   6.812  20.770  0.00  0.00    -0.347 OA
ATOM     23  C   UNL     1       1.652   7.958  20.065  0.00  0.00    +0.206 A 
ATOM     24  S   UNL     1       1.185   9.536  20.289  0.00  0.00    -0.044 S 
ATOM     25  H   UNL     1       2.772   8.869  17.054  0.00  0.00    +0.064 HD
BRANCH  20  26
ATOM     26  C   UNL     1       3.185   5.588  17.755  0.00  0.00    -0.018 C 
ATOM     27  H   UNL     1       4.262   5.780  17.730  0.00  0.00    +0.029 HD
ATOM     28  H   UNL     1       2.764   5.847  16.778  0.00  0.00    +0.029 HD
ATOM     29  H   UNL     1       3.035   4.515  17.909  0.00  0.00    +0.029 HD
ENDBRANCH  20  26
ENDBRANCH   5  17
BRANCH   1  30
ATOM     30  S   UNL     1       0.210  13.936  21.358  0.00  0.00    +0.061 S 
ATOM     31  O   UNL     1       0.085  15.265  21.922  0.00  0.00    -0.153 OA
ATOM     32  O   UNL     1       1.515  13.324  21.218  0.00  0.00    -0.153 OA
BRANCH  30  37
ATOM     33  C   UNL     1      -1.134  10.578  23.188  0.00  0.00    -0.049 A 
ATOM     34  C   UNL     1      -2.387  10.964  23.669  0.00  0.00    -0.058 A 
ATOM     35  C   UNL     1      -2.859  12.263  23.462  0.00  0.00    -0.057 A 
ATOM     36  C   UNL     1      -2.094  13.214  22.768  0.00  0.00    -0.024 A 
ATOM     37  C   UNL     1      -0.837  12.816  22.273  0.00  0.00    +0.109 A 
ATOM     38  C   UNL     1      -0.368  11.505  22.474  0.00  0.00    -0.032 A 
ATOM     39  H   UNL     1      -3.011  10.252  24.206  0.00  0.00    +0.062 HD
ATOM     40  H   UNL     1      -3.843  12.527  23.845  0.00  0.00    +0.062 HD
ATOM     41  H   UNL     1       0.600  11.203  22.075  0.00  0.00    +0.064 HD
BRANCH  33  42
ATOM     42  C   UNL     1      -0.648   9.171  23.381  0.00  0.00    -0.040 C 
ATOM     43  H   UNL     1       0.130   9.133  24.150  0.00  0.00    +0.028 HD
ATOM     44  H   UNL     1      -1.480   8.525  23.681  0.00  0.00    +0.028 HD
ATOM     45  H   UNL     1      -0.210   8.775  22.458  0.00  0.00    +0.028 HD
ENDBRANCH  33  42
BRANCH  36  46
ATOM     46  C   UNL     1      -2.675  14.585  22.553  0.00  0.00    -0.038 C 
ATOM     47  H   UNL     1      -3.768  14.542  22.563  0.00  0.00    +0.028 HD
ATOM     48  H   UNL     1      -2.367  15.274  23.348  0.00  0.00    +0.028 HD
ATOM     49  H   UNL     1      -2.326  15.023  21.614  0.00  0.00    +0.028 HD
ENDBRANCH  36  46
ENDBRANCH  30  37
ENDBRANCH   1  30
TORSDOF 6
ENDMDL
MODEL 30
REMARK VINA RESULT:    -4.974      2.431      5.025
REMARK INTER + INTRA:          -4.145
REMARK INTER:                  -6.283
REMARK INTRA:                   2.138
REMARK UNBOUND:                 2.138
REMARK  Name = 
REMARK  6 active torsions:
REMARK  status: ('A' for Active; 'I' for Inactive)
REMARK    1  A    between atoms: C_1  and  C_2
REMARK    2  A    between atoms: C_5  and  C_6
REMARK    3  A    between atoms: C_7  and  S_8
REMARK    4  A    between atoms: S_8  and  N_11
REMARK    5  A    between atoms: C_15  and  C_17
REMARK    6  A    between atoms: C_20  and  C_21
REMARK                            x       y       z     vdW  Elec       q    Type
REMARK                         _______ _______ _______ _____ _____    ______ ____
ROOT
ATOM      1  N   UNL     1       5.150   3.462  17.856  0.00  0.00    -0.174 NA
ATOM      2  C   UNL     1       5.773   4.384  16.834  0.00  0.00    +0.036 C 
ATOM      3  C   UNL     1       6.112   5.763  17.419  0.00  0.00    +0.029 C 
ATOM      4  N   UNL     1       4.971   6.296  18.160  0.00  0.00    -0.295 N 
ATOM      5  C   UNL     1       4.096   7.149  17.472  0.00  0.00    +0.253 C 
ATOM      6  O   UNL     1       4.282   7.402  16.280  0.00  0.00    -0.269 OA
ATOM      7  C   UNL     1       4.514   5.445  19.272  0.00  0.00    +0.029 C 
ATOM      8  C   UNL     1       5.146   4.040  19.240  0.00  0.00    +0.036 C 
ATOM      9  H   UNL     1       5.100   4.527  15.983  0.00  0.00    +0.046 HD
ATOM     10  H   UNL     1       6.681   3.906  16.453  0.00  0.00    +0.046 HD
ATOM     11  H   UNL     1       6.421   6.446  16.622  0.00  0.00    +0.048 HD
ATOM     12  H   UNL     1       6.955   5.692  18.116  0.00  0.00    +0.048 HD
ATOM     13  H   UNL     1       4.793   5.939  20.208  0.00  0.00    +0.048 HD
ATOM     14  H   UNL     1       3.424   5.352  19.243  0.00  0.00    +0.048 HD
ATOM     15  H   UNL     1       4.639   3.374  19.946  0.00  0.00    +0.046 HD
ATOM     16  H   UNL     1       6.189   4.085  19.580  0.00  0.00    +0.046 HD
ENDROOT
BRANCH   5  17
ATOM     17  C   UNL     1       2.963   7.719  18.185  0.00  0.00    +0.078 A 
ATOM     18  C   UNL     1       2.114   8.732  17.728  0.00  0.00    -0.030 A 
ATOM     19  C   UNL     1       1.212   9.042  18.736  0.00  0.00    +0.052 A 
ATOM     20  C   UNL     1       0.150   9.915  18.911  0.00  0.00    +0.089 A 
ATOM     21  N   UNL     1      -0.349   9.759  20.159  0.00  0.00    -0.082 NA
ATOM     22  O   UNL     1       0.438   8.756  20.769  0.00  0.00    -0.347 OA
ATOM     23  C   UNL     1       1.362   8.359  19.874  0.00  0.00    +0.206 A 
ATOM     24  S   UNL     1       2.619   7.273  19.844  0.00  0.00    -0.044 S 
ATOM     25  H   UNL     1       2.181   9.171  16.741  0.00  0.00    +0.064 HD
BRANCH  20  26
ATOM     26  C   UNL     1      -0.437  10.909  17.987  0.00  0.00    -0.018 C 
ATOM     27  H   UNL     1      -1.256  11.445  18.477  0.00  0.00    +0.029 HD
ATOM     28  H   UNL     1      -0.830  10.421  17.089  0.00  0.00    +0.029 HD
ATOM     29  H   UNL     1       0.307  11.646  17.668  0.00  0.00    +0.029 HD
ENDBRANCH  20  26
ENDBRANCH   5  17
BRANCH   1  30
ATOM     30  S   UNL     1       3.647   2.776  17.402  0.00  0.00    +0.061 S 
ATOM     31  O   UNL     1       3.856   1.348  17.272  0.00  0.00    -0.153 OA
ATOM     32  O   UNL     1       3.120   3.539  16.290  0.00  0.00    -0.153 OA
BRANCH  30  37
ATOM     33  C   UNL     1       2.132   2.556  21.155  0.00  0.00    -0.049 A 
ATOM     34  C   UNL     1       1.070   3.462  21.117  0.00  0.00    -0.058 A 
ATOM     35  C   UNL     1       0.787   4.179  19.950  0.00  0.00    -0.057 A 
ATOM     36  C   UNL     1       1.556   4.010  18.788  0.00  0.00    -0.024 A 
ATOM     37  C   UNL     1       2.618   3.086  18.828  0.00  0.00    +0.109 A 
ATOM     38  C   UNL     1       2.894   2.359  19.999  0.00  0.00    -0.032 A 
ATOM     39  H   UNL     1       0.448   3.614  21.997  0.00  0.00    +0.062 HD
ATOM     40  H   UNL     1      -0.053   4.871  19.956  0.00  0.00    +0.062 HD
ATOM     41  H   UNL     1       3.710   1.636  20.015  0.00  0.00    +0.064 HD
BRANCH  33  42
ATOM     42  C   UNL     1       2.408   1.763  22.399  0.00  0.00    -0.040 C 
ATOM     43  H   UNL     1       3.479   1.557  22.496  0.00  0.00    +0.028 HD
ATOM     44  H   UNL     1       2.069   2.318  23.280  0.00  0.00    +0.028 HD
ATOM     45  H   UNL     1       1.894   0.796  22.372  0.00  0.00    +0.028 HD
ENDBRANCH  33  42
BRANCH  36  46
ATOM     46  C   UNL     1       1.178   4.790  17.558  0.00  0.00    -0.038 C 
ATOM     47  H   UNL     1       0.586   4.170  16.880  0.00  0.00    +0.028 HD
ATOM     48  H   UNL     1       0.571   5.666  17.817  0.00  0.00    +0.028 HD
ATOM     49  H   UNL     1       2.063   5.171  17.041  0.00  0.00    +0.028 HD
ENDBRANCH  36  46
ENDBRANCH  30  37
ENDBRANCH   1  30
TORSDOF 6
ENDMDL
MODEL 31
REMARK VINA RESULT:    -4.851      3.608      8.843
REMARK INTER + INTRA:          -3.990
REMARK INTER:                  -4.388
REMARK INTRA:                   0.398
REMARK UNBOUND:                 2.138
REMARK  Name = 
REMARK  6 active torsions:
REMARK  status: ('A' for Active; 'I' for Inactive)
REMARK    1  A    between atoms: C_1  and  C_2
REMARK    2  A    between atoms: C_5  and  C_6
REMARK    3  A    between atoms: C_7  and  S_8
REMARK    4  A    between atoms: S_8  and  N_11
REMARK    5  A    between atoms: C_15  and  C_17
REMARK    6  A    between atoms: C_20  and  C_21
REMARK                            x       y       z     vdW  Elec       q    Type
REMARK                         _______ _______ _______ _____ _____    ______ ____
ROOT
ATOM      1  N   UNL     1       0.376  11.048  19.081  0.00  0.00    -0.174 NA
ATOM      2  C   UNL     1       1.737  11.182  18.438  0.00  0.00    +0.036 C 
ATOM      3  C   UNL     1       1.979  10.121  17.354  0.00  0.00    +0.029 C 
ATOM      4  N   UNL     1       1.629   8.794  17.854  0.00  0.00    -0.295 N 
ATOM      5  C   UNL     1       2.660   8.018  18.405  0.00  0.00    +0.253 C 
ATOM      6  O   UNL     1       3.804   8.468  18.482  0.00  0.00    -0.269 OA
ATOM      7  C   UNL     1       0.232   8.658  18.300  0.00  0.00    +0.029 C 
ATOM      8  C   UNL     1      -0.486  10.017  18.417  0.00  0.00    +0.036 C 
ATOM      9  H   UNL     1       2.528  11.095  19.189  0.00  0.00    +0.046 HD
ATOM     10  H   UNL     1       1.810  12.184  18.003  0.00  0.00    +0.046 HD
ATOM     11  H   UNL     1       3.020  10.156  17.018  0.00  0.00    +0.048 HD
ATOM     12  H   UNL     1       1.358  10.317  16.473  0.00  0.00    +0.048 HD
ATOM     13  H   UNL     1      -0.295   8.040  17.566  0.00  0.00    +0.048 HD
ATOM     14  H   UNL     1       0.199   8.148  19.267  0.00  0.00    +0.048 HD
ATOM     15  H   UNL     1      -1.442   9.903  18.939  0.00  0.00    +0.046 HD
ATOM     16  H   UNL     1      -0.744  10.398  17.419  0.00  0.00    +0.046 HD
ENDROOT
BRANCH   5  17
ATOM     17  C   UNL     1       2.353   6.681  18.889  0.00  0.00    +0.078 A 
ATOM     18  C   UNL     1       2.474   5.486  18.173  0.00  0.00    -0.030 A 
ATOM     19  C   UNL     1       2.007   4.445  18.964  0.00  0.00    +0.052 A 
ATOM     20  C   UNL     1       1.867   3.071  18.850  0.00  0.00    +0.089 A 
ATOM     21  N   UNL     1       1.319   2.588  19.989  0.00  0.00    -0.082 NA
ATOM     22  O   UNL     1       1.115   3.707  20.827  0.00  0.00    -0.347 OA
ATOM     23  C   UNL     1       1.543   4.799  20.165  0.00  0.00    +0.206 A 
ATOM     24  S   UNL     1       1.616   6.432  20.460  0.00  0.00    -0.044 S 
ATOM     25  H   UNL     1       2.875   5.426  17.168  0.00  0.00    +0.064 HD
BRANCH  20  26
ATOM     26  C   UNL     1       2.203   2.162  17.735  0.00  0.00    -0.018 C 
ATOM     27  H   UNL     1       1.544   2.348  16.881  0.00  0.00    +0.029 HD
ATOM     28  H   UNL     1       2.090   1.116  18.037  0.00  0.00    +0.029 HD
ATOM     29  H   UNL     1       3.237   2.303  17.402  0.00  0.00    +0.029 HD
ENDBRANCH  20  26
ENDBRANCH   5  17
BRANCH   1  30
ATOM     30  S   UNL     1       0.385  10.926  20.790  0.00  0.00    +0.061 S 
ATOM     31  O   UNL     1       1.558  10.155  21.154  0.00  0.00    -0.153 OA
ATOM     32  O   UNL     1      -0.930  10.497  21.219  0.00  0.00    -0.153 OA
BRANCH  30  37
ATOM     33  C   UNL     1       2.049  14.587  21.293  0.00  0.00    -0.049 A 
ATOM     34  C   UNL     1       1.108  15.254  22.080  0.00  0.00    -0.058 A 
ATOM     35  C   UNL     1      -0.071  14.613  22.475  0.00  0.00    -0.057 A 
ATOM     36  C   UNL     1      -0.342  13.289  22.095  0.00  0.00    -0.024 A 
ATOM     37  C   UNL     1       0.617  12.617  21.312  0.00  0.00    +0.109 A 
ATOM     38  C   UNL     1       1.806  13.260  20.925  0.00  0.00    -0.032 A 
ATOM     39  H   UNL     1       1.288  16.278  22.399  0.00  0.00    +0.062 HD
ATOM     40  H   UNL     1      -0.778  15.162  23.094  0.00  0.00    +0.062 HD
ATOM     41  H   UNL     1       2.548  12.727  20.330  0.00  0.00    +0.064 HD
BRANCH  33  42
ATOM     42  C   UNL     1       3.329  15.267  20.903  0.00  0.00    -0.040 C 
ATOM     43  H   UNL     1       4.081  14.531  20.601  0.00  0.00    +0.028 HD
ATOM     44  H   UNL     1       3.149  15.957  20.072  0.00  0.00    +0.028 HD
ATOM     45  H   UNL     1       3.748  15.831  21.744  0.00  0.00    +0.028 HD
ENDBRANCH  33  42
BRANCH  36  46
ATOM     46  C   UNL     1      -1.615  12.650  22.580  0.00  0.00    -0.038 C 
ATOM     47  H   UNL     1      -2.046  12.017  21.800  0.00  0.00    +0.028 HD
ATOM     48  H   UNL     1      -1.430  12.016  23.454  0.00  0.00    +0.028 HD
ATOM     49  H   UNL     1      -2.343  13.403  22.894  0.00  0.00    +0.028 HD
ENDBRANCH  36  46
ENDBRANCH  30  37
ENDBRANCH   1  30
TORSDOF 6
ENDMDL
MODEL 32
REMARK VINA RESULT:    -4.779      4.009      6.802
REMARK INTER + INTRA:          -3.898
REMARK INTER:                  -5.210
REMARK INTRA:                   1.311
REMARK UNBOUND:                 2.138
REMARK  Name = 
REMARK  6 active torsions:
REMARK  status: ('A' for Active; 'I' for Inactive)
REMARK    1  A    between atoms: C_1  and  C_2
REMARK    2  A    between atoms: C_5  and  C_6
REMARK    3  A    between atoms: C_7  and  S_8
REMARK    4  A    between atoms: S_8  and  N_11
REMARK    5  A    between atoms: C_15  and  C_17
REMARK    6  A    between atoms: C_20  and  C_21
REMARK                            x       y       z     vdW  Elec       q    Type
REMARK                         _______ _______ _______ _____ _____    ______ ____
ROOT
ATOM      1  N   UNL     1       0.197   8.776  19.342  0.00  0.00    -0.174 NA
ATOM      2  C   UNL     1      -0.944   9.672  19.767  0.00  0.00    +0.036 C 
ATOM      3  C   UNL     1      -0.964  11.000  18.995  0.00  0.00    +0.029 C 
ATOM      4  N   UNL     1       0.366  11.605  18.989  0.00  0.00    -0.295 N 
ATOM      5  C   UNL     1       0.651  12.549  19.987  0.00  0.00    +0.253 C 
ATOM      6  O   UNL     1      -0.191  12.820  20.845  0.00  0.00    -0.269 OA
ATOM      7  C   UNL     1       1.417  10.764  18.392  0.00  0.00    +0.029 C 
ATOM      8  C   UNL     1       0.953   9.312  18.164  0.00  0.00    +0.036 C 
ATOM      9  H   UNL     1      -0.880   9.896  20.837  0.00  0.00    +0.046 HD
ATOM     10  H   UNL     1      -1.881   9.130  19.604  0.00  0.00    +0.046 HD
ATOM     11  H   UNL     1      -1.706  11.677  19.429  0.00  0.00    +0.048 HD
ATOM     12  H   UNL     1      -1.259  10.838  17.952  0.00  0.00    +0.048 HD
ATOM     13  H   UNL     1       1.691  11.205  17.429  0.00  0.00    +0.048 HD
ATOM     14  H   UNL     1       2.301  10.764  19.036  0.00  0.00    +0.048 HD
ATOM     15  H   UNL     1       1.806   8.670  17.916  0.00  0.00    +0.046 HD
ATOM     16  H   UNL     1       0.286   9.258  17.293  0.00  0.00    +0.046 HD
ENDROOT
BRANCH   5  17
ATOM     17  C   UNL     1       1.955  13.191  19.996  0.00  0.00    +0.078 A 
ATOM     18  C   UNL     1       2.752  13.446  21.118  0.00  0.00    -0.030 A 
ATOM     19  C   UNL     1       3.881  14.143  20.710  0.00  0.00    +0.052 A 
ATOM     20  C   UNL     1       5.017  14.666  21.305  0.00  0.00    +0.089 A 
ATOM     21  N   UNL     1       5.775  15.267  20.359  0.00  0.00    -0.082 NA
ATOM     22  O   UNL     1       5.075  15.106  19.142  0.00  0.00    -0.347 OA
ATOM     23  C   UNL     1       3.944  14.425  19.406  0.00  0.00    +0.206 A 
ATOM     24  S   UNL     1       2.635  13.884  18.537  0.00  0.00    -0.044 S 
ATOM     25  H   UNL     1       2.494  13.131  22.121  0.00  0.00    +0.064 HD
BRANCH  20  26
ATOM     26  C   UNL     1       5.451  14.656  22.719  0.00  0.00    -0.018 C 
ATOM     27  H   UNL     1       5.957  15.595  22.967  0.00  0.00    +0.029 HD
ATOM     28  H   UNL     1       6.143  13.829  22.908  0.00  0.00    +0.029 HD
ATOM     29  H   UNL     1       4.599  14.540  23.397  0.00  0.00    +0.029 HD
ENDBRANCH  20  26
ENDBRANCH   5  17
BRANCH   1  30
ATOM     30  S   UNL     1       1.212   8.234  20.611  0.00  0.00    +0.061 S 
ATOM     31  O   UNL     1       0.376   8.082  21.786  0.00  0.00    -0.153 OA
ATOM     32  O   UNL     1       2.379   9.089  20.654  0.00  0.00    -0.153 OA
BRANCH  30  37
ATOM     33  C   UNL     1       1.643   4.209  20.402  0.00  0.00    -0.049 A 
ATOM     34  C   UNL     1       2.474   4.041  19.292  0.00  0.00    -0.058 A 
ATOM     35  C   UNL     1       2.921   5.147  18.563  0.00  0.00    -0.057 A 
ATOM     36  C   UNL     1       2.551   6.453  18.923  0.00  0.00    -0.024 A 
ATOM     37  C   UNL     1       1.725   6.618  20.052  0.00  0.00    +0.109 A 
ATOM     38  C   UNL     1       1.285   5.504  20.788  0.00  0.00    -0.032 A 
ATOM     39  H   UNL     1       2.786   3.044  18.987  0.00  0.00    +0.062 HD
ATOM     40  H   UNL     1       3.573   4.978  17.708  0.00  0.00    +0.062 HD
ATOM     41  H   UNL     1       0.656   5.643  21.668  0.00  0.00    +0.064 HD
BRANCH  33  42
ATOM     42  C   UNL     1       1.197   3.020  21.202  0.00  0.00    -0.040 C 
ATOM     43  H   UNL     1       0.206   3.195  21.633  0.00  0.00    +0.028 HD
ATOM     44  H   UNL     1       1.158   2.132  20.563  0.00  0.00    +0.028 HD
ATOM     45  H   UNL     1       1.882   2.825  22.034  0.00  0.00    +0.028 HD
ENDBRANCH  33  42
BRANCH  36  46
ATOM     46  C   UNL     1       3.093   7.601  18.114  0.00  0.00    -0.038 C 
ATOM     47  H   UNL     1       2.321   7.997  17.450  0.00  0.00    +0.028 HD
ATOM     48  H   UNL     1       3.422   8.421  18.763  0.00  0.00    +0.028 HD
ATOM     49  H   UNL     1       3.968   7.299  17.533  0.00  0.00    +0.028 HD
ENDBRANCH  36  46
ENDBRANCH  30  37
ENDBRANCH   1  30
TORSDOF 6
ENDMDL
MODEL 33
REMARK VINA RESULT:    -4.778      6.186      9.501
REMARK INTER + INTRA:          -3.897
REMARK INTER:                  -4.754
REMARK INTRA:                   0.857
REMARK UNBOUND:                 2.138
REMARK  Name = 
REMARK  6 active torsions:
REMARK  status: ('A' for Active; 'I' for Inactive)
REMARK    1  A    between atoms: C_1  and  C_2
REMARK    2  A    between atoms: C_5  and  C_6
REMARK    3  A    between atoms: C_7  and  S_8
REMARK    4  A    between atoms: S_8  and  N_11
REMARK    5  A    between atoms: C_15  and  C_17
REMARK    6  A    between atoms: C_20  and  C_21
REMARK                            x       y       z     vdW  Elec       q    Type
REMARK                         _______ _______ _______ _____ _____    ______ ____
ROOT
ATOM      1  N   UNL     1       1.244  11.820  19.719  0.00  0.00    -0.174 NA
ATOM      2  C   UNL     1       0.693  12.727  18.643  0.00  0.00    +0.036 C 
ATOM      3  C   UNL     1       0.720  14.206  19.055  0.00  0.00    +0.029 C 
ATOM      4  N   UNL     1       0.155  14.372  20.393  0.00  0.00    -0.295 N 
ATOM      5  C   UNL     1      -1.207  14.693  20.483  0.00  0.00    +0.253 C 
ATOM      6  O   UNL     1      -1.892  14.797  19.463  0.00  0.00    -0.269 OA
ATOM      7  C   UNL     1       0.845  13.609  21.446  0.00  0.00    +0.029 C 
ATOM      8  C   UNL     1       1.832  12.572  20.875  0.00  0.00    +0.036 C 
ATOM      9  H   UNL     1      -0.339  12.454  18.401  0.00  0.00    +0.046 HD
ATOM     10  H   UNL     1       1.289  12.580  17.737  0.00  0.00    +0.046 HD
ATOM     11  H   UNL     1       0.182  14.812  18.320  0.00  0.00    +0.048 HD
ATOM     12  H   UNL     1       1.748  14.583  19.082  0.00  0.00    +0.048 HD
ATOM     13  H   UNL     1       1.397  14.320  22.068  0.00  0.00    +0.048 HD
ATOM     14  H   UNL     1       0.110  13.099  22.076  0.00  0.00    +0.048 HD
ATOM     15  H   UNL     1       2.171  11.890  21.661  0.00  0.00    +0.046 HD
ATOM     16  H   UNL     1       2.741  13.072  20.513  0.00  0.00    +0.046 HD
ENDROOT
BRANCH   5  17
ATOM     17  C   UNL     1      -1.798  14.892  21.797  0.00  0.00    +0.078 A 
ATOM     18  C   UNL     1      -1.114  14.973  23.015  0.00  0.00    -0.030 A 
ATOM     19  C   UNL     1      -2.045  15.086  24.039  0.00  0.00    +0.052 A 
ATOM     20  C   UNL     1      -2.021  15.208  25.419  0.00  0.00    +0.089 A 
ATOM     21  N   UNL     1      -3.292  15.266  25.879  0.00  0.00    -0.082 NA
ATOM     22  O   UNL     1      -4.122  15.173  24.738  0.00  0.00    -0.347 OA
ATOM     23  C   UNL     1      -3.325  15.066  23.658  0.00  0.00    +0.206 A 
ATOM     24  S   UNL     1      -3.536  14.900  22.019  0.00  0.00    -0.044 S 
ATOM     25  H   UNL     1      -0.035  14.952  23.100  0.00  0.00    +0.064 HD
BRANCH  20  26
ATOM     26  C   UNL     1      -0.881  15.265  26.358  0.00  0.00    -0.018 C 
ATOM     27  H   UNL     1      -0.338  14.315  26.353  0.00  0.00    +0.029 HD
ATOM     28  H   UNL     1      -1.226  15.461  27.379  0.00  0.00    +0.029 HD
ATOM     29  H   UNL     1      -0.178  16.059  26.085  0.00  0.00    +0.029 HD
ENDBRANCH  20  26
ENDBRANCH   5  17
BRANCH   1  30
ATOM     30  S   UNL     1       0.208  10.541  20.198  0.00  0.00    +0.061 S 
ATOM     31  O   UNL     1      -0.441  10.961  21.425  0.00  0.00    -0.153 OA
ATOM     32  O   UNL     1       0.966   9.308  20.161  0.00  0.00    -0.153 OA
BRANCH  30  37
ATOM     33  C   UNL     1      -3.203  11.184  18.106  0.00  0.00    -0.049 A 
ATOM     34  C   UNL     1      -2.983  10.475  16.923  0.00  0.00    -0.058 A 
ATOM     35  C   UNL     1      -1.782   9.787  16.719  0.00  0.00    -0.057 A 
ATOM     36  C   UNL     1      -0.769   9.787  17.690  0.00  0.00    -0.024 A 
ATOM     37  C   UNL     1      -1.002  10.493  18.887  0.00  0.00    +0.109 A 
ATOM     38  C   UNL     1      -2.213  11.175  19.094  0.00  0.00    -0.032 A 
ATOM     39  H   UNL     1      -3.748  10.447  16.150  0.00  0.00    +0.062 HD
ATOM     40  H   UNL     1      -1.648   9.240  15.787  0.00  0.00    +0.062 HD
ATOM     41  H   UNL     1      -2.390  11.706  20.030  0.00  0.00    +0.064 HD
BRANCH  33  42
ATOM     42  C   UNL     1      -4.507  11.889  18.335  0.00  0.00    -0.040 C 
ATOM     43  H   UNL     1      -5.264  11.545  17.623  0.00  0.00    +0.028 HD
ATOM     44  H   UNL     1      -4.862  11.700  19.354  0.00  0.00    +0.028 HD
ATOM     45  H   UNL     1      -4.401  12.971  18.196  0.00  0.00    +0.028 HD
ENDBRANCH  33  42
BRANCH  36  46
ATOM     46  C   UNL     1       0.485   9.001  17.419  0.00  0.00    -0.038 C 
ATOM     47  H   UNL     1       0.865   8.557  18.343  0.00  0.00    +0.028 HD
ATOM     48  H   UNL     1       0.294   8.183  16.715  0.00  0.00    +0.028 HD
ATOM     49  H   UNL     1       1.255   9.627  16.961  0.00  0.00    +0.028 HD
ENDBRANCH  36  46
ENDBRANCH  30  37
ENDBRANCH   1  30
TORSDOF 6
ENDMDL
