MODEL 1
REMARK VINA RESULT:    -9.460      0.000      0.000
REMARK INTER + INTRA:         -13.716
REMARK INTER:                 -12.154
REMARK INTRA:                  -1.562
REMARK UNBOUND:                -0.109
REMARK  Name = 
REMARK  8 active torsions:
REMARK  status: ('A' for Active; 'I' for Inactive)
REMARK    1  A    between atoms: C_1  and  C_2
REMARK    2  A    between atoms: C_2  and  N_3
REMARK    3  A    between atoms: C_2  and  C_28
REMARK    4  A    between atoms: N_3  and  C_4
REMARK    5  A    between atoms: C_12  and  N_13
REMARK    6  A    between atoms: N_16  and  C_17
REMARK    7  A    between atoms: C_17  and  C_18
REMARK    8  A    between atoms: C_24  and  C_25
REMARK                            x       y       z     vdW  Elec       q    Type
REMARK                         _______ _______ _______ _____ _____    ______ ____
ROOT
ATOM      1  C   UNL     1       0.694  10.247  19.605  0.00  0.00    +0.028 A 
ATOM      2  C   UNL     1       1.600  10.039  18.542  0.00  0.00    -0.041 A 
ATOM      3  C   UNL     1       2.340   8.859  18.418  0.00  0.00    -0.055 A 
ATOM      4  C   UNL     1       2.141   7.856  19.347  0.00  0.00    -0.024 A 
ATOM      5  C   UNL     1       1.214   8.022  20.377  0.00  0.00    -0.041 A 
ATOM      6  C   UNL     1       0.482   9.196  20.508  0.00  0.00    -0.037 A 
ATOM      7  C   UNL     1       1.203   6.828  21.285  0.00  0.00    -0.025 C 
ATOM      8  C   UNL     1       1.892   5.771  20.407  0.00  0.00    -0.026 C 
ATOM      9  C   UNL     1       2.849   6.537  19.472  0.00  0.00    +0.050 C 
ATOM     10  H   UNL     1       1.746  10.821  17.799  0.00  0.00    +0.064 HD
ATOM     11  H   UNL     1       3.057   8.748  17.613  0.00  0.00    +0.062 HD
ATOM     12  H   UNL     1      -0.227   9.276  21.322  0.00  0.00    +0.064 HD
ATOM     13  H   UNL     1       0.189   6.520  21.562  0.00  0.00    +0.031 HD
ATOM     14  H   UNL     1       1.789   7.038  22.187  0.00  0.00    +0.031 HD
ATOM     15  H   UNL     1       1.127   5.241  19.822  0.00  0.00    +0.029 HD
ATOM     16  H   UNL     1       2.415   5.015  21.003  0.00  0.00    +0.029 HD
ATOM     17  H   UNL     1       3.823   6.684  19.959  0.00  0.00    +0.055 HD
ENDROOT
BRANCH   9  18
ATOM     18  N   UNL     1       3.022   5.876  18.200  0.00  0.00    -0.293 N 
ATOM     19  C   UNL     1       3.961   4.889  18.058  0.00  0.00    +0.300 C 
ATOM     20  O   UNL     1       4.759   4.568  18.927  0.00  0.00    -0.253 OA
ATOM     21  N   UNL     1       3.895   4.318  16.812  0.00  0.00    -0.295 N 
ATOM     22  H   UNL     1       2.189   5.773  17.641  0.00  0.00    +0.151 HD
ATOM     23  H   UNL     1       3.581   4.958  16.096  0.00  0.00    +0.151 HD
BRANCH  21  24
ATOM     24  C   UNL     1       4.898   3.358  16.389  0.00  0.00    +0.039 C 
ATOM     25  H   UNL     1       4.390   2.416  16.164  0.00  0.00    +0.051 HD
ATOM     26  H   UNL     1       5.546   3.168  17.253  0.00  0.00    +0.051 HD
BRANCH  24  27
ATOM     27  C   UNL     1       5.761   3.859  15.256  0.00  0.00    -0.018 A 
ATOM     28  C   UNL     1       5.423   3.523  13.930  0.00  0.00    -0.054 A 
ATOM     29  C   UNL     1       6.171   4.013  12.857  0.00  0.00    -0.026 A 
ATOM     30  C   UNL     1       7.255   4.850  13.096  0.00  0.00    +0.124 A 
ATOM     31  F   UNL     1       7.964   5.319  12.062  0.00  0.00    -0.205 F 
ATOM     32  C   UNL     1       7.615   5.200  14.388  0.00  0.00    -0.014 A 
ATOM     33  C   UNL     1       6.877   4.694  15.463  0.00  0.00    +0.044 A 
ATOM     34  H   UNL     1       4.571   2.876  13.730  0.00  0.00    +0.062 HD
ATOM     35  H   UNL     1       5.914   3.749  11.835  0.00  0.00    +0.065 HD
ATOM     36  H   UNL     1       8.467   5.855  14.552  0.00  0.00    +0.065 HD
BRANCH  33  37
ATOM     37  C   UNL     1       7.331   5.084  16.810  0.00  0.00    +0.242 C 
ATOM     38  N   UNL     1       8.025   4.128  17.489  0.00  0.00    -0.325 N 
ATOM     39  O   UNL     1       7.109   6.201  17.255  0.00  0.00    -0.270 OA
ATOM     40  H   UNL     1       8.027   3.151  17.184  0.00  0.00    +0.145 HD
ATOM     41  H   UNL     1       8.266   4.307  18.451  0.00  0.00    +0.145 HD
ENDBRANCH  33  37
ENDBRANCH  24  27
ENDBRANCH  21  24
ENDBRANCH   9  18
BRANCH   1  42
ATOM     42  N   UNL     1      -0.011  11.459  19.622  0.00  0.00    -0.337 N 
ATOM     43  H   UNL     1      -0.695  11.448  20.379  0.00  0.00    +0.147 HD
BRANCH  42  44
ATOM     44  C   UNL     1      -0.582  12.016  18.387  0.00  0.00    +0.046 C 
ATOM     45  H   UNL     1      -0.006  11.678  17.516  0.00  0.00    +0.055 HD
BRANCH  44  46
ATOM     46  C   UNL     1      -2.010  11.518  18.227  0.00  0.00    +0.008 A 
ATOM     47  C   UNL     1      -3.105  12.199  18.791  0.00  0.00    -0.054 A 
ATOM     48  C   UNL     1      -4.407  11.715  18.632  0.00  0.00    -0.061 A 
ATOM     49  C   UNL     1      -4.637  10.543  17.910  0.00  0.00    -0.059 A 
ATOM     50  C   UNL     1      -3.563   9.861  17.340  0.00  0.00    -0.026 A 
ATOM     51  C   UNL     1      -2.268  10.352  17.497  0.00  0.00    +0.128 A 
ATOM     52  F   UNL     1      -1.259   9.683  16.919  0.00  0.00    -0.205 F 
ATOM     53  H   UNL     1      -2.944  13.116  19.362  0.00  0.00    +0.062 HD
ATOM     54  H   UNL     1      -5.244  12.251  19.077  0.00  0.00    +0.062 HD
ATOM     55  H   UNL     1      -5.651  10.167  17.786  0.00  0.00    +0.062 HD
ATOM     56  H   UNL     1      -3.723   8.950  16.772  0.00  0.00    +0.065 HD
ENDBRANCH  44  46
BRANCH  44  57
ATOM     57  C   UNL     1      -0.556  13.547  18.446  0.00  0.00    -0.042 C 
ATOM     58  H   UNL     1       0.408  13.938  18.102  0.00  0.00    +0.025 HD
ATOM     59  H   UNL     1      -1.338  13.992  17.822  0.00  0.00    +0.025 HD
ATOM     60  H   UNL     1      -0.718  13.908  19.467  0.00  0.00    +0.025 HD
ENDBRANCH  44  57
ENDBRANCH  42  44
ENDBRANCH   1  42
TORSDOF 8
ENDMDL
MODEL 2
REMARK VINA RESULT:    -9.154      2.240      2.974
REMARK INTER + INTRA:         -13.276
REMARK INTER:                 -12.445
REMARK INTRA:                  -0.831
REMARK UNBOUND:                -0.109
REMARK  Name = 
REMARK  8 active torsions:
REMARK  status: ('A' for Active; 'I' for Inactive)
REMARK    1  A    between atoms: C_1  and  C_2
REMARK    2  A    between atoms: C_2  and  N_3
REMARK    3  A    between atoms: C_2  and  C_28
REMARK    4  A    between atoms: N_3  and  C_4
REMARK    5  A    between atoms: C_12  and  N_13
REMARK    6  A    between atoms: N_16  and  C_17
REMARK    7  A    between atoms: C_17  and  C_18
REMARK    8  A    between atoms: C_24  and  C_25
REMARK                            x       y       z     vdW  Elec       q    Type
REMARK                         _______ _______ _______ _____ _____    ______ ____
ROOT
ATOM      1  C   UNL     1       0.088  10.637  21.697  0.00  0.00    +0.028 A 
ATOM      2  C   UNL     1       0.596   9.460  22.288  0.00  0.00    -0.041 A 
ATOM      3  C   UNL     1       1.173   8.437  21.528  0.00  0.00    -0.055 A 
ATOM      4  C   UNL     1       1.282   8.613  20.162  0.00  0.00    -0.024 A 
ATOM      5  C   UNL     1       0.831   9.791  19.564  0.00  0.00    -0.041 A 
ATOM      6  C   UNL     1       0.250  10.805  20.315  0.00  0.00    -0.037 A 
ATOM      7  C   UNL     1       1.007   9.737  18.076  0.00  0.00    -0.025 C 
ATOM      8  C   UNL     1       2.024   8.594  17.931  0.00  0.00    -0.026 C 
ATOM      9  C   UNL     1       1.795   7.651  19.129  0.00  0.00    +0.050 C 
ATOM     10  H   UNL     1       0.527   9.326  23.366  0.00  0.00    +0.064 HD
ATOM     11  H   UNL     1       1.517   7.529  22.010  0.00  0.00    +0.062 HD
ATOM     12  H   UNL     1      -0.082  11.701  19.806  0.00  0.00    +0.064 HD
ATOM     13  H   UNL     1       1.398  10.674  17.665  0.00  0.00    +0.031 HD
ATOM     14  H   UNL     1       0.056   9.485  17.594  0.00  0.00    +0.031 HD
ATOM     15  H   UNL     1       3.040   9.014  17.962  0.00  0.00    +0.029 HD
ATOM     16  H   UNL     1       1.928   8.072  16.972  0.00  0.00    +0.029 HD
ATOM     17  H   UNL     1       1.018   6.912  18.891  0.00  0.00    +0.055 HD
ENDROOT
BRANCH   9  18
ATOM     18  N   UNL     1       3.006   6.984  19.545  0.00  0.00    -0.293 N 
ATOM     19  C   UNL     1       3.485   5.916  18.832  0.00  0.00    +0.300 C 
ATOM     20  O   UNL     1       2.902   5.402  17.888  0.00  0.00    -0.253 OA
ATOM     21  N   UNL     1       4.694   5.494  19.324  0.00  0.00    -0.295 N 
ATOM     22  H   UNL     1       3.704   7.568  19.979  0.00  0.00    +0.151 HD
ATOM     23  H   UNL     1       4.798   5.651  20.316  0.00  0.00    +0.151 HD
BRANCH  21  24
ATOM     24  C   UNL     1       5.309   4.279  18.820  0.00  0.00    +0.039 C 
ATOM     25  H   UNL     1       4.575   3.471  18.898  0.00  0.00    +0.051 HD
ATOM     26  H   UNL     1       6.129   4.027  19.504  0.00  0.00    +0.051 HD
BRANCH  24  27
ATOM     27  C   UNL     1       5.885   4.435  17.433  0.00  0.00    -0.018 A 
ATOM     28  C   UNL     1       5.330   3.697  16.369  0.00  0.00    -0.054 A 
ATOM     29  C   UNL     1       5.807   3.856  15.065  0.00  0.00    -0.026 A 
ATOM     30  C   UNL     1       6.831   4.761  14.810  0.00  0.00    +0.124 A 
ATOM     31  F   UNL     1       7.278   4.912  13.557  0.00  0.00    -0.205 F 
ATOM     32  C   UNL     1       7.398   5.504  15.834  0.00  0.00    -0.014 A 
ATOM     33  C   UNL     1       6.934   5.329  17.142  0.00  0.00    +0.044 A 
ATOM     34  H   UNL     1       4.522   2.992  16.554  0.00  0.00    +0.062 HD
ATOM     35  H   UNL     1       5.383   3.282  14.246  0.00  0.00    +0.065 HD
ATOM     36  H   UNL     1       8.199   6.205  15.613  0.00  0.00    +0.065 HD
BRANCH  33  37
ATOM     37  C   UNL     1       7.600   6.129  18.185  0.00  0.00    +0.242 C 
ATOM     38  N   UNL     1       7.725   7.457  17.909  0.00  0.00    -0.325 N 
ATOM     39  O   UNL     1       7.984   5.617  19.228  0.00  0.00    -0.270 OA
ATOM     40  H   UNL     1       7.579   7.823  16.964  0.00  0.00    +0.145 HD
ATOM     41  H   UNL     1       8.265   8.026  18.541  0.00  0.00    +0.145 HD
ENDBRANCH  33  37
ENDBRANCH  24  27
ENDBRANCH  21  24
ENDBRANCH   9  18
BRANCH   1  42
ATOM     42  N   UNL     1      -0.452  11.607  22.554  0.00  0.00    -0.337 N 
ATOM     43  H   UNL     1      -1.149  11.178  23.162  0.00  0.00    +0.147 HD
BRANCH  42  44
ATOM     44  C   UNL     1      -0.914  12.902  22.031  0.00  0.00    +0.046 C 
ATOM     45  H   UNL     1      -0.391  13.143  21.098  0.00  0.00    +0.055 HD
BRANCH  44  46
ATOM     46  C   UNL     1      -2.401  12.815  21.727  0.00  0.00    +0.008 A 
ATOM     47  C   UNL     1      -3.368  12.742  22.748  0.00  0.00    -0.054 A 
ATOM     48  C   UNL     1      -4.730  12.658  22.438  0.00  0.00    -0.061 A 
ATOM     49  C   UNL     1      -5.147  12.645  21.106  0.00  0.00    -0.059 A 
ATOM     50  C   UNL     1      -4.202  12.724  20.085  0.00  0.00    -0.026 A 
ATOM     51  C   UNL     1      -2.846  12.812  20.400  0.00  0.00    +0.128 A 
ATOM     52  F   UNL     1      -1.964  12.908  19.394  0.00  0.00    -0.205 F 
ATOM     53  H   UNL     1      -3.060  12.748  23.794  0.00  0.00    +0.062 HD
ATOM     54  H   UNL     1      -5.466  12.598  23.238  0.00  0.00    +0.062 HD
ATOM     55  H   UNL     1      -6.207  12.581  20.866  0.00  0.00    +0.062 HD
ATOM     56  H   UNL     1      -4.508  12.719  19.043  0.00  0.00    +0.065 HD
ENDBRANCH  44  46
BRANCH  44  57
ATOM     57  C   UNL     1      -0.644  14.004  23.061  0.00  0.00    -0.042 C 
ATOM     58  H   UNL     1      -1.419  14.777  23.021  0.00  0.00    +0.025 HD
ATOM     59  H   UNL     1      -0.617  13.610  24.082  0.00  0.00    +0.025 HD
ATOM     60  H   UNL     1       0.321  14.489  22.880  0.00  0.00    +0.025 HD
ENDBRANCH  44  57
ENDBRANCH  42  44
ENDBRANCH   1  42
TORSDOF 8
ENDMDL
MODEL 3
REMARK VINA RESULT:    -9.145      2.878      9.545
REMARK INTER + INTRA:         -13.263
REMARK INTER:                 -12.505
REMARK INTRA:                  -0.758
REMARK UNBOUND:                -0.109
REMARK  Name = 
REMARK  8 active torsions:
REMARK  status: ('A' for Active; 'I' for Inactive)
REMARK    1  A    between atoms: C_1  and  C_2
REMARK    2  A    between atoms: C_2  and  N_3
REMARK    3  A    between atoms: C_2  and  C_28
REMARK    4  A    between atoms: N_3  and  C_4
REMARK    5  A    between atoms: C_12  and  N_13
REMARK    6  A    between atoms: N_16  and  C_17
REMARK    7  A    between atoms: C_17  and  C_18
REMARK    8  A    between atoms: C_24  and  C_25
REMARK                            x       y       z     vdW  Elec       q    Type
REMARK                         _______ _______ _______ _____ _____    ______ ____
ROOT
ATOM      1  C   UNL     1       4.055   3.224  17.318  0.00  0.00    +0.028 A 
ATOM      2  C   UNL     1       2.931   4.037  17.056  0.00  0.00    -0.041 A 
ATOM      3  C   UNL     1       1.937   4.261  18.015  0.00  0.00    -0.055 A 
ATOM      4  C   UNL     1       2.091   3.696  19.267  0.00  0.00    -0.024 A 
ATOM      5  C   UNL     1       3.220   2.929  19.561  0.00  0.00    -0.041 A 
ATOM      6  C   UNL     1       4.205   2.699  18.609  0.00  0.00    -0.037 A 
ATOM      7  C   UNL     1       3.147   2.384  20.956  0.00  0.00    -0.025 C 
ATOM      8  C   UNL     1       2.078   3.293  21.583  0.00  0.00    -0.026 C 
ATOM      9  C   UNL     1       1.147   3.729  20.434  0.00  0.00    +0.050 C 
ATOM     10  H   UNL     1       2.816   4.498  16.077  0.00  0.00    +0.064 HD
ATOM     11  H   UNL     1       1.067   4.857  17.768  0.00  0.00    +0.062 HD
ATOM     12  H   UNL     1       5.063   2.100  18.886  0.00  0.00    +0.064 HD
ATOM     13  H   UNL     1       4.101   2.462  21.488  0.00  0.00    +0.031 HD
ATOM     14  H   UNL     1       2.816   1.340  20.933  0.00  0.00    +0.031 HD
ATOM     15  H   UNL     1       2.572   4.168  22.030  0.00  0.00    +0.029 HD
ATOM     16  H   UNL     1       1.530   2.793  22.390  0.00  0.00    +0.029 HD
ATOM     17  H   UNL     1       0.348   2.989  20.287  0.00  0.00    +0.055 HD
ENDROOT
BRANCH   9  18
ATOM     18  N   UNL     1       0.579   5.039  20.652  0.00  0.00    -0.293 N 
ATOM     19  C   UNL     1       1.393   6.136  20.745  0.00  0.00    +0.300 C 
ATOM     20  O   UNL     1       2.615   6.089  20.749  0.00  0.00    -0.253 OA
ATOM     21  N   UNL     1       0.659   7.291  20.846  0.00  0.00    -0.295 N 
ATOM     22  H   UNL     1      -0.328   5.199  20.242  0.00  0.00    +0.151 HD
ATOM     23  H   UNL     1      -0.230   7.159  21.307  0.00  0.00    +0.151 HD
BRANCH  21  24
ATOM     24  C   UNL     1       1.314   8.559  21.111  0.00  0.00    +0.039 C 
ATOM     25  H   UNL     1       1.977   8.779  20.269  0.00  0.00    +0.051 HD
ATOM     26  H   UNL     1       1.957   8.411  21.987  0.00  0.00    +0.051 HD
BRANCH  24  27
ATOM     27  C   UNL     1       0.346   9.675  21.420  0.00  0.00    -0.018 A 
ATOM     28  C   UNL     1      -0.239   9.747  22.700  0.00  0.00    -0.054 A 
ATOM     29  C   UNL     1      -1.100  10.795  23.033  0.00  0.00    -0.026 A 
ATOM     30  C   UNL     1      -1.375  11.787  22.098  0.00  0.00    +0.124 A 
ATOM     31  F   UNL     1      -2.197  12.791  22.427  0.00  0.00    -0.205 F 
ATOM     32  C   UNL     1      -0.816  11.747  20.830  0.00  0.00    -0.014 A 
ATOM     33  C   UNL     1       0.031  10.686  20.490  0.00  0.00    +0.044 A 
ATOM     34  H   UNL     1      -0.024   8.981  23.443  0.00  0.00    +0.062 HD
ATOM     35  H   UNL     1      -1.556  10.847  24.018  0.00  0.00    +0.065 HD
ATOM     36  H   UNL     1      -1.045  12.532  20.114  0.00  0.00    +0.065 HD
BRANCH  33  37
ATOM     37  C   UNL     1       0.567  10.691  19.118  0.00  0.00    +0.242 C 
ATOM     38  N   UNL     1      -0.244  10.136  18.174  0.00  0.00    -0.325 N 
ATOM     39  O   UNL     1       1.657  11.186  18.865  0.00  0.00    -0.270 OA
ATOM     40  H   UNL     1      -1.049   9.559  18.433  0.00  0.00    +0.145 HD
ATOM     41  H   UNL     1       0.120  10.021  17.242  0.00  0.00    +0.145 HD
ENDBRANCH  33  37
ENDBRANCH  24  27
ENDBRANCH  21  24
ENDBRANCH   9  18
BRANCH   1  42
ATOM     42  N   UNL     1       5.002   3.084  16.292  0.00  0.00    -0.337 N 
ATOM     43  H   UNL     1       5.767   2.490  16.610  0.00  0.00    +0.147 HD
BRANCH  42  44
ATOM     44  C   UNL     1       5.498   4.259  15.559  0.00  0.00    +0.046 C 
ATOM     45  H   UNL     1       4.657   4.844  15.165  0.00  0.00    +0.055 HD
BRANCH  44  46
ATOM     46  C   UNL     1       6.281   5.148  16.512  0.00  0.00    +0.008 A 
ATOM     47  C   UNL     1       7.258   4.628  17.383  0.00  0.00    -0.054 A 
ATOM     48  C   UNL     1       7.961   5.469  18.252  0.00  0.00    -0.061 A 
ATOM     49  C   UNL     1       7.698   6.840  18.268  0.00  0.00    -0.059 A 
ATOM     50  C   UNL     1       6.738   7.369  17.407  0.00  0.00    -0.026 A 
ATOM     51  C   UNL     1       6.045   6.527  16.539  0.00  0.00    +0.128 A 
ATOM     52  F   UNL     1       5.142   7.071  15.709  0.00  0.00    -0.205 F 
ATOM     53  H   UNL     1       7.475   3.559  17.386  0.00  0.00    +0.062 HD
ATOM     54  H   UNL     1       8.711   5.053  18.923  0.00  0.00    +0.062 HD
ATOM     55  H   UNL     1       8.245   7.494  18.945  0.00  0.00    +0.062 HD
ATOM     56  H   UNL     1       6.523   8.434  17.403  0.00  0.00    +0.065 HD
ENDBRANCH  44  46
BRANCH  44  57
ATOM     57  C   UNL     1       6.389   3.808  14.397  0.00  0.00    -0.042 C 
ATOM     58  H   UNL     1       6.921   4.658  13.957  0.00  0.00    +0.025 HD
ATOM     59  H   UNL     1       7.137   3.076  14.718  0.00  0.00    +0.025 HD
ATOM     60  H   UNL     1       5.799   3.336  13.604  0.00  0.00    +0.025 HD
ENDBRANCH  44  57
ENDBRANCH  42  44
ENDBRANCH   1  42
TORSDOF 8
ENDMDL
MODEL 4
REMARK VINA RESULT:    -9.122      1.967      2.392
REMARK INTER + INTRA:         -13.231
REMARK INTER:                 -11.963
REMARK INTRA:                  -1.267
REMARK UNBOUND:                -0.109
REMARK  Name = 
REMARK  8 active torsions:
REMARK  status: ('A' for Active; 'I' for Inactive)
REMARK    1  A    between atoms: C_1  and  C_2
REMARK    2  A    between atoms: C_2  and  N_3
REMARK    3  A    between atoms: C_2  and  C_28
REMARK    4  A    between atoms: N_3  and  C_4
REMARK    5  A    between atoms: C_12  and  N_13
REMARK    6  A    between atoms: N_16  and  C_17
REMARK    7  A    between atoms: C_17  and  C_18
REMARK    8  A    between atoms: C_24  and  C_25
REMARK                            x       y       z     vdW  Elec       q    Type
REMARK                         _______ _______ _______ _____ _____    ______ ____
ROOT
ATOM      1  C   UNL     1      -0.186  10.747  19.032  0.00  0.00    +0.028 A 
ATOM      2  C   UNL     1       0.699  10.400  17.988  0.00  0.00    -0.041 A 
ATOM      3  C   UNL     1       1.580   9.318  18.093  0.00  0.00    -0.055 A 
ATOM      4  C   UNL     1       1.547   8.550  19.241  0.00  0.00    -0.024 A 
ATOM      5  C   UNL     1       0.644   8.847  20.263  0.00  0.00    -0.041 A 
ATOM      6  C   UNL     1      -0.227   9.925  20.166  0.00  0.00    -0.037 A 
ATOM      7  C   UNL     1       0.821   7.912  21.422  0.00  0.00    -0.025 C 
ATOM      8  C   UNL     1       1.608   6.764  20.770  0.00  0.00    -0.026 C 
ATOM      9  C   UNL     1       2.424   7.391  19.621  0.00  0.00    +0.050 C 
ATOM     10  H   UNL     1       0.716  10.993  17.076  0.00  0.00    +0.064 HD
ATOM     11  H   UNL     1       2.275   9.103  17.289  0.00  0.00    +0.062 HD
ATOM     12  H   UNL     1      -0.910  10.114  20.984  0.00  0.00    +0.064 HD
ATOM     13  H   UNL     1      -0.134   7.562  21.829  0.00  0.00    +0.031 HD
ATOM     14  H   UNL     1       1.408   8.398  22.209  0.00  0.00    +0.031 HD
ATOM     15  H   UNL     1       0.897   6.024  20.375  0.00  0.00    +0.029 HD
ATOM     16  H   UNL     1       2.246   6.238  21.488  0.00  0.00    +0.029 HD
ATOM     17  H   UNL     1       3.387   7.762  19.994  0.00  0.00    +0.055 HD
ENDROOT
BRANCH   9  18
ATOM     18  N   UNL     1       2.633   6.471  18.528  0.00  0.00    -0.293 N 
ATOM     19  C   UNL     1       3.638   5.542  18.592  0.00  0.00    +0.300 C 
ATOM     20  O   UNL     1       4.464   5.483  19.492  0.00  0.00    -0.253 OA
ATOM     21  N   UNL     1       3.604   4.700  17.510  0.00  0.00    -0.295 N 
ATOM     22  H   UNL     1       1.805   6.186  18.027  0.00  0.00    +0.151 HD
ATOM     23  H   UNL     1       3.240   5.137  16.675  0.00  0.00    +0.151 HD
BRANCH  21  24
ATOM     24  C   UNL     1       4.670   3.738  17.292  0.00  0.00    +0.039 C 
ATOM     25  H   UNL     1       4.221   2.741  17.246  0.00  0.00    +0.051 HD
ATOM     26  H   UNL     1       5.306   3.755  18.186  0.00  0.00    +0.051 HD
BRANCH  24  27
ATOM     27  C   UNL     1       5.530   4.065  16.096  0.00  0.00    -0.018 A 
ATOM     28  C   UNL     1       5.120   3.642  14.815  0.00  0.00    -0.054 A 
ATOM     29  C   UNL     1       5.868   3.971  13.682  0.00  0.00    -0.026 A 
ATOM     30  C   UNL     1       7.023   4.734  13.815  0.00  0.00    +0.124 A 
ATOM     31  F   UNL     1       7.731   5.050  12.723  0.00  0.00    -0.205 F 
ATOM     32  C   UNL     1       7.454   5.166  15.059  0.00  0.00    -0.014 A 
ATOM     33  C   UNL     1       6.715   4.819  16.196  0.00  0.00    +0.044 A 
ATOM     34  H   UNL     1       4.213   3.052  14.698  0.00  0.00    +0.062 HD
ATOM     35  H   UNL     1       5.555   3.641  12.696  0.00  0.00    +0.065 HD
ATOM     36  H   UNL     1       8.361   5.760  15.140  0.00  0.00    +0.065 HD
BRANCH  33  37
ATOM     37  C   UNL     1       7.246   5.287  17.489  0.00  0.00    +0.242 C 
ATOM     38  N   UNL     1       7.924   4.352  18.212  0.00  0.00    -0.325 N 
ATOM     39  O   UNL     1       7.096   6.445  17.854  0.00  0.00    -0.270 OA
ATOM     40  H   UNL     1       7.867   3.356  17.984  0.00  0.00    +0.145 HD
ATOM     41  H   UNL     1       8.214   4.592  19.146  0.00  0.00    +0.145 HD
ENDBRANCH  33  37
ENDBRANCH  24  27
ENDBRANCH  21  24
ENDBRANCH   9  18
BRANCH   1  42
ATOM     42  N   UNL     1      -1.041  11.838  18.814  0.00  0.00    -0.337 N 
ATOM     43  H   UNL     1      -1.092  12.040  17.816  0.00  0.00    +0.147 HD
BRANCH  42  44
ATOM     44  C   UNL     1      -0.910  13.069  19.609  0.00  0.00    +0.046 C 
ATOM     45  H   UNL     1      -1.362  13.915  19.076  0.00  0.00    +0.055 HD
BRANCH  44  46
ATOM     46  C   UNL     1      -1.650  12.894  20.925  0.00  0.00    +0.008 A 
ATOM     47  C   UNL     1      -0.972  12.818  22.157  0.00  0.00    -0.054 A 
ATOM     48  C   UNL     1      -1.678  12.653  23.353  0.00  0.00    -0.061 A 
ATOM     49  C   UNL     1      -3.071  12.559  23.338  0.00  0.00    -0.059 A 
ATOM     50  C   UNL     1      -3.756  12.638  22.127  0.00  0.00    -0.026 A 
ATOM     51  C   UNL     1      -3.047  12.809  20.939  0.00  0.00    +0.128 A 
ATOM     52  F   UNL     1      -3.738  12.903  19.793  0.00  0.00    -0.205 F 
ATOM     53  H   UNL     1       0.117  12.888  22.187  0.00  0.00    +0.062 HD
ATOM     54  H   UNL     1      -1.141  12.593  24.298  0.00  0.00    +0.062 HD
ATOM     55  H   UNL     1      -3.620  12.430  24.270  0.00  0.00    +0.062 HD
ATOM     56  H   UNL     1      -4.839  12.570  22.097  0.00  0.00    +0.065 HD
ENDBRANCH  44  46
BRANCH  44  57
ATOM     57  C   UNL     1       0.571  13.367  19.865  0.00  0.00    -0.042 C 
ATOM     58  H   UNL     1       0.825  13.218  20.920  0.00  0.00    +0.025 HD
ATOM     59  H   UNL     1       1.225  12.721  19.270  0.00  0.00    +0.025 HD
ATOM     60  H   UNL     1       0.820  14.401  19.604  0.00  0.00    +0.025 HD
ENDBRANCH  44  57
ENDBRANCH  42  44
ENDBRANCH   1  42
TORSDOF 8
ENDMDL
MODEL 5
REMARK VINA RESULT:    -8.979      2.663      3.965
REMARK INTER + INTRA:         -13.025
REMARK INTER:                 -11.607
REMARK INTRA:                  -1.418
REMARK UNBOUND:                -0.109
REMARK  Name = 
REMARK  8 active torsions:
REMARK  status: ('A' for Active; 'I' for Inactive)
REMARK    1  A    between atoms: C_1  and  C_2
REMARK    2  A    between atoms: C_2  and  N_3
REMARK    3  A    between atoms: C_2  and  C_28
REMARK    4  A    between atoms: N_3  and  C_4
REMARK    5  A    between atoms: C_12  and  N_13
REMARK    6  A    between atoms: N_16  and  C_17
REMARK    7  A    between atoms: C_17  and  C_18
REMARK    8  A    between atoms: C_24  and  C_25
REMARK                            x       y       z     vdW  Elec       q    Type
REMARK                         _______ _______ _______ _____ _____    ______ ____
ROOT
ATOM      1  C   UNL     1      -0.490  11.024  22.461  0.00  0.00    +0.028 A 
ATOM      2  C   UNL     1      -0.076   9.788  23.002  0.00  0.00    -0.041 A 
ATOM      3  C   UNL     1       0.501   8.789  22.211  0.00  0.00    -0.055 A 
ATOM      4  C   UNL     1       0.704   9.046  20.869  0.00  0.00    -0.024 A 
ATOM      5  C   UNL     1       0.347  10.281  20.325  0.00  0.00    -0.041 A 
ATOM      6  C   UNL     1      -0.233  11.273  21.106  0.00  0.00    -0.037 A 
ATOM      7  C   UNL     1       0.615  10.315  18.850  0.00  0.00    -0.025 C 
ATOM      8  C   UNL     1       1.586   9.134  18.690  0.00  0.00    -0.026 C 
ATOM      9  C   UNL     1       1.237   8.128  19.806  0.00  0.00    +0.050 C 
ATOM     10  H   UNL     1      -0.218   9.588  24.062  0.00  0.00    +0.064 HD
ATOM     11  H   UNL     1       0.771   7.835  22.650  0.00  0.00    +0.062 HD
ATOM     12  H   UNL     1      -0.491  12.215  20.640  0.00  0.00    +0.064 HD
ATOM     13  H   UNL     1       1.074  11.256  18.528  0.00  0.00    +0.031 HD
ATOM     14  H   UNL     1      -0.314  10.142  18.297  0.00  0.00    +0.031 HD
ATOM     15  H   UNL     1       2.615   9.500  18.811  0.00  0.00    +0.029 HD
ATOM     16  H   UNL     1       1.527   8.681  17.694  0.00  0.00    +0.029 HD
ATOM     17  H   UNL     1       0.444   7.446  19.472  0.00  0.00    +0.055 HD
ENDROOT
BRANCH   9  18
ATOM     18  N   UNL     1       2.388   7.376  20.248  0.00  0.00    -0.293 N 
ATOM     19  C   UNL     1       2.721   6.200  19.630  0.00  0.00    +0.300 C 
ATOM     20  O   UNL     1       2.049   5.665  18.760  0.00  0.00    -0.253 OA
ATOM     21  N   UNL     1       3.899   5.697  20.124  0.00  0.00    -0.295 N 
ATOM     22  H   UNL     1       3.161   7.920  20.601  0.00  0.00    +0.151 HD
ATOM     23  H   UNL     1       4.059   5.935  21.092  0.00  0.00    +0.151 HD
BRANCH  21  24
ATOM     24  C   UNL     1       4.361   4.380  19.724  0.00  0.00    +0.039 C 
ATOM     25  H   UNL     1       3.512   3.692  19.780  0.00  0.00    +0.051 HD
ATOM     26  H   UNL     1       5.084   4.050  20.480  0.00  0.00    +0.051 HD
BRANCH  24  27
ATOM     27  C   UNL     1       5.050   4.375  18.380  0.00  0.00    -0.018 A 
ATOM     28  C   UNL     1       6.194   5.176  18.189  0.00  0.00    -0.054 A 
ATOM     29  C   UNL     1       6.883   5.156  16.973  0.00  0.00    -0.026 A 
ATOM     30  C   UNL     1       6.445   4.329  15.945  0.00  0.00    +0.124 A 
ATOM     31  F   UNL     1       7.115   4.311  14.785  0.00  0.00    -0.205 F 
ATOM     32  C   UNL     1       5.325   3.528  16.101  0.00  0.00    -0.014 A 
ATOM     33  C   UNL     1       4.623   3.564  17.311  0.00  0.00    +0.044 A 
ATOM     34  H   UNL     1       6.551   5.820  18.989  0.00  0.00    +0.062 HD
ATOM     35  H   UNL     1       7.761   5.777  16.823  0.00  0.00    +0.065 HD
ATOM     36  H   UNL     1       4.999   2.890  15.283  0.00  0.00    +0.065 HD
BRANCH  33  37
ATOM     37  C   UNL     1       3.425   2.710  17.398  0.00  0.00    +0.242 C 
ATOM     38  N   UNL     1       2.257   3.308  17.033  0.00  0.00    -0.325 N 
ATOM     39  O   UNL     1       3.504   1.542  17.752  0.00  0.00    -0.270 OA
ATOM     40  H   UNL     1       2.185   4.324  16.932  0.00  0.00    +0.145 HD
ATOM     41  H   UNL     1       1.398   2.801  17.175  0.00  0.00    +0.145 HD
ENDBRANCH  33  37
ENDBRANCH  24  27
ENDBRANCH  21  24
ENDBRANCH   9  18
BRANCH   1  42
ATOM     42  N   UNL     1      -1.038  11.963  23.348  0.00  0.00    -0.337 N 
ATOM     43  H   UNL     1      -1.776  11.525  23.899  0.00  0.00    +0.147 HD
BRANCH  42  44
ATOM     44  C   UNL     1      -1.434  13.300  22.880  0.00  0.00    +0.046 C 
ATOM     45  H   UNL     1      -0.676  13.704  22.198  0.00  0.00    +0.055 HD
BRANCH  44  46
ATOM     46  C   UNL     1      -2.744  13.193  22.116  0.00  0.00    +0.008 A 
ATOM     47  C   UNL     1      -3.937  12.774  22.735  0.00  0.00    -0.054 A 
ATOM     48  C   UNL     1      -5.127  12.681  22.006  0.00  0.00    -0.061 A 
ATOM     49  C   UNL     1      -5.144  13.003  20.647  0.00  0.00    -0.059 A 
ATOM     50  C   UNL     1      -3.973  13.425  20.022  0.00  0.00    -0.026 A 
ATOM     51  C   UNL     1      -2.791  13.521  20.756  0.00  0.00    +0.128 A 
ATOM     52  F   UNL     1      -1.686  13.952  20.129  0.00  0.00    -0.205 F 
ATOM     53  H   UNL     1      -3.941  12.516  23.795  0.00  0.00    +0.062 HD
ATOM     54  H   UNL     1      -6.041  12.351  22.497  0.00  0.00    +0.062 HD
ATOM     55  H   UNL     1      -6.071  12.930  20.080  0.00  0.00    +0.062 HD
ATOM     56  H   UNL     1      -3.968  13.683  18.967  0.00  0.00    +0.065 HD
ENDBRANCH  44  46
BRANCH  44  57
ATOM     57  C   UNL     1      -1.592  14.244  24.077  0.00  0.00    -0.042 C 
ATOM     58  H   UNL     1      -2.592  14.162  24.514  0.00  0.00    +0.025 HD
ATOM     59  H   UNL     1      -0.864  14.027  24.866  0.00  0.00    +0.025 HD
ATOM     60  H   UNL     1      -1.440  15.288  23.782  0.00  0.00    +0.025 HD
ENDBRANCH  44  57
ENDBRANCH  42  44
ENDBRANCH   1  42
TORSDOF 8
ENDMDL
MODEL 6
REMARK VINA RESULT:    -8.934      2.128      3.379
REMARK INTER + INTRA:         -12.960
REMARK INTER:                 -11.561
REMARK INTRA:                  -1.399
REMARK UNBOUND:                -0.109
REMARK  Name = 
REMARK  8 active torsions:
REMARK  status: ('A' for Active; 'I' for Inactive)
REMARK    1  A    between atoms: C_1  and  C_2
REMARK    2  A    between atoms: C_2  and  N_3
REMARK    3  A    between atoms: C_2  and  C_28
REMARK    4  A    between atoms: N_3  and  C_4
REMARK    5  A    between atoms: C_12  and  N_13
REMARK    6  A    between atoms: N_16  and  C_17
REMARK    7  A    between atoms: C_17  and  C_18
REMARK    8  A    between atoms: C_24  and  C_25
REMARK                            x       y       z     vdW  Elec       q    Type
REMARK                         _______ _______ _______ _____ _____    ______ ____
ROOT
ATOM      1  C   UNL     1       0.554  10.652  19.088  0.00  0.00    +0.028 A 
ATOM      2  C   UNL     1       1.460  10.311  18.061  0.00  0.00    -0.041 A 
ATOM      3  C   UNL     1       2.205   9.127  18.091  0.00  0.00    -0.055 A 
ATOM      4  C   UNL     1       2.009   8.253  19.143  0.00  0.00    -0.024 A 
ATOM      5  C   UNL     1       1.081   8.548  20.143  0.00  0.00    -0.041 A 
ATOM      6  C   UNL     1       0.345   9.727  20.120  0.00  0.00    -0.037 A 
ATOM      7  C   UNL     1       1.074   7.484  21.199  0.00  0.00    -0.025 C 
ATOM      8  C   UNL     1       1.767   6.324  20.466  0.00  0.00    -0.026 C 
ATOM      9  C   UNL     1       2.722   6.964  19.439  0.00  0.00    +0.050 C 
ATOM     10  H   UNL     1       1.604  10.989  17.222  0.00  0.00    +0.064 HD
ATOM     11  H   UNL     1       2.922   8.914  17.307  0.00  0.00    +0.062 HD
ATOM     12  H   UNL     1      -0.364   9.911  20.916  0.00  0.00    +0.064 HD
ATOM     13  H   UNL     1       0.061   7.210  21.514  0.00  0.00    +0.031 HD
ATOM     14  H   UNL     1       1.659   7.811  22.065  0.00  0.00    +0.031 HD
ATOM     15  H   UNL     1       1.004   5.719  19.955  0.00  0.00    +0.029 HD
ATOM     16  H   UNL     1       2.292   5.653  21.155  0.00  0.00    +0.029 HD
ATOM     17  H   UNL     1       3.695   7.176  19.902  0.00  0.00    +0.055 HD
ENDROOT
BRANCH   9  18
ATOM     18  N   UNL     1       2.897   6.144  18.264  0.00  0.00    -0.293 N 
ATOM     19  C   UNL     1       3.882   5.192  18.228  0.00  0.00    +0.300 C 
ATOM     20  O   UNL     1       4.717   5.033  19.107  0.00  0.00    -0.253 OA
ATOM     21  N   UNL     1       3.815   4.453  17.074  0.00  0.00    -0.295 N 
ATOM     22  H   UNL     1       2.057   5.924  17.751  0.00  0.00    +0.151 HD
ATOM     23  H   UNL     1       3.451   4.973  16.288  0.00  0.00    +0.151 HD
BRANCH  21  24
ATOM     24  C   UNL     1       4.856   3.493  16.754  0.00  0.00    +0.039 C 
ATOM     25  H   UNL     1       4.386   2.513  16.632  0.00  0.00    +0.051 HD
ATOM     26  H   UNL     1       5.509   3.422  17.633  0.00  0.00    +0.051 HD
BRANCH  24  27
ATOM     27  C   UNL     1       5.702   3.904  15.573  0.00  0.00    -0.018 A 
ATOM     28  C   UNL     1       5.287   3.554  14.272  0.00  0.00    -0.054 A 
ATOM     29  C   UNL     1       6.020   3.962  13.155  0.00  0.00    -0.026 A 
ATOM     30  C   UNL     1       7.165   4.732  13.325  0.00  0.00    +0.124 A 
ATOM     31  F   UNL     1       7.859   5.125  12.249  0.00  0.00    -0.205 F 
ATOM     32  C   UNL     1       7.600   5.095  14.590  0.00  0.00    -0.014 A 
ATOM     33  C   UNL     1       6.877   4.669  15.709  0.00  0.00    +0.044 A 
ATOM     34  H   UNL     1       4.387   2.959  14.126  0.00  0.00    +0.062 HD
ATOM     35  H   UNL     1       5.704   3.687  12.153  0.00  0.00    +0.065 HD
ATOM     36  H   UNL     1       8.499   5.697  14.700  0.00  0.00    +0.065 HD
BRANCH  33  37
ATOM     37  C   UNL     1       7.411   5.066  17.024  0.00  0.00    +0.242 C 
ATOM     38  N   UNL     1       8.075   4.088  17.701  0.00  0.00    -0.325 N 
ATOM     39  O   UNL     1       7.277   6.207  17.444  0.00  0.00    -0.270 OA
ATOM     40  H   UNL     1       8.004   3.105  17.426  0.00  0.00    +0.145 HD
ATOM     41  H   UNL     1       8.367   4.278  18.647  0.00  0.00    +0.145 HD
ENDBRANCH  33  37
ENDBRANCH  24  27
ENDBRANCH  21  24
ENDBRANCH   9  18
BRANCH   1  42
ATOM     42  N   UNL     1      -0.156  11.854  18.947  0.00  0.00    -0.337 N 
ATOM     43  H   UNL     1      -0.044  12.209  17.997  0.00  0.00    +0.147 HD
BRANCH  42  44
ATOM     44  C   UNL     1      -0.026  12.927  19.944  0.00  0.00    +0.046 C 
ATOM     45  H   UNL     1       0.039  12.502  20.954  0.00  0.00    +0.055 HD
BRANCH  44  46
ATOM     46  C   UNL     1       1.254  13.703  19.678  0.00  0.00    +0.008 A 
ATOM     47  C   UNL     1       1.767  13.873  18.378  0.00  0.00    -0.054 A 
ATOM     48  C   UNL     1       2.949  14.589  18.163  0.00  0.00    -0.061 A 
ATOM     49  C   UNL     1       3.639  15.145  19.243  0.00  0.00    -0.059 A 
ATOM     50  C   UNL     1       3.140  14.990  20.535  0.00  0.00    -0.026 A 
ATOM     51  C   UNL     1       1.958  14.281  20.741  0.00  0.00    +0.128 A 
ATOM     52  F   UNL     1       1.494  14.168  21.995  0.00  0.00    -0.205 F 
ATOM     53  H   UNL     1       1.242  13.443  17.523  0.00  0.00    +0.062 HD
ATOM     54  H   UNL     1       3.336  14.709  17.153  0.00  0.00    +0.062 HD
ATOM     55  H   UNL     1       4.559  15.702  19.075  0.00  0.00    +0.062 HD
ATOM     56  H   UNL     1       3.661  15.419  21.386  0.00  0.00    +0.065 HD
ENDBRANCH  44  46
BRANCH  44  57
ATOM     57  C   UNL     1      -1.240  13.859  19.866  0.00  0.00    -0.042 C 
ATOM     58  H   UNL     1      -1.706  13.815  18.876  0.00  0.00    +0.025 HD
ATOM     59  H   UNL     1      -2.003  13.596  20.607  0.00  0.00    +0.025 HD
ATOM     60  H   UNL     1      -0.956  14.899  20.057  0.00  0.00    +0.025 HD
ENDBRANCH  44  57
ENDBRANCH  42  44
ENDBRANCH   1  42
TORSDOF 8
ENDMDL
MODEL 7
REMARK VINA RESULT:    -8.875      4.015     11.035
REMARK INTER + INTRA:         -12.875
REMARK INTER:                 -12.013
REMARK INTRA:                  -0.862
REMARK UNBOUND:                -0.109
REMARK  Name = 
REMARK  8 active torsions:
REMARK  status: ('A' for Active; 'I' for Inactive)
REMARK    1  A    between atoms: C_1  and  C_2
REMARK    2  A    between atoms: C_2  and  N_3
REMARK    3  A    between atoms: C_2  and  C_28
REMARK    4  A    between atoms: N_3  and  C_4
REMARK    5  A    between atoms: C_12  and  N_13
REMARK    6  A    between atoms: N_16  and  C_17
REMARK    7  A    between atoms: C_17  and  C_18
REMARK    8  A    between atoms: C_24  and  C_25
REMARK                            x       y       z     vdW  Elec       q    Type
REMARK                         _______ _______ _______ _____ _____    ______ ____
ROOT
ATOM      1  C   UNL     1       2.477   4.890  18.864  0.00  0.00    +0.028 A 
ATOM      2  C   UNL     1       2.046   5.027  20.202  0.00  0.00    -0.041 A 
ATOM      3  C   UNL     1       1.740   6.273  20.759  0.00  0.00    -0.055 A 
ATOM      4  C   UNL     1       1.827   7.394  19.954  0.00  0.00    -0.024 A 
ATOM      5  C   UNL     1       2.203   7.274  18.615  0.00  0.00    -0.041 A 
ATOM      6  C   UNL     1       2.515   6.038  18.061  0.00  0.00    -0.037 A 
ATOM      7  C   UNL     1       2.273   8.619  17.957  0.00  0.00    -0.025 C 
ATOM      8  C   UNL     1       1.456   9.479  18.933  0.00  0.00    -0.026 C 
ATOM      9  C   UNL     1       1.619   8.834  20.325  0.00  0.00    +0.050 C 
ATOM     10  H   UNL     1       1.960   4.145  20.833  0.00  0.00    +0.064 HD
ATOM     11  H   UNL     1       1.451   6.348  21.801  0.00  0.00    +0.062 HD
ATOM     12  H   UNL     1       2.799   5.996  17.018  0.00  0.00    +0.064 HD
ATOM     13  H   UNL     1       1.829   8.620  16.955  0.00  0.00    +0.031 HD
ATOM     14  H   UNL     1       3.313   8.957  17.905  0.00  0.00    +0.031 HD
ATOM     15  H   UNL     1       0.401   9.465  18.624  0.00  0.00    +0.029 HD
ATOM     16  H   UNL     1       1.773  10.528  18.926  0.00  0.00    +0.029 HD
ATOM     17  H   UNL     1       2.516   9.223  20.824  0.00  0.00    +0.055 HD
ENDROOT
BRANCH   9  18
ATOM     18  N   UNL     1       0.458   9.031  21.161  0.00  0.00    -0.293 N 
ATOM     19  C   UNL     1       0.161  10.277  21.646  0.00  0.00    +0.300 C 
ATOM     20  O   UNL     1       0.873  11.260  21.499  0.00  0.00    -0.253 OA
ATOM     21  N   UNL     1      -1.030  10.273  22.327  0.00  0.00    -0.295 N 
ATOM     22  H   UNL     1      -0.333   8.437  20.964  0.00  0.00    +0.151 HD
ATOM     23  H   UNL     1      -1.232   9.389  22.772  0.00  0.00    +0.151 HD
BRANCH  21  24
ATOM     24  C   UNL     1      -1.464  11.450  23.058  0.00  0.00    +0.039 C 
ATOM     25  H   UNL     1      -0.571  11.992  23.384  0.00  0.00    +0.051 HD
ATOM     26  H   UNL     1      -1.968  11.097  23.965  0.00  0.00    +0.051 HD
BRANCH  24  27
ATOM     27  C   UNL     1      -2.436  12.306  22.282  0.00  0.00    -0.018 A 
ATOM     28  C   UNL     1      -2.291  12.422  20.885  0.00  0.00    -0.054 A 
ATOM     29  C   UNL     1      -3.203  13.166  20.133  0.00  0.00    -0.026 A 
ATOM     30  C   UNL     1      -4.273  13.790  20.764  0.00  0.00    +0.124 A 
ATOM     31  F   UNL     1      -5.147  14.496  20.035  0.00  0.00    -0.205 F 
ATOM     32  C   UNL     1      -4.446  13.694  22.136  0.00  0.00    -0.014 A 
ATOM     33  C   UNL     1      -3.521  12.966  22.892  0.00  0.00    +0.044 A 
ATOM     34  H   UNL     1      -1.462  11.932  20.378  0.00  0.00    +0.062 HD
ATOM     35  H   UNL     1      -3.087  13.261  19.057  0.00  0.00    +0.065 HD
ATOM     36  H   UNL     1      -5.289  14.191  22.610  0.00  0.00    +0.065 HD
BRANCH  33  37
ATOM     37  C   UNL     1      -3.748  12.930  24.347  0.00  0.00    +0.242 C 
ATOM     38  N   UNL     1      -4.511  11.892  24.792  0.00  0.00    -0.325 N 
ATOM     39  O   UNL     1      -3.256  13.771  25.087  0.00  0.00    -0.270 OA
ATOM     40  H   UNL     1      -5.068  11.324  24.148  0.00  0.00    +0.145 HD
ATOM     41  H   UNL     1      -4.782  11.882  25.762  0.00  0.00    +0.145 HD
ENDBRANCH  33  37
ENDBRANCH  24  27
ENDBRANCH  21  24
ENDBRANCH   9  18
BRANCH   1  42
ATOM     42  N   UNL     1       2.738   3.592  18.402  0.00  0.00    -0.337 N 
ATOM     43  H   UNL     1       2.003   2.960  18.720  0.00  0.00    +0.147 HD
BRANCH  42  44
ATOM     44  C   UNL     1       4.071   2.991  18.556  0.00  0.00    +0.046 C 
ATOM     45  H   UNL     1       4.194   2.154  17.857  0.00  0.00    +0.055 HD
BRANCH  44  46
ATOM     46  C   UNL     1       5.129   4.033  18.231  0.00  0.00    +0.008 A 
ATOM     47  C   UNL     1       5.822   4.732  19.238  0.00  0.00    -0.054 A 
ATOM     48  C   UNL     1       6.787   5.689  18.910  0.00  0.00    -0.061 A 
ATOM     49  C   UNL     1       7.075   5.966  17.572  0.00  0.00    -0.059 A 
ATOM     50  C   UNL     1       6.402   5.278  16.564  0.00  0.00    -0.026 A 
ATOM     51  C   UNL     1       5.444   4.321  16.898  0.00  0.00    +0.128 A 
ATOM     52  F   UNL     1       4.830   3.662  15.904  0.00  0.00    -0.205 F 
ATOM     53  H   UNL     1       5.608   4.531  20.289  0.00  0.00    +0.062 HD
ATOM     54  H   UNL     1       7.313   6.224  19.699  0.00  0.00    +0.062 HD
ATOM     55  H   UNL     1       7.827   6.711  17.317  0.00  0.00    +0.062 HD
ATOM     56  H   UNL     1       6.615   5.477  15.518  0.00  0.00    +0.065 HD
ENDBRANCH  44  46
BRANCH  44  57
ATOM     57  C   UNL     1       4.249   2.480  19.990  0.00  0.00    -0.042 C 
ATOM     58  H   UNL     1       3.297   2.485  20.530  0.00  0.00    +0.025 HD
ATOM     59  H   UNL     1       4.641   1.458  20.012  0.00  0.00    +0.025 HD
ATOM     60  H   UNL     1       4.954   3.105  20.549  0.00  0.00    +0.025 HD
ENDBRANCH  44  57
ENDBRANCH  42  44
ENDBRANCH   1  42
TORSDOF 8
ENDMDL
MODEL 8
REMARK VINA RESULT:    -8.794      2.715      9.265
REMARK INTER + INTRA:         -12.759
REMARK INTER:                 -12.348
REMARK INTRA:                  -0.412
REMARK UNBOUND:                -0.109
REMARK  Name = 
REMARK  8 active torsions:
REMARK  status: ('A' for Active; 'I' for Inactive)
REMARK    1  A    between atoms: C_1  and  C_2
REMARK    2  A    between atoms: C_2  and  N_3
REMARK    3  A    between atoms: C_2  and  C_28
REMARK    4  A    between atoms: N_3  and  C_4
REMARK    5  A    between atoms: C_12  and  N_13
REMARK    6  A    between atoms: N_16  and  C_17
REMARK    7  A    between atoms: C_17  and  C_18
REMARK    8  A    between atoms: C_24  and  C_25
REMARK                            x       y       z     vdW  Elec       q    Type
REMARK                         _______ _______ _______ _____ _____    ______ ____
ROOT
ATOM      1  C   UNL     1       4.114   3.174  17.274  0.00  0.00    +0.028 A 
ATOM      2  C   UNL     1       2.974   3.976  17.049  0.00  0.00    -0.041 A 
ATOM      3  C   UNL     1       1.987   4.153  18.026  0.00  0.00    -0.055 A 
ATOM      4  C   UNL     1       2.165   3.553  19.258  0.00  0.00    -0.024 A 
ATOM      5  C   UNL     1       3.310   2.797  19.517  0.00  0.00    -0.041 A 
ATOM      6  C   UNL     1       4.288   2.613  18.547  0.00  0.00    -0.037 A 
ATOM      7  C   UNL     1       3.262   2.209  20.895  0.00  0.00    -0.025 C 
ATOM      8  C   UNL     1       2.186   3.080  21.562  0.00  0.00    -0.026 C 
ATOM      9  C   UNL     1       1.234   3.535  20.437  0.00  0.00    +0.050 C 
ATOM     10  H   UNL     1       2.839   4.463  16.086  0.00  0.00    +0.064 HD
ATOM     11  H   UNL     1       1.104   4.742  17.807  0.00  0.00    +0.062 HD
ATOM     12  H   UNL     1       5.158   2.021  18.795  0.00  0.00    +0.064 HD
ATOM     13  H   UNL     1       4.222   2.287  21.418  0.00  0.00    +0.031 HD
ATOM     14  H   UNL     1       2.949   1.161  20.844  0.00  0.00    +0.031 HD
ATOM     15  H   UNL     1       2.671   3.950  22.029  0.00  0.00    +0.029 HD
ATOM     16  H   UNL     1       1.656   2.547  22.359  0.00  0.00    +0.029 HD
ATOM     17  H   UNL     1       0.447   2.787  20.276  0.00  0.00    +0.055 HD
ENDROOT
BRANCH   9  18
ATOM     18  N   UNL     1       0.647   4.828  20.701  0.00  0.00    -0.293 N 
ATOM     19  C   UNL     1       1.445   5.935  20.819  0.00  0.00    +0.300 C 
ATOM     20  O   UNL     1       2.667   5.908  20.809  0.00  0.00    -0.253 OA
ATOM     21  N   UNL     1       0.692   7.074  20.963  0.00  0.00    -0.295 N 
ATOM     22  H   UNL     1      -0.267   4.986  20.305  0.00  0.00    +0.151 HD
ATOM     23  H   UNL     1      -0.189   6.913  21.429  0.00  0.00    +0.151 HD
BRANCH  21  24
ATOM     24  C   UNL     1       1.330   8.344  21.260  0.00  0.00    +0.039 C 
ATOM     25  H   UNL     1       2.405   8.228  21.097  0.00  0.00    +0.051 HD
ATOM     26  H   UNL     1       1.192   8.529  22.332  0.00  0.00    +0.051 HD
BRANCH  24  27
ATOM     27  C   UNL     1       0.729   9.502  20.501  0.00  0.00    -0.018 A 
ATOM     28  C   UNL     1       1.068   9.690  19.147  0.00  0.00    -0.054 A 
ATOM     29  C   UNL     1       0.492  10.723  18.403  0.00  0.00    -0.026 A 
ATOM     30  C   UNL     1      -0.437  11.568  19.000  0.00  0.00    +0.124 A 
ATOM     31  F   UNL     1      -0.990  12.552  18.279  0.00  0.00    -0.205 F 
ATOM     32  C   UNL     1      -0.794  11.411  20.330  0.00  0.00    -0.014 A 
ATOM     33  C   UNL     1      -0.201  10.389  21.080  0.00  0.00    +0.044 A 
ATOM     34  H   UNL     1       1.787   9.029  18.666  0.00  0.00    +0.062 HD
ATOM     35  H   UNL     1       0.758  10.871  17.360  0.00  0.00    +0.065 HD
ATOM     36  H   UNL     1      -1.521  12.084  20.777  0.00  0.00    +0.065 HD
BRANCH  33  37
ATOM     37  C   UNL     1      -0.604  10.297  22.494  0.00  0.00    +0.242 C 
ATOM     38  N   UNL     1      -0.926  11.481  23.085  0.00  0.00    -0.325 N 
ATOM     39  O   UNL     1      -0.662   9.218  23.067  0.00  0.00    -0.270 OA
ATOM     40  H   UNL     1      -0.685  12.377  22.654  0.00  0.00    +0.145 HD
ATOM     41  H   UNL     1      -1.106  11.484  24.077  0.00  0.00    +0.145 HD
ENDBRANCH  33  37
ENDBRANCH  24  27
ENDBRANCH  21  24
ENDBRANCH   9  18
BRANCH   1  42
ATOM     42  N   UNL     1       5.050   3.081  16.234  0.00  0.00    -0.337 N 
ATOM     43  H   UNL     1       5.825   2.484  16.521  0.00  0.00    +0.147 HD
BRANCH  42  44
ATOM     44  C   UNL     1       5.526   4.287  15.538  0.00  0.00    +0.046 C 
ATOM     45  H   UNL     1       4.675   4.873  15.168  0.00  0.00    +0.055 HD
BRANCH  44  46
ATOM     46  C   UNL     1       6.302   5.154  16.516  0.00  0.00    +0.008 A 
ATOM     47  C   UNL     1       7.279   4.616  17.376  0.00  0.00    -0.054 A 
ATOM     48  C   UNL     1       7.976   5.437  18.269  0.00  0.00    -0.061 A 
ATOM     49  C   UNL     1       7.707   6.806  18.319  0.00  0.00    -0.059 A 
ATOM     50  C   UNL     1       6.748   7.353  17.469  0.00  0.00    -0.026 A 
ATOM     51  C   UNL     1       6.061   6.531  16.577  0.00  0.00    +0.128 A 
ATOM     52  F   UNL     1       5.159   7.093  15.759  0.00  0.00    -0.205 F 
ATOM     53  H   UNL     1       7.500   3.548  17.353  0.00  0.00    +0.062 HD
ATOM     54  H   UNL     1       8.725   5.007  18.931  0.00  0.00    +0.062 HD
ATOM     55  H   UNL     1       8.250   7.444  19.014  0.00  0.00    +0.062 HD
ATOM     56  H   UNL     1       6.529   8.417  17.491  0.00  0.00    +0.065 HD
ENDBRANCH  44  46
BRANCH  44  57
ATOM     57  C   UNL     1       6.416   3.888  14.356  0.00  0.00    -0.042 C 
ATOM     58  H   UNL     1       6.989   4.746  13.988  0.00  0.00    +0.025 HD
ATOM     59  H   UNL     1       7.128   3.103  14.630  0.00  0.00    +0.025 HD
ATOM     60  H   UNL     1       5.820   3.502  13.522  0.00  0.00    +0.025 HD
ENDBRANCH  44  57
ENDBRANCH  42  44
ENDBRANCH   1  42
TORSDOF 8
ENDMDL
MODEL 9
REMARK VINA RESULT:    -8.770      3.270     10.128
REMARK INTER + INTRA:         -12.724
REMARK INTER:                 -11.671
REMARK INTRA:                  -1.052
REMARK UNBOUND:                -0.109
REMARK  Name = 
REMARK  8 active torsions:
REMARK  status: ('A' for Active; 'I' for Inactive)
REMARK    1  A    between atoms: C_1  and  C_2
REMARK    2  A    between atoms: C_2  and  N_3
REMARK    3  A    between atoms: C_2  and  C_28
REMARK    4  A    between atoms: N_3  and  C_4
REMARK    5  A    between atoms: C_12  and  N_13
REMARK    6  A    between atoms: N_16  and  C_17
REMARK    7  A    between atoms: C_17  and  C_18
REMARK    8  A    between atoms: C_24  and  C_25
REMARK                            x       y       z     vdW  Elec       q    Type
REMARK                         _______ _______ _______ _____ _____    ______ ____
ROOT
ATOM      1  C   UNL     1       4.104   5.252  17.160  0.00  0.00    +0.028 A 
ATOM      2  C   UNL     1       3.813   6.633  17.145  0.00  0.00    -0.041 A 
ATOM      3  C   UNL     1       2.956   7.220  18.082  0.00  0.00    -0.055 A 
ATOM      4  C   UNL     1       2.414   6.422  19.071  0.00  0.00    -0.024 A 
ATOM      5  C   UNL     1       2.728   5.063  19.132  0.00  0.00    -0.041 A 
ATOM      6  C   UNL     1       3.574   4.475  18.199  0.00  0.00    -0.037 A 
ATOM      7  C   UNL     1       1.991   4.393  20.253  0.00  0.00    -0.025 C 
ATOM      8  C   UNL     1       1.576   5.600  21.108  0.00  0.00    -0.026 C 
ATOM      9  C   UNL     1       1.426   6.791  20.140  0.00  0.00    +0.050 C 
ATOM     10  H   UNL     1       4.252   7.268  16.378  0.00  0.00    +0.064 HD
ATOM     11  H   UNL     1       2.722   8.277  18.018  0.00  0.00    +0.062 HD
ATOM     12  H   UNL     1       3.789   3.418  18.289  0.00  0.00    +0.064 HD
ATOM     13  H   UNL     1       2.625   3.701  20.818  0.00  0.00    +0.031 HD
ATOM     14  H   UNL     1       1.116   3.864  19.862  0.00  0.00    +0.031 HD
ATOM     15  H   UNL     1       2.365   5.802  21.847  0.00  0.00    +0.029 HD
ATOM     16  H   UNL     1       0.656   5.411  21.673  0.00  0.00    +0.029 HD
ATOM     17  H   UNL     1       0.413   6.816  19.718  0.00  0.00    +0.055 HD
ENDROOT
BRANCH   9  18
ATOM     18  N   UNL     1       1.735   8.054  20.769  0.00  0.00    -0.293 N 
ATOM     19  C   UNL     1       1.122   9.203  20.344  0.00  0.00    +0.300 C 
ATOM     20  O   UNL     1       0.374   9.268  19.380  0.00  0.00    -0.253 OA
ATOM     21  N   UNL     1       1.469  10.270  21.134  0.00  0.00    -0.295 N 
ATOM     22  H   UNL     1       1.957   8.014  21.752  0.00  0.00    +0.151 HD
ATOM     23  H   UNL     1       2.396  10.191  21.527  0.00  0.00    +0.151 HD
BRANCH  21  24
ATOM     24  C   UNL     1       1.060  11.616  20.774  0.00  0.00    +0.039 C 
ATOM     25  H   UNL     1       1.309  11.774  19.720  0.00  0.00    +0.051 HD
ATOM     26  H   UNL     1       1.684  12.307  21.352  0.00  0.00    +0.051 HD
BRANCH  24  27
ATOM     27  C   UNL     1      -0.386  11.904  21.097  0.00  0.00    -0.018 A 
ATOM     28  C   UNL     1      -0.840  11.751  22.423  0.00  0.00    -0.054 A 
ATOM     29  C   UNL     1      -2.160  12.058  22.765  0.00  0.00    -0.026 A 
ATOM     30  C   UNL     1      -3.033  12.530  21.792  0.00  0.00    +0.124 A 
ATOM     31  F   UNL     1      -4.295  12.828  22.129  0.00  0.00    -0.205 F 
ATOM     32  C   UNL     1      -2.619  12.693  20.479  0.00  0.00    -0.014 A 
ATOM     33  C   UNL     1      -1.303  12.367  20.133  0.00  0.00    +0.044 A 
ATOM     34  H   UNL     1      -0.163  11.390  23.195  0.00  0.00    +0.062 HD
ATOM     35  H   UNL     1      -2.511  11.934  23.785  0.00  0.00    +0.065 HD
ATOM     36  H   UNL     1      -3.319  13.063  19.734  0.00  0.00    +0.065 HD
BRANCH  33  37
ATOM     37  C   UNL     1      -0.938  12.537  18.716  0.00  0.00    +0.242 C 
ATOM     38  N   UNL     1      -1.171  11.455  17.922  0.00  0.00    -0.325 N 
ATOM     39  O   UNL     1      -0.483  13.593  18.300  0.00  0.00    -0.270 OA
ATOM     40  H   UNL     1      -1.362  10.531  18.319  0.00  0.00    +0.145 HD
ATOM     41  H   UNL     1      -0.842  11.483  16.970  0.00  0.00    +0.145 HD
ENDBRANCH  33  37
ENDBRANCH  24  27
ENDBRANCH  21  24
ENDBRANCH   9  18
BRANCH   1  42
ATOM     42  N   UNL     1       4.993   4.771  16.187  0.00  0.00    -0.337 N 
ATOM     43  H   UNL     1       5.320   3.842  16.450  0.00  0.00    +0.147 HD
BRANCH  42  44
ATOM     44  C   UNL     1       6.093   5.611  15.691  0.00  0.00    +0.046 C 
ATOM     45  H   UNL     1       5.695   6.476  15.146  0.00  0.00    +0.055 HD
BRANCH  44  46
ATOM     46  C   UNL     1       6.897   6.130  16.872  0.00  0.00    +0.008 A 
ATOM     47  C   UNL     1       7.245   7.489  16.998  0.00  0.00    -0.054 A 
ATOM     48  C   UNL     1       7.989   7.938  18.094  0.00  0.00    -0.061 A 
ATOM     49  C   UNL     1       8.399   7.038  19.080  0.00  0.00    -0.059 A 
ATOM     50  C   UNL     1       8.056   5.692  18.972  0.00  0.00    -0.026 A 
ATOM     51  C   UNL     1       7.309   5.252  17.880  0.00  0.00    +0.128 A 
ATOM     52  F   UNL     1       6.978   3.953  17.817  0.00  0.00    -0.205 F 
ATOM     53  H   UNL     1       6.936   8.206  16.236  0.00  0.00    +0.062 HD
ATOM     54  H   UNL     1       8.255   8.990  18.176  0.00  0.00    +0.062 HD
ATOM     55  H   UNL     1       8.978   7.389  19.933  0.00  0.00    +0.062 HD
ATOM     56  H   UNL     1       8.363   4.978  19.731  0.00  0.00    +0.065 HD
ENDBRANCH  44  46
BRANCH  44  57
ATOM     57  C   UNL     1       6.990   4.794  14.754  0.00  0.00    -0.042 C 
ATOM     58  H   UNL     1       7.128   3.775  15.132  0.00  0.00    +0.025 HD
ATOM     59  H   UNL     1       6.568   4.723  13.746  0.00  0.00    +0.025 HD
ATOM     60  H   UNL     1       7.981   5.251  14.655  0.00  0.00    +0.025 HD
ENDBRANCH  44  57
ENDBRANCH  42  44
ENDBRANCH   1  42
TORSDOF 8
ENDMDL
MODEL 10
REMARK VINA RESULT:    -8.655      3.134     10.636
REMARK INTER + INTRA:         -12.559
REMARK INTER:                 -11.873
REMARK INTRA:                  -0.686
REMARK UNBOUND:                -0.109
REMARK  Name = 
REMARK  8 active torsions:
REMARK  status: ('A' for Active; 'I' for Inactive)
REMARK    1  A    between atoms: C_1  and  C_2
REMARK    2  A    between atoms: C_2  and  N_3
REMARK    3  A    between atoms: C_2  and  C_28
REMARK    4  A    between atoms: N_3  and  C_4
REMARK    5  A    between atoms: C_12  and  N_13
REMARK    6  A    between atoms: N_16  and  C_17
REMARK    7  A    between atoms: C_17  and  C_18
REMARK    8  A    between atoms: C_24  and  C_25
REMARK                            x       y       z     vdW  Elec       q    Type
REMARK                         _______ _______ _______ _____ _____    ______ ____
ROOT
ATOM      1  C   UNL     1       4.303   6.145  17.096  0.00  0.00    +0.028 A 
ATOM      2  C   UNL     1       3.855   7.476  17.234  0.00  0.00    -0.041 A 
ATOM      3  C   UNL     1       2.904   7.843  18.193  0.00  0.00    -0.055 A 
ATOM      4  C   UNL     1       2.428   6.872  19.052  0.00  0.00    -0.024 A 
ATOM      5  C   UNL     1       2.896   5.559  18.964  0.00  0.00    -0.041 A 
ATOM      6  C   UNL     1       3.834   5.190  18.008  0.00  0.00    -0.037 A 
ATOM      7  C   UNL     1       2.206   4.677  19.961  0.00  0.00    -0.025 C 
ATOM      8  C   UNL     1       1.625   5.714  20.935  0.00  0.00    -0.026 C 
ATOM      9  C   UNL     1       1.369   6.993  20.111  0.00  0.00    +0.050 C 
ATOM     10  H   UNL     1       4.241   8.247  16.569  0.00  0.00    +0.064 HD
ATOM     11  H   UNL     1       2.551   8.866  18.245  0.00  0.00    +0.062 HD
ATOM     12  H   UNL     1       4.168   4.161  17.981  0.00  0.00    +0.064 HD
ATOM     13  H   UNL     1       2.897   3.995  20.468  0.00  0.00    +0.031 HD
ATOM     14  H   UNL     1       1.411   4.106  19.469  0.00  0.00    +0.031 HD
ATOM     15  H   UNL     1       2.361   5.910  21.728  0.00  0.00    +0.029 HD
ATOM     16  H   UNL     1       0.716   5.355  21.430  0.00  0.00    +0.029 HD
ATOM     17  H   UNL     1       0.374   6.956  19.648  0.00  0.00    +0.055 HD
ENDROOT
BRANCH   9  18
ATOM     18  N   UNL     1       1.508   8.194  20.901  0.00  0.00    -0.293 N 
ATOM     19  C   UNL     1       0.872   9.345  20.521  0.00  0.00    +0.300 C 
ATOM     20  O   UNL     1       0.245   9.474  19.479  0.00  0.00    -0.253 OA
ATOM     21  N   UNL     1       1.042  10.337  21.454  0.00  0.00    -0.295 N 
ATOM     22  H   UNL     1       1.611   8.058  21.895  0.00  0.00    +0.151 HD
ATOM     23  H   UNL     1       1.918  10.268  21.953  0.00  0.00    +0.151 HD
BRANCH  21  24
ATOM     24  C   UNL     1       0.586  11.688  21.183  0.00  0.00    +0.039 C 
ATOM     25  H   UNL     1       0.776  11.904  20.128  0.00  0.00    +0.051 HD
ATOM     26  H   UNL     1       1.225  12.365  21.763  0.00  0.00    +0.051 HD
BRANCH  24  27
ATOM     27  C   UNL     1      -0.847  11.925  21.596  0.00  0.00    -0.018 A 
ATOM     28  C   UNL     1      -1.231  11.674  22.928  0.00  0.00    -0.054 A 
ATOM     29  C   UNL     1      -2.537  11.931  23.354  0.00  0.00    -0.026 A 
ATOM     30  C   UNL     1      -3.466  12.450  22.460  0.00  0.00    +0.124 A 
ATOM     31  F   UNL     1      -4.714  12.699  22.877  0.00  0.00    -0.205 F 
ATOM     32  C   UNL     1      -3.120  12.709  21.143  0.00  0.00    -0.014 A 
ATOM     33  C   UNL     1      -1.818  12.434  20.711  0.00  0.00    +0.044 A 
ATOM     34  H   UNL     1      -0.511  11.276  23.640  0.00  0.00    +0.062 HD
ATOM     35  H   UNL     1      -2.835  11.732  24.380  0.00  0.00    +0.065 HD
ATOM     36  H   UNL     1      -3.863  13.114  20.459  0.00  0.00    +0.065 HD
BRANCH  33  37
ATOM     37  C   UNL     1      -1.527  12.705  19.293  0.00  0.00    +0.242 C 
ATOM     38  N   UNL     1      -1.011  13.938  19.031  0.00  0.00    -0.325 N 
ATOM     39  O   UNL     1      -1.721  11.858  18.432  0.00  0.00    -0.270 OA
ATOM     40  H   UNL     1      -1.042  14.690  19.725  0.00  0.00    +0.145 HD
ATOM     41  H   UNL     1      -0.894  14.211  18.068  0.00  0.00    +0.145 HD
ENDBRANCH  33  37
ENDBRANCH  24  27
ENDBRANCH  21  24
ENDBRANCH   9  18
BRANCH   1  42
ATOM     42  N   UNL     1       5.274   5.891  16.114  0.00  0.00    -0.337 N 
ATOM     43  H   UNL     1       4.969   6.279  15.222  0.00  0.00    +0.147 HD
BRANCH  42  44
ATOM     44  C   UNL     1       5.847   4.546  15.951  0.00  0.00    +0.046 C 
ATOM     45  H   UNL     1       5.113   3.783  16.239  0.00  0.00    +0.055 HD
BRANCH  44  46
ATOM     46  C   UNL     1       6.202   4.329  14.489  0.00  0.00    +0.008 A 
ATOM     47  C   UNL     1       5.452   3.473  13.659  0.00  0.00    -0.054 A 
ATOM     48  C   UNL     1       5.805   3.288  12.318  0.00  0.00    -0.061 A 
ATOM     49  C   UNL     1       6.911   3.953  11.786  0.00  0.00    -0.059 A 
ATOM     50  C   UNL     1       7.659   4.807  12.594  0.00  0.00    -0.026 A 
ATOM     51  C   UNL     1       7.299   4.991  13.928  0.00  0.00    +0.128 A 
ATOM     52  F   UNL     1       8.027   5.837  14.673  0.00  0.00    -0.205 F 
ATOM     53  H   UNL     1       4.586   2.944  14.059  0.00  0.00    +0.062 HD
ATOM     54  H   UNL     1       5.218   2.621  11.689  0.00  0.00    +0.062 HD
ATOM     55  H   UNL     1       7.185   3.808  10.742  0.00  0.00    +0.062 HD
ATOM     56  H   UNL     1       8.521   5.335  12.196  0.00  0.00    +0.065 HD
ENDBRANCH  44  46
BRANCH  44  57
ATOM     57  C   UNL     1       7.094   4.403  16.830  0.00  0.00    -0.042 C 
ATOM     58  H   UNL     1       6.833   4.436  17.893  0.00  0.00    +0.025 HD
ATOM     59  H   UNL     1       7.617   3.459  16.643  0.00  0.00    +0.025 HD
ATOM     60  H   UNL     1       7.811   5.208  16.636  0.00  0.00    +0.025 HD
ENDBRANCH  44  57
ENDBRANCH  42  44
ENDBRANCH   1  42
TORSDOF 8
ENDMDL
MODEL 11
REMARK VINA RESULT:    -8.592      3.237      9.878
REMARK INTER + INTRA:         -12.468
REMARK INTER:                 -11.330
REMARK INTRA:                  -1.138
REMARK UNBOUND:                -0.109
REMARK  Name = 
REMARK  8 active torsions:
REMARK  status: ('A' for Active; 'I' for Inactive)
REMARK    1  A    between atoms: C_1  and  C_2
REMARK    2  A    between atoms: C_2  and  N_3
REMARK    3  A    between atoms: C_2  and  C_28
REMARK    4  A    between atoms: N_3  and  C_4
REMARK    5  A    between atoms: C_12  and  N_13
REMARK    6  A    between atoms: N_16  and  C_17
REMARK    7  A    between atoms: C_17  and  C_18
REMARK    8  A    between atoms: C_24  and  C_25
REMARK                            x       y       z     vdW  Elec       q    Type
REMARK                         _______ _______ _______ _____ _____    ______ ____
ROOT
ATOM      1  C   UNL     1       4.098   4.980  17.009  0.00  0.00    +0.028 A 
ATOM      2  C   UNL     1       3.647   6.312  17.133  0.00  0.00    -0.041 A 
ATOM      3  C   UNL     1       2.845   6.727  18.202  0.00  0.00    -0.055 A 
ATOM      4  C   UNL     1       2.524   5.806  19.180  0.00  0.00    -0.024 A 
ATOM      5  C   UNL     1       3.000   4.496  19.101  0.00  0.00    -0.041 A 
ATOM      6  C   UNL     1       3.791   4.079  18.038  0.00  0.00    -0.037 A 
ATOM      7  C   UNL     1       2.487   3.670  20.242  0.00  0.00    -0.025 C 
ATOM      8  C   UNL     1       2.038   4.759  21.229  0.00  0.00    -0.026 C 
ATOM      9  C   UNL     1       1.635   5.980  20.378  0.00  0.00    +0.050 C 
ATOM     10  H   UNL     1       3.913   7.044  16.373  0.00  0.00    +0.064 HD
ATOM     11  H   UNL     1       2.482   7.747  18.246  0.00  0.00    +0.062 HD
ATOM     12  H   UNL     1       4.139   3.054  18.022  0.00  0.00    +0.064 HD
ATOM     13  H   UNL     1       3.261   3.029  20.678  0.00  0.00    +0.031 HD
ATOM     14  H   UNL     1       1.639   3.060  19.911  0.00  0.00    +0.031 HD
ATOM     15  H   UNL     1       2.881   5.012  21.888  0.00  0.00    +0.029 HD
ATOM     16  H   UNL     1       1.221   4.420  21.877  0.00  0.00    +0.029 HD
ATOM     17  H   UNL     1       0.582   5.903  20.074  0.00  0.00    +0.055 HD
ENDROOT
BRANCH   9  18
ATOM     18  N   UNL     1       1.865   7.230  21.064  0.00  0.00    -0.293 N 
ATOM     19  C   UNL     1       0.807   8.008  21.453  0.00  0.00    +0.300 C 
ATOM     20  O   UNL     1      -0.360   7.770  21.178  0.00  0.00    -0.253 OA
ATOM     21  N   UNL     1       1.231   9.093  22.178  0.00  0.00    -0.295 N 
ATOM     22  H   UNL     1       2.675   7.259  21.665  0.00  0.00    +0.151 HD
ATOM     23  H   UNL     1       2.151   9.415  21.913  0.00  0.00    +0.151 HD
BRANCH  21  24
ATOM     24  C   UNL     1       0.294  10.135  22.558  0.00  0.00    +0.039 C 
ATOM     25  H   UNL     1       0.643  10.577  23.496  0.00  0.00    +0.051 HD
ATOM     26  H   UNL     1      -0.662   9.643  22.777  0.00  0.00    +0.051 HD
BRANCH  24  27
ATOM     27  C   UNL     1       0.060  11.152  21.467  0.00  0.00    -0.018 A 
ATOM     28  C   UNL     1       0.746  11.019  20.243  0.00  0.00    -0.054 A 
ATOM     29  C   UNL     1       0.515  11.914  19.195  0.00  0.00    -0.026 A 
ATOM     30  C   UNL     1      -0.410  12.940  19.355  0.00  0.00    +0.124 A 
ATOM     31  F   UNL     1      -0.630  13.790  18.344  0.00  0.00    -0.205 F 
ATOM     32  C   UNL     1      -1.101  13.098  20.545  0.00  0.00    -0.014 A 
ATOM     33  C   UNL     1      -0.855  12.214  21.601  0.00  0.00    +0.044 A 
ATOM     34  H   UNL     1       1.465  10.214  20.102  0.00  0.00    +0.062 HD
ATOM     35  H   UNL     1       1.048  11.815  18.253  0.00  0.00    +0.065 HD
ATOM     36  H   UNL     1      -1.819  13.909  20.649  0.00  0.00    +0.065 HD
BRANCH  33  37
ATOM     37  C   UNL     1      -1.603  12.457  22.847  0.00  0.00    +0.242 C 
ATOM     38  N   UNL     1      -1.112  13.454  23.635  0.00  0.00    -0.325 N 
ATOM     39  O   UNL     1      -2.606  11.813  23.120  0.00  0.00    -0.270 OA
ATOM     40  H   UNL     1      -0.175  13.840  23.488  0.00  0.00    +0.145 HD
ATOM     41  H   UNL     1      -1.524  13.589  24.544  0.00  0.00    +0.145 HD
ENDBRANCH  33  37
ENDBRANCH  24  27
ENDBRANCH  21  24
ENDBRANCH   9  18
BRANCH   1  42
ATOM     42  N   UNL     1       4.914   4.677  15.909  0.00  0.00    -0.337 N 
ATOM     43  H   UNL     1       5.117   3.678  15.896  0.00  0.00    +0.147 HD
BRANCH  42  44
ATOM     44  C   UNL     1       6.115   5.475  15.619  0.00  0.00    +0.046 C 
ATOM     45  H   UNL     1       5.832   6.472  15.258  0.00  0.00    +0.055 HD
BRANCH  44  46
ATOM     46  C   UNL     1       6.918   5.651  16.898  0.00  0.00    +0.008 A 
ATOM     47  C   UNL     1       7.400   4.551  17.633  0.00  0.00    -0.054 A 
ATOM     48  C   UNL     1       8.133   4.742  18.810  0.00  0.00    -0.061 A 
ATOM     49  C   UNL     1       8.393   6.034  19.271  0.00  0.00    -0.059 A 
ATOM     50  C   UNL     1       7.928   7.133  18.551  0.00  0.00    -0.026 A 
ATOM     51  C   UNL     1       7.204   6.935  17.376  0.00  0.00    +0.128 A 
ATOM     52  F   UNL     1       6.788   8.014  16.696  0.00  0.00    -0.205 F 
ATOM     53  H   UNL     1       7.203   3.535  17.289  0.00  0.00    +0.062 HD
ATOM     54  H   UNL     1       8.496   3.883  19.369  0.00  0.00    +0.062 HD
ATOM     55  H   UNL     1       8.964   6.182  20.187  0.00  0.00    +0.062 HD
ATOM     56  H   UNL     1       8.125   8.144  18.893  0.00  0.00    +0.065 HD
ENDBRANCH  44  46
BRANCH  44  57
ATOM     57  C   UNL     1       6.961   4.773  14.552  0.00  0.00    -0.042 C 
ATOM     58  H   UNL     1       6.833   3.687  14.600  0.00  0.00    +0.025 HD
ATOM     59  H   UNL     1       6.691   5.097  13.541  0.00  0.00    +0.025 HD
ATOM     60  H   UNL     1       8.027   4.991  14.683  0.00  0.00    +0.025 HD
ENDBRANCH  44  57
ENDBRANCH  42  44
ENDBRANCH   1  42
TORSDOF 8
ENDMDL
MODEL 12
REMARK VINA RESULT:    -8.549      4.390      8.981
REMARK INTER + INTRA:         -12.406
REMARK INTER:                 -11.924
REMARK INTRA:                  -0.482
REMARK UNBOUND:                -0.109
REMARK  Name = 
REMARK  8 active torsions:
REMARK  status: ('A' for Active; 'I' for Inactive)
REMARK    1  A    between atoms: C_1  and  C_2
REMARK    2  A    between atoms: C_2  and  N_3
REMARK    3  A    between atoms: C_2  and  C_28
REMARK    4  A    between atoms: N_3  and  C_4
REMARK    5  A    between atoms: C_12  and  N_13
REMARK    6  A    between atoms: N_16  and  C_17
REMARK    7  A    between atoms: C_17  and  C_18
REMARK    8  A    between atoms: C_24  and  C_25
REMARK                            x       y       z     vdW  Elec       q    Type
REMARK                         _______ _______ _______ _____ _____    ______ ____
ROOT
ATOM      1  C   UNL     1       2.362   7.717  18.811  0.00  0.00    +0.028 A 
ATOM      2  C   UNL     1       1.932   8.657  17.850  0.00  0.00    -0.041 A 
ATOM      3  C   UNL     1       0.972   9.632  18.143  0.00  0.00    -0.055 A 
ATOM      4  C   UNL     1       0.467   9.693  19.428  0.00  0.00    -0.024 A 
ATOM      5  C   UNL     1       0.916   8.804  20.406  0.00  0.00    -0.041 A 
ATOM      6  C   UNL     1       1.863   7.830  20.116  0.00  0.00    -0.037 A 
ATOM      7  C   UNL     1       0.197   9.027  21.703  0.00  0.00    -0.025 C 
ATOM      8  C   UNL     1      -0.383  10.435  21.491  0.00  0.00    -0.026 C 
ATOM      9  C   UNL     1      -0.606  10.592  19.973  0.00  0.00    +0.050 C 
ATOM     10  H   UNL     1       2.341   8.622  16.842  0.00  0.00    +0.064 HD
ATOM     11  H   UNL     1       0.634  10.313  17.371  0.00  0.00    +0.062 HD
ATOM     12  H   UNL     1       2.182   7.165  20.908  0.00  0.00    +0.064 HD
ATOM     13  H   UNL     1       0.869   8.997  22.567  0.00  0.00    +0.031 HD
ATOM     14  H   UNL     1      -0.599   8.284  21.822  0.00  0.00    +0.031 HD
ATOM     15  H   UNL     1       0.344  11.177  21.851  0.00  0.00    +0.029 HD
ATOM     16  H   UNL     1      -1.305  10.593  22.061  0.00  0.00    +0.029 HD
ATOM     17  H   UNL     1      -1.594  10.205  19.690  0.00  0.00    +0.055 HD
ENDROOT
BRANCH   9  18
ATOM     18  N   UNL     1      -0.461  11.960  19.534  0.00  0.00    -0.293 N 
ATOM     19  C   UNL     1       0.505  12.761  20.083  0.00  0.00    +0.300 C 
ATOM     20  O   UNL     1       1.225  12.432  21.014  0.00  0.00    -0.253 OA
ATOM     21  N   UNL     1       0.548  13.983  19.460  0.00  0.00    -0.295 N 
ATOM     22  H   UNL     1      -0.679  12.137  18.565  0.00  0.00    +0.151 HD
ATOM     23  H   UNL     1      -0.349  14.279  19.100  0.00  0.00    +0.151 HD
BRANCH  21  24
ATOM     24  C   UNL     1       1.390  15.045  19.980  0.00  0.00    +0.039 C 
ATOM     25  H   UNL     1       1.383  14.977  21.072  0.00  0.00    +0.051 HD
ATOM     26  H   UNL     1       0.907  15.994  19.720  0.00  0.00    +0.051 HD
BRANCH  24  27
ATOM     27  C   UNL     1       2.779  15.046  19.388  0.00  0.00    -0.018 A 
ATOM     28  C   UNL     1       2.936  15.211  17.997  0.00  0.00    -0.054 A 
ATOM     29  C   UNL     1       4.209  15.267  17.425  0.00  0.00    -0.026 A 
ATOM     30  C   UNL     1       5.335  15.171  18.235  0.00  0.00    +0.124 A 
ATOM     31  F   UNL     1       6.552  15.231  17.679  0.00  0.00    -0.205 F 
ATOM     32  C   UNL     1       5.216  15.009  19.606  0.00  0.00    -0.014 A 
ATOM     33  C   UNL     1       3.941  14.933  20.177  0.00  0.00    +0.044 A 
ATOM     34  H   UNL     1       2.062  15.297  17.354  0.00  0.00    +0.062 HD
ATOM     35  H   UNL     1       4.330  15.388  16.352  0.00  0.00    +0.065 HD
ATOM     36  H   UNL     1       6.110  14.934  20.220  0.00  0.00    +0.065 HD
BRANCH  33  37
ATOM     37  C   UNL     1       3.887  14.731  21.635  0.00  0.00    +0.242 C 
ATOM     38  N   UNL     1       4.877  13.951  22.151  0.00  0.00    -0.325 N 
ATOM     39  O   UNL     1       3.019  15.259  22.317  0.00  0.00    -0.270 OA
ATOM     40  H   UNL     1       5.466  13.367  21.551  0.00  0.00    +0.145 HD
ATOM     41  H   UNL     1       4.825  13.697  23.125  0.00  0.00    +0.145 HD
ENDBRANCH  33  37
ENDBRANCH  24  27
ENDBRANCH  21  24
ENDBRANCH   9  18
BRANCH   1  42
ATOM     42  N   UNL     1       3.343   6.795  18.416  0.00  0.00    -0.337 N 
ATOM     43  H   UNL     1       3.128   6.443  17.483  0.00  0.00    +0.147 HD
BRANCH  42  44
ATOM     44  C   UNL     1       3.767   5.713  19.317  0.00  0.00    +0.046 C 
ATOM     45  H   UNL     1       3.671   6.030  20.363  0.00  0.00    +0.055 HD
BRANCH  44  46
ATOM     46  C   UNL     1       2.866   4.507  19.108  0.00  0.00    +0.008 A 
ATOM     47  C   UNL     1       2.886   3.760  17.915  0.00  0.00    -0.054 A 
ATOM     48  C   UNL     1       2.042   2.657  17.748  0.00  0.00    -0.061 A 
ATOM     49  C   UNL     1       1.165   2.283  18.768  0.00  0.00    -0.059 A 
ATOM     50  C   UNL     1       1.139   3.010  19.957  0.00  0.00    -0.026 A 
ATOM     51  C   UNL     1       1.986   4.105  20.119  0.00  0.00    +0.128 A 
ATOM     52  F   UNL     1       1.951   4.769  21.284  0.00  0.00    -0.205 F 
ATOM     53  H   UNL     1       3.563   4.039  17.106  0.00  0.00    +0.062 HD
ATOM     54  H   UNL     1       2.065   2.090  16.818  0.00  0.00    +0.062 HD
ATOM     55  H   UNL     1       0.509   1.424  18.637  0.00  0.00    +0.062 HD
ATOM     56  H   UNL     1       0.466   2.732  20.763  0.00  0.00    +0.065 HD
ENDBRANCH  44  46
BRANCH  44  57
ATOM     57  C   UNL     1       5.227   5.343  19.035  0.00  0.00    -0.042 C 
ATOM     58  H   UNL     1       5.910   6.098  19.440  0.00  0.00    +0.025 HD
ATOM     59  H   UNL     1       5.495   4.378  19.477  0.00  0.00    +0.025 HD
ATOM     60  H   UNL     1       5.416   5.265  17.959  0.00  0.00    +0.025 HD
ENDBRANCH  44  57
ENDBRANCH  42  44
ENDBRANCH   1  42
TORSDOF 8
ENDMDL
MODEL 13
REMARK VINA RESULT:    -8.502      4.424     10.905
REMARK INTER + INTRA:         -12.339
REMARK INTER:                 -10.892
REMARK INTRA:                  -1.447
REMARK UNBOUND:                -0.109
REMARK  Name = 
REMARK  8 active torsions:
REMARK  status: ('A' for Active; 'I' for Inactive)
REMARK    1  A    between atoms: C_1  and  C_2
REMARK    2  A    between atoms: C_2  and  N_3
REMARK    3  A    between atoms: C_2  and  C_28
REMARK    4  A    between atoms: N_3  and  C_4
REMARK    5  A    between atoms: C_12  and  N_13
REMARK    6  A    between atoms: N_16  and  C_17
REMARK    7  A    between atoms: C_17  and  C_18
REMARK    8  A    between atoms: C_24  and  C_25
REMARK                            x       y       z     vdW  Elec       q    Type
REMARK                         _______ _______ _______ _____ _____    ______ ____
ROOT
ATOM      1  C   UNL     1       2.000   6.109  20.753  0.00  0.00    +0.028 A 
ATOM      2  C   UNL     1       1.251   7.111  21.407  0.00  0.00    -0.041 A 
ATOM      3  C   UNL     1       1.053   8.376  20.843  0.00  0.00    -0.055 A 
ATOM      4  C   UNL     1       1.577   8.627  19.589  0.00  0.00    -0.024 A 
ATOM      5  C   UNL     1       2.279   7.633  18.905  0.00  0.00    -0.041 A 
ATOM      6  C   UNL     1       2.484   6.378  19.466  0.00  0.00    -0.037 A 
ATOM      7  C   UNL     1       2.791   8.146  17.593  0.00  0.00    -0.025 C 
ATOM      8  C   UNL     1       1.921   9.397  17.394  0.00  0.00    -0.026 C 
ATOM      9  C   UNL     1       1.561   9.908  18.804  0.00  0.00    +0.050 C 
ATOM     10  H   UNL     1       0.822   6.910  22.387  0.00  0.00    +0.064 HD
ATOM     11  H   UNL     1       0.507   9.136  21.389  0.00  0.00    +0.062 HD
ATOM     12  H   UNL     1       3.032   5.640  18.896  0.00  0.00    +0.064 HD
ATOM     13  H   UNL     1       2.652   7.428  16.778  0.00  0.00    +0.031 HD
ATOM     14  H   UNL     1       3.851   8.410  17.682  0.00  0.00    +0.031 HD
ATOM     15  H   UNL     1       1.011   9.115  16.845  0.00  0.00    +0.029 HD
ATOM     16  H   UNL     1       2.427  10.163  16.795  0.00  0.00    +0.029 HD
ATOM     17  H   UNL     1       2.343  10.582  19.178  0.00  0.00    +0.055 HD
ENDROOT
BRANCH   9  18
ATOM     18  N   UNL     1       0.276  10.566  18.840  0.00  0.00    -0.293 N 
ATOM     19  C   UNL     1       0.121  11.736  19.535  0.00  0.00    +0.300 C 
ATOM     20  O   UNL     1       0.988  12.244  20.230  0.00  0.00    -0.253 OA
ATOM     21  N   UNL     1      -1.138  12.253  19.359  0.00  0.00    -0.295 N 
ATOM     22  H   UNL     1      -0.291  10.469  18.012  0.00  0.00    +0.151 HD
ATOM     23  H   UNL     1      -1.842  11.545  19.205  0.00  0.00    +0.151 HD
BRANCH  21  24
ATOM     24  C   UNL     1      -1.574  13.406  20.127  0.00  0.00    +0.039 C 
ATOM     25  H   UNL     1      -2.079  14.095  19.443  0.00  0.00    +0.051 HD
ATOM     26  H   UNL     1      -0.670  13.917  20.479  0.00  0.00    +0.051 HD
BRANCH  24  27
ATOM     27  C   UNL     1      -2.406  13.038  21.331  0.00  0.00    -0.018 A 
ATOM     28  C   UNL     1      -1.783  12.911  22.588  0.00  0.00    -0.054 A 
ATOM     29  C   UNL     1      -2.533  12.620  23.730  0.00  0.00    -0.026 A 
ATOM     30  C   UNL     1      -3.911  12.466  23.631  0.00  0.00    +0.124 A 
ATOM     31  F   UNL     1      -4.623  12.193  24.731  0.00  0.00    -0.205 F 
ATOM     32  C   UNL     1      -4.556  12.585  22.410  0.00  0.00    -0.014 A 
ATOM     33  C   UNL     1      -3.802  12.856  21.263  0.00  0.00    +0.044 A 
ATOM     34  H   UNL     1      -0.706  13.038  22.680  0.00  0.00    +0.062 HD
ATOM     35  H   UNL     1      -2.051  12.516  24.699  0.00  0.00    +0.065 HD
ATOM     36  H   UNL     1      -5.634  12.459  22.354  0.00  0.00    +0.065 HD
BRANCH  33  37
ATOM     37  C   UNL     1      -4.547  12.940  19.995  0.00  0.00    +0.242 C 
ATOM     38  N   UNL     1      -5.147  14.139  19.751  0.00  0.00    -0.325 N 
ATOM     39  O   UNL     1      -4.589  11.995  19.220  0.00  0.00    -0.270 OA
ATOM     40  H   UNL     1      -5.265  14.838  20.490  0.00  0.00    +0.145 HD
ATOM     41  H   UNL     1      -5.754  14.214  18.951  0.00  0.00    +0.145 HD
ENDBRANCH  33  37
ENDBRANCH  24  27
ENDBRANCH  21  24
ENDBRANCH   9  18
BRANCH   1  42
ATOM     42  N   UNL     1       2.119   4.870  21.400  0.00  0.00    -0.337 N 
ATOM     43  H   UNL     1       3.100   4.681  21.603  0.00  0.00    +0.147 HD
BRANCH  42  44
ATOM     44  C   UNL     1       1.436   3.677  20.875  0.00  0.00    +0.046 C 
ATOM     45  H   UNL     1       0.467   3.954  20.442  0.00  0.00    +0.055 HD
BRANCH  44  46
ATOM     46  C   UNL     1       2.284   3.062  19.773  0.00  0.00    +0.008 A 
ATOM     47  C   UNL     1       3.674   2.886  19.911  0.00  0.00    -0.054 A 
ATOM     48  C   UNL     1       4.429   2.321  18.879  0.00  0.00    -0.061 A 
ATOM     49  C   UNL     1       3.810   1.924  17.692  0.00  0.00    -0.059 A 
ATOM     50  C   UNL     1       2.434   2.086  17.543  0.00  0.00    -0.026 A 
ATOM     51  C   UNL     1       1.685   2.645  18.578  0.00  0.00    +0.128 A 
ATOM     52  F   UNL     1       0.360   2.768  18.411  0.00  0.00    -0.205 F 
ATOM     53  H   UNL     1       4.175   3.193  20.830  0.00  0.00    +0.062 HD
ATOM     54  H   UNL     1       5.504   2.194  18.998  0.00  0.00    +0.062 HD
ATOM     55  H   UNL     1       4.399   1.484  16.889  0.00  0.00    +0.062 HD
ATOM     56  H   UNL     1       1.934   1.780  16.629  0.00  0.00    +0.065 HD
ENDBRANCH  44  46
BRANCH  44  57
ATOM     57  C   UNL     1       1.215   2.666  22.004  0.00  0.00    -0.042 C 
ATOM     58  H   UNL     1       1.025   1.664  21.604  0.00  0.00    +0.025 HD
ATOM     59  H   UNL     1       2.083   2.600  22.669  0.00  0.00    +0.025 HD
ATOM     60  H   UNL     1       0.357   2.945  22.626  0.00  0.00    +0.025 HD
ENDBRANCH  44  57
ENDBRANCH  42  44
ENDBRANCH   1  42
TORSDOF 8
ENDMDL
MODEL 14
REMARK VINA RESULT:    -8.476      3.223      9.401
REMARK INTER + INTRA:         -12.301
REMARK INTER:                 -11.186
REMARK INTRA:                  -1.115
REMARK UNBOUND:                -0.109
REMARK  Name = 
REMARK  8 active torsions:
REMARK  status: ('A' for Active; 'I' for Inactive)
REMARK    1  A    between atoms: C_1  and  C_2
REMARK    2  A    between atoms: C_2  and  N_3
REMARK    3  A    between atoms: C_2  and  C_28
REMARK    4  A    between atoms: N_3  and  C_4
REMARK    5  A    between atoms: C_12  and  N_13
REMARK    6  A    between atoms: N_16  and  C_17
REMARK    7  A    between atoms: C_17  and  C_18
REMARK    8  A    between atoms: C_24  and  C_25
REMARK                            x       y       z     vdW  Elec       q    Type
REMARK                         _______ _______ _______ _____ _____    ______ ____
ROOT
ATOM      1  C   UNL     1       4.101   5.148  17.192  0.00  0.00    +0.028 A 
ATOM      2  C   UNL     1       3.790   6.524  17.159  0.00  0.00    -0.041 A 
ATOM      3  C   UNL     1       2.936   7.114  18.097  0.00  0.00    -0.055 A 
ATOM      4  C   UNL     1       2.419   6.324  19.106  0.00  0.00    -0.024 A 
ATOM      5  C   UNL     1       2.754   4.971  19.185  0.00  0.00    -0.041 A 
ATOM      6  C   UNL     1       3.596   4.380  18.250  0.00  0.00    -0.037 A 
ATOM      7  C   UNL     1       2.042   4.309  20.326  0.00  0.00    -0.025 C 
ATOM      8  C   UNL     1       1.620   5.523  21.168  0.00  0.00    -0.026 C 
ATOM      9  C   UNL     1       1.440   6.696  20.182  0.00  0.00    +0.050 C 
ATOM     10  H   UNL     1       4.209   7.153  16.376  0.00  0.00    +0.064 HD
ATOM     11  H   UNL     1       2.686   8.166  18.020  0.00  0.00    +0.062 HD
ATOM     12  H   UNL     1       3.829   3.328  18.355  0.00  0.00    +0.064 HD
ATOM     13  H   UNL     1       2.693   3.635  20.893  0.00  0.00    +0.031 HD
ATOM     14  H   UNL     1       1.169   3.760  19.955  0.00  0.00    +0.031 HD
ATOM     15  H   UNL     1       2.416   5.749  21.892  0.00  0.00    +0.029 HD
ATOM     16  H   UNL     1       0.710   5.330  21.748  0.00  0.00    +0.029 HD
ATOM     17  H   UNL     1       0.421   6.699  19.773  0.00  0.00    +0.055 HD
ENDROOT
BRANCH   9  18
ATOM     18  N   UNL     1       1.738   7.973  20.787  0.00  0.00    -0.293 N 
ATOM     19  C   UNL     1       0.811   8.981  20.759  0.00  0.00    +0.300 C 
ATOM     20  O   UNL     1      -0.255   8.921  20.163  0.00  0.00    -0.253 OA
ATOM     21  N   UNL     1       1.242  10.070  21.474  0.00  0.00    -0.295 N 
ATOM     22  H   UNL     1       2.333   7.947  21.601  0.00  0.00    +0.151 HD
ATOM     23  H   UNL     1       2.247  10.175  21.475  0.00  0.00    +0.151 HD
BRANCH  21  24
ATOM     24  C   UNL     1       0.488  11.311  21.451  0.00  0.00    +0.039 C 
ATOM     25  H   UNL     1       0.422  11.685  22.477  0.00  0.00    +0.051 HD
ATOM     26  H   UNL     1      -0.533  11.061  21.140  0.00  0.00    +0.051 HD
BRANCH  24  27
ATOM     27  C   UNL     1       1.042  12.324  20.478  0.00  0.00    -0.018 A 
ATOM     28  C   UNL     1       2.220  13.024  20.807  0.00  0.00    -0.054 A 
ATOM     29  C   UNL     1       2.785  13.932  19.907  0.00  0.00    -0.026 A 
ATOM     30  C   UNL     1       2.188  14.139  18.668  0.00  0.00    +0.124 A 
ATOM     31  F   UNL     1       2.739  15.005  17.809  0.00  0.00    -0.205 F 
ATOM     32  C   UNL     1       1.029  13.466  18.313  0.00  0.00    -0.014 A 
ATOM     33  C   UNL     1       0.453  12.572  19.223  0.00  0.00    +0.044 A 
ATOM     34  H   UNL     1       2.701  12.864  21.769  0.00  0.00    +0.062 HD
ATOM     35  H   UNL     1       3.690  14.476  20.163  0.00  0.00    +0.065 HD
ATOM     36  H   UNL     1       0.578  13.644  17.340  0.00  0.00    +0.065 HD
BRANCH  33  37
ATOM     37  C   UNL     1      -0.793  11.913  18.792  0.00  0.00    +0.242 C 
ATOM     38  N   UNL     1      -0.630  10.849  17.958  0.00  0.00    -0.325 N 
ATOM     39  O   UNL     1      -1.884  12.299  19.189  0.00  0.00    -0.270 OA
ATOM     40  H   UNL     1       0.262  10.669  17.488  0.00  0.00    +0.145 HD
ATOM     41  H   UNL     1      -1.452  10.431  17.553  0.00  0.00    +0.145 HD
ENDBRANCH  33  37
ENDBRANCH  24  27
ENDBRANCH  21  24
ENDBRANCH   9  18
BRANCH   1  42
ATOM     42  N   UNL     1       4.984   4.664  16.215  0.00  0.00    -0.337 N 
ATOM     43  H   UNL     1       5.356   3.760  16.505  0.00  0.00    +0.147 HD
BRANCH  42  44
ATOM     44  C   UNL     1       6.037   5.527  15.657  0.00  0.00    +0.046 C 
ATOM     45  H   UNL     1       5.590   6.350  15.085  0.00  0.00    +0.055 HD
BRANCH  44  46
ATOM     46  C   UNL     1       6.843   6.131  16.796  0.00  0.00    +0.008 A 
ATOM     47  C   UNL     1       7.154   7.504  16.844  0.00  0.00    -0.054 A 
ATOM     48  C   UNL     1       7.901   8.032  17.902  0.00  0.00    -0.061 A 
ATOM     49  C   UNL     1       8.351   7.198  18.927  0.00  0.00    -0.059 A 
ATOM     50  C   UNL     1       8.045   5.839  18.897  0.00  0.00    -0.026 A 
ATOM     51  C   UNL     1       7.295   5.320  17.843  0.00  0.00    +0.128 A 
ATOM     52  F   UNL     1       7.001   4.011  17.854  0.00  0.00    -0.205 F 
ATOM     53  H   UNL     1       6.813   8.170  16.049  0.00  0.00    +0.062 HD
ATOM     54  H   UNL     1       8.137   9.094  17.924  0.00  0.00    +0.062 HD
ATOM     55  H   UNL     1       8.932   7.610  19.751  0.00  0.00    +0.062 HD
ATOM     56  H   UNL     1       8.384   5.176  19.688  0.00  0.00    +0.065 HD
ENDBRANCH  44  46
BRANCH  44  57
ATOM     57  C   UNL     1       6.947   4.708  14.736  0.00  0.00    -0.042 C 
ATOM     58  H   UNL     1       7.638   5.357  14.187  0.00  0.00    +0.025 HD
ATOM     59  H   UNL     1       7.546   3.982  15.297  0.00  0.00    +0.025 HD
ATOM     60  H   UNL     1       6.364   4.143  14.002  0.00  0.00    +0.025 HD
ENDBRANCH  44  57
ENDBRANCH  42  44
ENDBRANCH   1  42
TORSDOF 8
ENDMDL
MODEL 15
REMARK VINA RESULT:    -8.462      3.767     10.840
REMARK INTER + INTRA:         -12.282
REMARK INTER:                 -10.778
REMARK INTRA:                  -1.504
REMARK UNBOUND:                -0.109
REMARK  Name = 
REMARK  8 active torsions:
REMARK  status: ('A' for Active; 'I' for Inactive)
REMARK    1  A    between atoms: C_1  and  C_2
REMARK    2  A    between atoms: C_2  and  N_3
REMARK    3  A    between atoms: C_2  and  C_28
REMARK    4  A    between atoms: N_3  and  C_4
REMARK    5  A    between atoms: C_12  and  N_13
REMARK    6  A    between atoms: N_16  and  C_17
REMARK    7  A    between atoms: C_17  and  C_18
REMARK    8  A    between atoms: C_24  and  C_25
REMARK                            x       y       z     vdW  Elec       q    Type
REMARK                         _______ _______ _______ _____ _____    ______ ____
ROOT
ATOM      1  C   UNL     1       2.576   4.947  18.697  0.00  0.00    +0.028 A 
ATOM      2  C   UNL     1       2.169   5.188  20.027  0.00  0.00    -0.041 A 
ATOM      3  C   UNL     1       1.836   6.469  20.480  0.00  0.00    -0.055 A 
ATOM      4  C   UNL     1       1.872   7.517  19.580  0.00  0.00    -0.024 A 
ATOM      5  C   UNL     1       2.225   7.291  18.248  0.00  0.00    -0.041 A 
ATOM      6  C   UNL     1       2.563   6.021  17.796  0.00  0.00    -0.037 A 
ATOM      7  C   UNL     1       2.240   8.574  17.473  0.00  0.00    -0.025 C 
ATOM      8  C   UNL     1       1.417   9.494  18.390  0.00  0.00    -0.026 C 
ATOM      9  C   UNL     1       1.628   8.978  19.828  0.00  0.00    +0.050 C 
ATOM     10  H   UNL     1       2.123   4.362  20.734  0.00  0.00    +0.064 HD
ATOM     11  H   UNL     1       1.567   6.626  21.518  0.00  0.00    +0.062 HD
ATOM     12  H   UNL     1       2.826   5.896  16.754  0.00  0.00    +0.064 HD
ATOM     13  H   UNL     1       1.776   8.475  16.486  0.00  0.00    +0.031 HD
ATOM     14  H   UNL     1       3.268   8.936  17.369  0.00  0.00    +0.031 HD
ATOM     15  H   UNL     1       0.357   9.422  18.108  0.00  0.00    +0.029 HD
ATOM     16  H   UNL     1       1.702  10.547  18.285  0.00  0.00    +0.029 HD
ATOM     17  H   UNL     1       2.523   9.434  20.271  0.00  0.00    +0.055 HD
ENDROOT
BRANCH   9  18
ATOM     18  N   UNL     1       0.479   9.213  20.671  0.00  0.00    -0.293 N 
ATOM     19  C   UNL     1       0.430  10.322  21.474  0.00  0.00    +0.300 C 
ATOM     20  O   UNL     1       1.350  11.115  21.611  0.00  0.00    -0.253 OA
ATOM     21  N   UNL     1      -0.782  10.418  22.111  0.00  0.00    -0.295 N 
ATOM     22  H   UNL     1      -0.406   8.895  20.308  0.00  0.00    +0.151 HD
ATOM     23  H   UNL     1      -1.207   9.521  22.296  0.00  0.00    +0.151 HD
BRANCH  21  24
ATOM     24  C   UNL     1      -0.999  11.430  23.130  0.00  0.00    +0.039 C 
ATOM     25  H   UNL     1      -0.036  11.902  23.348  0.00  0.00    +0.051 HD
ATOM     26  H   UNL     1      -1.306  10.906  24.043  0.00  0.00    +0.051 HD
BRANCH  24  27
ATOM     27  C   UNL     1      -2.081  12.417  22.766  0.00  0.00    -0.018 A 
ATOM     28  C   UNL     1      -3.395  12.201  23.228  0.00  0.00    -0.054 A 
ATOM     29  C   UNL     1      -4.409  13.121  22.950  0.00  0.00    -0.026 A 
ATOM     30  C   UNL     1      -4.120  14.269  22.222  0.00  0.00    +0.124 A 
ATOM     31  F   UNL     1      -5.096  15.149  21.965  0.00  0.00    -0.205 F 
ATOM     32  C   UNL     1      -2.838  14.513  21.754  0.00  0.00    -0.014 A 
ATOM     33  C   UNL     1      -1.827  13.581  22.014  0.00  0.00    +0.044 A 
ATOM     34  H   UNL     1      -3.633  11.310  23.807  0.00  0.00    +0.062 HD
ATOM     35  H   UNL     1      -5.424  12.951  23.301  0.00  0.00    +0.065 HD
ATOM     36  H   UNL     1      -2.633  15.416  21.185  0.00  0.00    +0.065 HD
BRANCH  33  37
ATOM     37  C   UNL     1      -0.496  13.888  21.463  0.00  0.00    +0.242 C 
ATOM     38  N   UNL     1      -0.298  13.504  20.171  0.00  0.00    -0.325 N 
ATOM     39  O   UNL     1       0.348  14.471  22.130  0.00  0.00    -0.270 OA
ATOM     40  H   UNL     1      -0.935  12.853  19.704  0.00  0.00    +0.145 HD
ATOM     41  H   UNL     1       0.627  13.596  19.783  0.00  0.00    +0.145 HD
ENDBRANCH  33  37
ENDBRANCH  24  27
ENDBRANCH  21  24
ENDBRANCH   9  18
BRANCH   1  42
ATOM     42  N   UNL     1       2.867   3.621  18.343  0.00  0.00    -0.337 N 
ATOM     43  H   UNL     1       2.150   3.001  18.718  0.00  0.00    +0.147 HD
BRANCH  42  44
ATOM     44  C   UNL     1       4.216   3.068  18.538  0.00  0.00    +0.046 C 
ATOM     45  H   UNL     1       4.386   2.230  17.851  0.00  0.00    +0.055 HD
BRANCH  44  46
ATOM     46  C   UNL     1       5.246   4.143  18.230  0.00  0.00    +0.008 A 
ATOM     47  C   UNL     1       5.865   4.895  19.246  0.00  0.00    -0.054 A 
ATOM     48  C   UNL     1       6.807   5.882  18.934  0.00  0.00    -0.061 A 
ATOM     49  C   UNL     1       7.142   6.134  17.602  0.00  0.00    -0.059 A 
ATOM     50  C   UNL     1       6.542   5.393  16.586  0.00  0.00    -0.026 A 
ATOM     51  C   UNL     1       5.609   4.408  16.905  0.00  0.00    +0.128 A 
ATOM     52  F   UNL     1       5.065   3.699  15.904  0.00  0.00    -0.205 F 
ATOM     53  H   UNL     1       5.613   4.713  20.292  0.00  0.00    +0.062 HD
ATOM     54  H   UNL     1       7.275   6.458  19.730  0.00  0.00    +0.062 HD
ATOM     55  H   UNL     1       7.875   6.902  17.360  0.00  0.00    +0.062 HD
ATOM     56  H   UNL     1       6.793   5.573  15.545  0.00  0.00    +0.065 HD
ENDBRANCH  44  46
BRANCH  44  57
ATOM     57  C   UNL     1       4.373   2.578  19.981  0.00  0.00    -0.042 C 
ATOM     58  H   UNL     1       3.862   1.620  20.129  0.00  0.00    +0.025 HD
ATOM     59  H   UNL     1       5.425   2.440  20.252  0.00  0.00    +0.025 HD
ATOM     60  H   UNL     1       3.951   3.295  20.693  0.00  0.00    +0.025 HD
ENDBRANCH  44  57
ENDBRANCH  42  44
ENDBRANCH   1  42
TORSDOF 8
ENDMDL
MODEL 16
REMARK VINA RESULT:    -8.456      3.009      9.733
REMARK INTER + INTRA:         -12.272
REMARK INTER:                 -11.190
REMARK INTRA:                  -1.082
REMARK UNBOUND:                -0.109
REMARK  Name = 
REMARK  8 active torsions:
REMARK  status: ('A' for Active; 'I' for Inactive)
REMARK    1  A    between atoms: C_1  and  C_2
REMARK    2  A    between atoms: C_2  and  N_3
REMARK    3  A    between atoms: C_2  and  C_28
REMARK    4  A    between atoms: N_3  and  C_4
REMARK    5  A    between atoms: C_12  and  N_13
REMARK    6  A    between atoms: N_16  and  C_17
REMARK    7  A    between atoms: C_17  and  C_18
REMARK    8  A    between atoms: C_24  and  C_25
REMARK                            x       y       z     vdW  Elec       q    Type
REMARK                         _______ _______ _______ _____ _____    ______ ____
ROOT
ATOM      1  C   UNL     1       4.321   6.102  17.114  0.00  0.00    +0.028 A 
ATOM      2  C   UNL     1       3.806   7.412  17.226  0.00  0.00    -0.041 A 
ATOM      3  C   UNL     1       2.884   7.764  18.219  0.00  0.00    -0.055 A 
ATOM      4  C   UNL     1       2.506   6.803  19.136  0.00  0.00    -0.024 A 
ATOM      5  C   UNL     1       3.042   5.515  19.072  0.00  0.00    -0.041 A 
ATOM      6  C   UNL     1       3.951   5.160  18.083  0.00  0.00    -0.037 A 
ATOM      7  C   UNL     1       2.452   4.637  20.134  0.00  0.00    -0.025 C 
ATOM      8  C   UNL     1       1.862   5.678  21.099  0.00  0.00    -0.026 C 
ATOM      9  C   UNL     1       1.495   6.907  20.243  0.00  0.00    +0.050 C 
ATOM     10  H   UNL     1       4.115   8.176  16.515  0.00  0.00    +0.064 HD
ATOM     11  H   UNL     1       2.477   8.768  18.252  0.00  0.00    +0.062 HD
ATOM     12  H   UNL     1       4.340   4.151  18.076  0.00  0.00    +0.064 HD
ATOM     13  H   UNL     1       3.204   4.013  20.630  0.00  0.00    +0.031 HD
ATOM     14  H   UNL     1       1.667   4.005  19.705  0.00  0.00    +0.031 HD
ATOM     15  H   UNL     1       2.625   5.944  21.845  0.00  0.00    +0.029 HD
ATOM     16  H   UNL     1       1.000   5.289  21.652  0.00  0.00    +0.029 HD
ATOM     17  H   UNL     1       0.483   6.799  19.832  0.00  0.00    +0.055 HD
ENDROOT
BRANCH   9  18
ATOM     18  N   UNL     1       1.605   8.144  20.980  0.00  0.00    -0.293 N 
ATOM     19  C   UNL     1       0.717   9.162  20.754  0.00  0.00    +0.300 C 
ATOM     20  O   UNL     1      -0.140   9.147  19.882  0.00  0.00    -0.253 OA
ATOM     21  N   UNL     1       0.925  10.203  21.624  0.00  0.00    -0.295 N 
ATOM     22  H   UNL     1       1.949   8.065  21.925  0.00  0.00    +0.151 HD
ATOM     23  H   UNL     1       1.889  10.296  21.911  0.00  0.00    +0.151 HD
BRANCH  21  24
ATOM     24  C   UNL     1       0.200  11.451  21.464  0.00  0.00    +0.039 C 
ATOM     25  H   UNL     1       0.046  11.882  22.458  0.00  0.00    +0.051 HD
ATOM     26  H   UNL     1      -0.792  11.198  21.072  0.00  0.00    +0.051 HD
BRANCH  24  27
ATOM     27  C   UNL     1       0.861  12.401  20.495  0.00  0.00    -0.018 A 
ATOM     28  C   UNL     1       2.103  12.976  20.830  0.00  0.00    -0.054 A 
ATOM     29  C   UNL     1       2.764  13.820  19.934  0.00  0.00    -0.026 A 
ATOM     30  C   UNL     1       2.198  14.088  18.693  0.00  0.00    +0.124 A 
ATOM     31  F   UNL     1       2.841  14.893  17.837  0.00  0.00    -0.205 F 
ATOM     32  C   UNL     1       0.978  13.539  18.331  0.00  0.00    -0.014 A 
ATOM     33  C   UNL     1       0.307  12.710  19.237  0.00  0.00    +0.044 A 
ATOM     34  H   UNL     1       2.560  12.766  21.796  0.00  0.00    +0.062 HD
ATOM     35  H   UNL     1       3.719  14.268  20.195  0.00  0.00    +0.065 HD
ATOM     36  H   UNL     1       0.553  13.763  17.356  0.00  0.00    +0.065 HD
BRANCH  33  37
ATOM     37  C   UNL     1      -0.997  12.183  18.799  0.00  0.00    +0.242 C 
ATOM     38  N   UNL     1      -0.941  11.166  17.895  0.00  0.00    -0.325 N 
ATOM     39  O   UNL     1      -2.044  12.629  19.249  0.00  0.00    -0.270 OA
ATOM     40  H   UNL     1      -0.077  10.946  17.390  0.00  0.00    +0.145 HD
ATOM     41  H   UNL     1      -1.803  10.843  17.486  0.00  0.00    +0.145 HD
ENDBRANCH  33  37
ENDBRANCH  24  27
ENDBRANCH  21  24
ENDBRANCH   9  18
BRANCH   1  42
ATOM     42  N   UNL     1       5.254   5.863  16.094  0.00  0.00    -0.337 N 
ATOM     43  H   UNL     1       4.897   6.225  15.210  0.00  0.00    +0.147 HD
BRANCH  42  44
ATOM     44  C   UNL     1       5.865   4.536  15.927  0.00  0.00    +0.046 C 
ATOM     45  H   UNL     1       5.148   3.751  16.200  0.00  0.00    +0.055 HD
BRANCH  44  46
ATOM     46  C   UNL     1       6.243   4.340  14.468  0.00  0.00    +0.008 A 
ATOM     47  C   UNL     1       5.517   3.485  13.617  0.00  0.00    -0.054 A 
ATOM     48  C   UNL     1       5.891   3.320  12.280  0.00  0.00    -0.061 A 
ATOM     49  C   UNL     1       6.996   4.005  11.771  0.00  0.00    -0.059 A 
ATOM     50  C   UNL     1       7.721   4.859  12.599  0.00  0.00    -0.026 A 
ATOM     51  C   UNL     1       7.340   5.023  13.930  0.00  0.00    +0.128 A 
ATOM     52  F   UNL     1       8.047   5.869  14.695  0.00  0.00    -0.205 F 
ATOM     53  H   UNL     1       4.652   2.940  13.999  0.00  0.00    +0.062 HD
ATOM     54  H   UNL     1       5.322   2.653  11.634  0.00  0.00    +0.062 HD
ATOM     55  H   UNL     1       7.287   3.876  10.729  0.00  0.00    +0.062 HD
ATOM     56  H   UNL     1       8.582   5.402  12.220  0.00  0.00    +0.065 HD
ENDBRANCH  44  46
BRANCH  44  57
ATOM     57  C   UNL     1       7.105   4.418  16.820  0.00  0.00    -0.042 C 
ATOM     58  H   UNL     1       6.877   3.869  17.740  0.00  0.00    +0.025 HD
ATOM     59  H   UNL     1       7.923   3.896  16.313  0.00  0.00    +0.025 HD
ATOM     60  H   UNL     1       7.484   5.405  17.106  0.00  0.00    +0.025 HD
ENDBRANCH  44  57
ENDBRANCH  42  44
ENDBRANCH   1  42
TORSDOF 8
ENDMDL
MODEL 17
REMARK VINA RESULT:    -8.334      4.721      9.229
REMARK INTER + INTRA:         -12.097
REMARK INTER:                 -12.054
REMARK INTRA:                  -0.044
REMARK UNBOUND:                -0.109
REMARK  Name = 
REMARK  8 active torsions:
REMARK  status: ('A' for Active; 'I' for Inactive)
REMARK    1  A    between atoms: C_1  and  C_2
REMARK    2  A    between atoms: C_2  and  N_3
REMARK    3  A    between atoms: C_2  and  C_28
REMARK    4  A    between atoms: N_3  and  C_4
REMARK    5  A    between atoms: C_12  and  N_13
REMARK    6  A    between atoms: N_16  and  C_17
REMARK    7  A    between atoms: C_17  and  C_18
REMARK    8  A    between atoms: C_24  and  C_25
REMARK                            x       y       z     vdW  Elec       q    Type
REMARK                         _______ _______ _______ _____ _____    ______ ____
ROOT
ATOM      1  C   UNL     1       2.519   6.698  19.012  0.00  0.00    +0.028 A 
ATOM      2  C   UNL     1       2.466   7.480  17.838  0.00  0.00    -0.041 A 
ATOM      3  C   UNL     1       1.864   8.743  17.815  0.00  0.00    -0.055 A 
ATOM      4  C   UNL     1       1.346   9.248  18.992  0.00  0.00    -0.024 A 
ATOM      5  C   UNL     1       1.433   8.511  20.174  0.00  0.00    -0.041 A 
ATOM      6  C   UNL     1       2.023   7.253  20.200  0.00  0.00    -0.037 A 
ATOM      7  C   UNL     1       0.765   9.234  21.305  0.00  0.00    -0.025 C 
ATOM      8  C   UNL     1       0.687  10.664  20.750  0.00  0.00    -0.026 C 
ATOM      9  C   UNL     1       0.600  10.532  19.215  0.00  0.00    +0.050 C 
ATOM     10  H   UNL     1       2.889   7.093  16.913  0.00  0.00    +0.064 HD
ATOM     11  H   UNL     1       1.804   9.300  16.887  0.00  0.00    +0.062 HD
ATOM     12  H   UNL     1       2.069   6.722  21.141  0.00  0.00    +0.064 HD
ATOM     13  H   UNL     1       1.349   9.195  22.232  0.00  0.00    +0.031 HD
ATOM     14  H   UNL     1      -0.234   8.819  21.477  0.00  0.00    +0.031 HD
ATOM     15  H   UNL     1       1.598  11.208  21.037  0.00  0.00    +0.029 HD
ATOM     16  H   UNL     1      -0.159  11.224  21.163  0.00  0.00    +0.029 HD
ATOM     17  H   UNL     1      -0.445  10.414  18.900  0.00  0.00    +0.055 HD
ENDROOT
BRANCH   9  18
ATOM     18  N   UNL     1       1.204  11.651  18.532  0.00  0.00    -0.293 N 
ATOM     19  C   UNL     1       1.793  12.660  19.247  0.00  0.00    +0.300 C 
ATOM     20  O   UNL     1       1.770  12.743  20.467  0.00  0.00    -0.253 OA
ATOM     21  N   UNL     1       2.397  13.570  18.416  0.00  0.00    -0.295 N 
ATOM     22  H   UNL     1       1.623  11.447  17.637  0.00  0.00    +0.151 HD
ATOM     23  H   UNL     1       1.942  13.654  17.518  0.00  0.00    +0.151 HD
BRANCH  21  24
ATOM     24  C   UNL     1       2.947  14.802  18.951  0.00  0.00    +0.039 C 
ATOM     25  H   UNL     1       2.474  14.991  19.919  0.00  0.00    +0.051 HD
ATOM     26  H   UNL     1       2.631  15.612  18.282  0.00  0.00    +0.051 HD
BRANCH  24  27
ATOM     27  C   UNL     1       4.456  14.803  19.011  0.00  0.00    -0.018 A 
ATOM     28  C   UNL     1       5.193  14.901  17.814  0.00  0.00    -0.054 A 
ATOM     29  C   UNL     1       6.589  14.954  17.838  0.00  0.00    -0.026 A 
ATOM     30  C   UNL     1       7.260  14.922  19.056  0.00  0.00    +0.124 A 
ATOM     31  F   UNL     1       8.598  14.980  19.071  0.00  0.00    -0.205 F 
ATOM     32  C   UNL     1       6.565  14.827  20.251  0.00  0.00    -0.014 A 
ATOM     33  C   UNL     1       5.168  14.753  20.225  0.00  0.00    +0.044 A 
ATOM     34  H   UNL     1       4.679  14.936  16.855  0.00  0.00    +0.062 HD
ATOM     35  H   UNL     1       7.158  15.024  16.915  0.00  0.00    +0.065 HD
ATOM     36  H   UNL     1       7.110  14.802  21.192  0.00  0.00    +0.065 HD
BRANCH  33  37
ATOM     37  C   UNL     1       4.495  14.624  21.529  0.00  0.00    +0.242 C 
ATOM     38  N   UNL     1       5.091  13.771  22.409  0.00  0.00    -0.325 N 
ATOM     39  O   UNL     1       3.488  15.266  21.789  0.00  0.00    -0.270 OA
ATOM     40  H   UNL     1       5.807  13.105  22.107  0.00  0.00    +0.145 HD
ATOM     41  H   UNL     1       4.613  13.568  23.273  0.00  0.00    +0.145 HD
ENDBRANCH  33  37
ENDBRANCH  24  27
ENDBRANCH  21  24
ENDBRANCH   9  18
BRANCH   1  42
ATOM     42  N   UNL     1       3.164   5.455  18.928  0.00  0.00    -0.337 N 
ATOM     43  H   UNL     1       3.618   5.243  19.817  0.00  0.00    +0.147 HD
BRANCH  42  44
ATOM     44  C   UNL     1       4.034   5.133  17.787  0.00  0.00    +0.046 C 
ATOM     45  H   UNL     1       3.662   5.619  16.876  0.00  0.00    +0.055 HD
BRANCH  44  46
ATOM     46  C   UNL     1       5.434   5.659  18.061  0.00  0.00    +0.008 A 
ATOM     47  C   UNL     1       6.185   5.236  19.174  0.00  0.00    -0.054 A 
ATOM     48  C   UNL     1       7.469   5.740  19.405  0.00  0.00    -0.061 A 
ATOM     49  C   UNL     1       8.022   6.676  18.529  0.00  0.00    -0.059 A 
ATOM     50  C   UNL     1       7.293   7.100  17.419  0.00  0.00    -0.026 A 
ATOM     51  C   UNL     1       6.016   6.589  17.192  0.00  0.00    +0.128 A 
ATOM     52  F   UNL     1       5.349   7.002  16.104  0.00  0.00    -0.205 F 
ATOM     53  H   UNL     1       5.767   4.507  19.871  0.00  0.00    +0.062 HD
ATOM     54  H   UNL     1       8.037   5.406  20.271  0.00  0.00    +0.062 HD
ATOM     55  H   UNL     1       9.022   7.068  18.709  0.00  0.00    +0.062 HD
ATOM     56  H   UNL     1       7.709   7.825  16.726  0.00  0.00    +0.065 HD
ENDBRANCH  44  46
BRANCH  44  57
ATOM     57  C   UNL     1       4.068   3.616  17.571  0.00  0.00    -0.042 C 
ATOM     58  H   UNL     1       4.481   3.103  18.447  0.00  0.00    +0.025 HD
ATOM     59  H   UNL     1       3.068   3.208  17.387  0.00  0.00    +0.025 HD
ATOM     60  H   UNL     1       4.685   3.351  16.707  0.00  0.00    +0.025 HD
ENDBRANCH  44  57
ENDBRANCH  42  44
ENDBRANCH   1  42
TORSDOF 8
ENDMDL
MODEL 18
REMARK VINA RESULT:    -8.320      2.456      3.195
REMARK INTER + INTRA:         -12.076
REMARK INTER:                 -10.858
REMARK INTRA:                  -1.219
REMARK UNBOUND:                -0.109
REMARK  Name = 
REMARK  8 active torsions:
REMARK  status: ('A' for Active; 'I' for Inactive)
REMARK    1  A    between atoms: C_1  and  C_2
REMARK    2  A    between atoms: C_2  and  N_3
REMARK    3  A    between atoms: C_2  and  C_28
REMARK    4  A    between atoms: N_3  and  C_4
REMARK    5  A    between atoms: C_12  and  N_13
REMARK    6  A    between atoms: N_16  and  C_17
REMARK    7  A    between atoms: C_17  and  C_18
REMARK    8  A    between atoms: C_24  and  C_25
REMARK                            x       y       z     vdW  Elec       q    Type
REMARK                         _______ _______ _______ _____ _____    ______ ____
ROOT
ATOM      1  C   UNL     1       1.214   9.462  19.107  0.00  0.00    +0.028 A 
ATOM      2  C   UNL     1       2.012   9.310  17.953  0.00  0.00    -0.041 A 
ATOM      3  C   UNL     1       2.786   8.166  17.731  0.00  0.00    -0.055 A 
ATOM      4  C   UNL     1       2.727   7.142  18.657  0.00  0.00    -0.024 A 
ATOM      5  C   UNL     1       1.906   7.252  19.780  0.00  0.00    -0.041 A 
ATOM      6  C   UNL     1       1.142   8.390  20.007  0.00  0.00    -0.037 A 
ATOM      7  C   UNL     1       2.041   6.047  20.662  0.00  0.00    -0.025 C 
ATOM      8  C   UNL     1       2.680   5.034  19.698  0.00  0.00    -0.026 C 
ATOM      9  C   UNL     1       3.501   5.855  18.684  0.00  0.00    +0.050 C 
ATOM     10  H   UNL     1       2.047  10.108  17.213  0.00  0.00    +0.064 HD
ATOM     11  H   UNL     1       3.419   8.098  16.854  0.00  0.00    +0.062 HD
ATOM     12  H   UNL     1       0.519   8.428  20.891  0.00  0.00    +0.064 HD
ATOM     13  H   UNL     1       1.075   5.689  21.036  0.00  0.00    +0.031 HD
ATOM     14  H   UNL     1       2.708   6.270  21.502  0.00  0.00    +0.031 HD
ATOM     15  H   UNL     1       1.881   4.478  19.185  0.00  0.00    +0.029 HD
ATOM     16  H   UNL     1       3.294   4.293  20.223  0.00  0.00    +0.029 HD
ATOM     17  H   UNL     1       4.513   6.038  19.070  0.00  0.00    +0.055 HD
ENDROOT
BRANCH   9  18
ATOM     18  N   UNL     1       3.569   5.220  17.388  0.00  0.00    -0.293 N 
ATOM     19  C   UNL     1       4.673   4.490  17.036  0.00  0.00    +0.300 C 
ATOM     20  O   UNL     1       5.685   4.401  17.715  0.00  0.00    -0.253 OA
ATOM     21  N   UNL     1       4.498   3.885  15.817  0.00  0.00    -0.295 N 
ATOM     22  H   UNL     1       2.692   4.899  17.009  0.00  0.00    +0.151 HD
ATOM     23  H   UNL     1       3.897   4.407  15.195  0.00  0.00    +0.151 HD
BRANCH  21  24
ATOM     24  C   UNL     1       5.600   3.190  15.176  0.00  0.00    +0.039 C 
ATOM     25  H   UNL     1       5.193   2.314  14.661  0.00  0.00    +0.051 HD
ATOM     26  H   UNL     1       6.249   2.812  15.975  0.00  0.00    +0.051 HD
BRANCH  24  27
ATOM     27  C   UNL     1       6.425   4.081  14.280  0.00  0.00    -0.018 A 
ATOM     28  C   UNL     1       7.296   5.025  14.860  0.00  0.00    -0.054 A 
ATOM     29  C   UNL     1       8.110   5.831  14.060  0.00  0.00    -0.026 A 
ATOM     30  C   UNL     1       8.072   5.694  12.677  0.00  0.00    +0.124 A 
ATOM     31  F   UNL     1       8.859   6.465  11.917  0.00  0.00    -0.205 F 
ATOM     32  C   UNL     1       7.227   4.774  12.074  0.00  0.00    -0.014 A 
ATOM     33  C   UNL     1       6.398   3.982  12.875  0.00  0.00    +0.044 A 
ATOM     34  H   UNL     1       7.342   5.136  15.942  0.00  0.00    +0.062 HD
ATOM     35  H   UNL     1       8.777   6.563  14.507  0.00  0.00    +0.065 HD
ATOM     36  H   UNL     1       7.212   4.684  10.991  0.00  0.00    +0.065 HD
BRANCH  33  37
ATOM     37  C   UNL     1       5.505   3.047  12.168  0.00  0.00    +0.242 C 
ATOM     38  N   UNL     1       6.077   1.869  11.791  0.00  0.00    -0.325 N 
ATOM     39  O   UNL     1       4.330   3.321  11.968  0.00  0.00    -0.270 OA
ATOM     40  H   UNL     1       7.093   1.744  11.792  0.00  0.00    +0.145 HD
ATOM     41  H   UNL     1       5.539   1.242  11.215  0.00  0.00    +0.145 HD
ENDBRANCH  33  37
ENDBRANCH  24  27
ENDBRANCH  21  24
ENDBRANCH   9  18
BRANCH   1  42
ATOM     42  N   UNL     1       0.463  10.641  19.220  0.00  0.00    -0.337 N 
ATOM     43  H   UNL     1       0.964  11.315  19.798  0.00  0.00    +0.147 HD
BRANCH  42  44
ATOM     44  C   UNL     1      -0.967  10.594  19.562  0.00  0.00    +0.046 C 
ATOM     45  H   UNL     1      -1.235   9.600  19.941  0.00  0.00    +0.055 HD
BRANCH  44  46
ATOM     46  C   UNL     1      -1.251  11.607  20.660  0.00  0.00    +0.008 A 
ATOM     47  C   UNL     1      -1.819  12.865  20.384  0.00  0.00    -0.054 A 
ATOM     48  C   UNL     1      -2.066  13.780  21.414  0.00  0.00    -0.061 A 
ATOM     49  C   UNL     1      -1.748  13.452  22.733  0.00  0.00    -0.059 A 
ATOM     50  C   UNL     1      -1.192  12.208  23.022  0.00  0.00    -0.026 A 
ATOM     51  C   UNL     1      -0.953  11.299  21.992  0.00  0.00    +0.128 A 
ATOM     52  F   UNL     1      -0.436  10.102  22.307  0.00  0.00    -0.205 F 
ATOM     53  H   UNL     1      -2.071  13.139  19.358  0.00  0.00    +0.062 HD
ATOM     54  H   UNL     1      -2.502  14.751  21.186  0.00  0.00    +0.062 HD
ATOM     55  H   UNL     1      -1.941  14.165  23.534  0.00  0.00    +0.062 HD
ATOM     56  H   UNL     1      -0.942  11.935  24.043  0.00  0.00    +0.065 HD
ENDBRANCH  44  46
BRANCH  44  57
ATOM     57  C   UNL     1      -1.810  10.904  18.320  0.00  0.00    -0.042 C 
ATOM     58  H   UNL     1      -2.871  10.703  18.504  0.00  0.00    +0.025 HD
ATOM     59  H   UNL     1      -1.716  11.951  18.016  0.00  0.00    +0.025 HD
ATOM     60  H   UNL     1      -1.497  10.294  17.466  0.00  0.00    +0.025 HD
ENDBRANCH  44  57
ENDBRANCH  42  44
ENDBRANCH   1  42
TORSDOF 8
ENDMDL
MODEL 19
REMARK VINA RESULT:    -8.319      4.897     11.453
REMARK INTER + INTRA:         -12.075
REMARK INTER:                 -10.649
REMARK INTRA:                  -1.426
REMARK UNBOUND:                -0.109
REMARK  Name = 
REMARK  8 active torsions:
REMARK  status: ('A' for Active; 'I' for Inactive)
REMARK    1  A    between atoms: C_1  and  C_2
REMARK    2  A    between atoms: C_2  and  N_3
REMARK    3  A    between atoms: C_2  and  C_28
REMARK    4  A    between atoms: N_3  and  C_4
REMARK    5  A    between atoms: C_12  and  N_13
REMARK    6  A    between atoms: N_16  and  C_17
REMARK    7  A    between atoms: C_17  and  C_18
REMARK    8  A    between atoms: C_24  and  C_25
REMARK                            x       y       z     vdW  Elec       q    Type
REMARK                         _______ _______ _______ _____ _____    ______ ____
ROOT
ATOM      1  C   UNL     1       2.739   7.524  18.181  0.00  0.00    +0.028 A 
ATOM      2  C   UNL     1       2.158   8.649  17.556  0.00  0.00    -0.041 A 
ATOM      3  C   UNL     1       1.246   9.477  18.220  0.00  0.00    -0.055 A 
ATOM      4  C   UNL     1       0.943   9.200  19.539  0.00  0.00    -0.024 A 
ATOM      5  C   UNL     1       1.544   8.121  20.189  0.00  0.00    -0.041 A 
ATOM      6  C   UNL     1       2.445   7.292  19.532  0.00  0.00    -0.037 A 
ATOM      7  C   UNL     1       1.029   7.988  21.591  0.00  0.00    -0.025 C 
ATOM      8  C   UNL     1       0.411   9.375  21.823  0.00  0.00    -0.026 C 
ATOM      9  C   UNL     1      -0.042   9.887  20.440  0.00  0.00    +0.050 C 
ATOM     10  H   UNL     1       2.409   8.881  16.523  0.00  0.00    +0.064 HD
ATOM     11  H   UNL     1       0.788  10.310  17.698  0.00  0.00    +0.062 HD
ATOM     12  H   UNL     1       2.887   6.470  20.079  0.00  0.00    +0.064 HD
ATOM     13  H   UNL     1       1.826   7.779  22.313  0.00  0.00    +0.031 HD
ATOM     14  H   UNL     1       0.268   7.201  21.638  0.00  0.00    +0.031 HD
ATOM     15  H   UNL     1       1.177  10.041  22.246  0.00  0.00    +0.029 HD
ATOM     16  H   UNL     1      -0.415   9.347  22.542  0.00  0.00    +0.029 HD
ATOM     17  H   UNL     1      -1.059   9.536  20.217  0.00  0.00    +0.055 HD
ENDROOT
BRANCH   9  18
ATOM     18  N   UNL     1       0.021  11.326  20.338  0.00  0.00    -0.293 N 
ATOM     19  C   UNL     1      -1.013  12.096  20.801  0.00  0.00    +0.300 C 
ATOM     20  O   UNL     1      -2.067  11.648  21.228  0.00  0.00    -0.253 OA
ATOM     21  N   UNL     1      -0.715  13.432  20.709  0.00  0.00    -0.295 N 
ATOM     22  H   UNL     1       0.940  11.733  20.418  0.00  0.00    +0.151 HD
ATOM     23  H   UNL     1      -0.098  13.652  19.941  0.00  0.00    +0.151 HD
BRANCH  21  24
ATOM     24  C   UNL     1      -1.727  14.433  20.998  0.00  0.00    +0.039 C 
ATOM     25  H   UNL     1      -2.621  14.187  20.416  0.00  0.00    +0.051 HD
ATOM     26  H   UNL     1      -1.353  15.389  20.611  0.00  0.00    +0.051 HD
BRANCH  24  27
ATOM     27  C   UNL     1      -1.998  14.596  22.474  0.00  0.00    -0.018 A 
ATOM     28  C   UNL     1      -0.954  15.012  23.325  0.00  0.00    -0.054 A 
ATOM     29  C   UNL     1      -1.185  15.220  24.687  0.00  0.00    -0.026 A 
ATOM     30  C   UNL     1      -2.459  15.027  25.209  0.00  0.00    +0.124 A 
ATOM     31  F   UNL     1      -2.673  15.235  26.515  0.00  0.00    -0.205 F 
ATOM     32  C   UNL     1      -3.507  14.619  24.400  0.00  0.00    -0.014 A 
ATOM     33  C   UNL     1      -3.272  14.392  23.040  0.00  0.00    +0.044 A 
ATOM     34  H   UNL     1       0.045  15.175  22.926  0.00  0.00    +0.062 HD
ATOM     35  H   UNL     1      -0.379  15.535  25.344  0.00  0.00    +0.065 HD
ATOM     36  H   UNL     1      -4.495  14.473  24.829  0.00  0.00    +0.065 HD
BRANCH  33  37
ATOM     37  C   UNL     1      -4.423  13.932  22.244  0.00  0.00    +0.242 C 
ATOM     38  N   UNL     1      -4.658  12.591  22.282  0.00  0.00    -0.325 N 
ATOM     39  O   UNL     1      -5.120  14.722  21.622  0.00  0.00    -0.270 OA
ATOM     40  H   UNL     1      -3.959  11.935  22.641  0.00  0.00    +0.145 HD
ATOM     41  H   UNL     1      -5.367  12.214  21.673  0.00  0.00    +0.145 HD
ENDBRANCH  33  37
ENDBRANCH  24  27
ENDBRANCH  21  24
ENDBRANCH   9  18
BRANCH   1  42
ATOM     42  N   UNL     1       3.657   6.774  17.431  0.00  0.00    -0.337 N 
ATOM     43  H   UNL     1       3.167   6.273  16.690  0.00  0.00    +0.147 HD
BRANCH  42  44
ATOM     44  C   UNL     1       4.652   5.919  18.095  0.00  0.00    +0.046 C 
ATOM     45  H   UNL     1       4.850   6.284  19.111  0.00  0.00    +0.055 HD
BRANCH  44  46
ATOM     46  C   UNL     1       4.103   4.505  18.203  0.00  0.00    +0.008 A 
ATOM     47  C   UNL     1       3.094   4.030  17.344  0.00  0.00    -0.054 A 
ATOM     48  C   UNL     1       2.604   2.725  17.469  0.00  0.00    -0.061 A 
ATOM     49  C   UNL     1       3.112   1.876  18.454  0.00  0.00    -0.059 A 
ATOM     50  C   UNL     1       4.116   2.331  19.307  0.00  0.00    -0.026 A 
ATOM     51  C   UNL     1       4.604   3.630  19.174  0.00  0.00    +0.128 A 
ATOM     52  F   UNL     1       5.584   4.030  19.998  0.00  0.00    -0.205 F 
ATOM     53  H   UNL     1       2.683   4.680  16.570  0.00  0.00    +0.062 HD
ATOM     54  H   UNL     1       1.821   2.372  16.800  0.00  0.00    +0.062 HD
ATOM     55  H   UNL     1       2.731   0.861  18.550  0.00  0.00    +0.062 HD
ATOM     56  H   UNL     1       4.526   1.684  20.077  0.00  0.00    +0.065 HD
ENDBRANCH  44  46
BRANCH  44  57
ATOM     57  C   UNL     1       5.959   5.923  17.295  0.00  0.00    -0.042 C 
ATOM     58  H   UNL     1       6.229   4.910  16.977  0.00  0.00    +0.025 HD
ATOM     59  H   UNL     1       5.884   6.546  16.397  0.00  0.00    +0.025 HD
ATOM     60  H   UNL     1       6.788   6.319  17.890  0.00  0.00    +0.025 HD
ENDBRANCH  44  57
ENDBRANCH  42  44
ENDBRANCH   1  42
TORSDOF 8
ENDMDL
MODEL 20
REMARK VINA RESULT:    -8.179      3.326     10.232
REMARK INTER + INTRA:         -11.874
REMARK INTER:                 -11.041
REMARK INTRA:                  -0.833
REMARK UNBOUND:                -0.109
REMARK  Name = 
REMARK  8 active torsions:
REMARK  status: ('A' for Active; 'I' for Inactive)
REMARK    1  A    between atoms: C_1  and  C_2
REMARK    2  A    between atoms: C_2  and  N_3
REMARK    3  A    between atoms: C_2  and  C_28
REMARK    4  A    between atoms: N_3  and  C_4
REMARK    5  A    between atoms: C_12  and  N_13
REMARK    6  A    between atoms: N_16  and  C_17
REMARK    7  A    between atoms: C_17  and  C_18
REMARK    8  A    between atoms: C_24  and  C_25
REMARK                            x       y       z     vdW  Elec       q    Type
REMARK                         _______ _______ _______ _____ _____    ______ ____
ROOT
ATOM      1  C   UNL     1       4.193   6.218  17.101  0.00  0.00    +0.028 A 
ATOM      2  C   UNL     1       3.592   7.462  17.391  0.00  0.00    -0.041 A 
ATOM      3  C   UNL     1       2.717   7.629  18.470  0.00  0.00    -0.055 A 
ATOM      4  C   UNL     1       2.473   6.547  19.294  0.00  0.00    -0.024 A 
ATOM      5  C   UNL     1       3.096   5.321  19.053  0.00  0.00    -0.041 A 
ATOM      6  C   UNL     1       3.960   5.150  17.978  0.00  0.00    -0.037 A 
ATOM      7  C   UNL     1       2.646   4.288  20.041  0.00  0.00    -0.025 C 
ATOM      8  C   UNL     1       2.048   5.168  21.151  0.00  0.00    -0.026 C 
ATOM      9  C   UNL     1       1.535   6.450  20.463  0.00  0.00    +0.050 C 
ATOM     10  H   UNL     1       3.796   8.321  16.755  0.00  0.00    +0.064 HD
ATOM     11  H   UNL     1       2.241   8.588  18.641  0.00  0.00    +0.062 HD
ATOM     12  H   UNL     1       4.421   4.182  17.833  0.00  0.00    +0.064 HD
ATOM     13  H   UNL     1       3.474   3.677  20.417  0.00  0.00    +0.031 HD
ATOM     14  H   UNL     1       1.882   3.646  19.590  0.00  0.00    +0.031 HD
ATOM     15  H   UNL     1       2.838   5.412  21.876  0.00  0.00    +0.029 HD
ATOM     16  H   UNL     1       1.256   4.654  21.707  0.00  0.00    +0.029 HD
ATOM     17  H   UNL     1       0.507   6.306  20.104  0.00  0.00    +0.055 HD
ENDROOT
BRANCH   9  18
ATOM     18  N   UNL     1       1.604   7.604  21.328  0.00  0.00    -0.293 N 
ATOM     19  C   UNL     1       0.478   8.340  21.585  0.00  0.00    +0.300 C 
ATOM     20  O   UNL     1      -0.606   8.150  21.052  0.00  0.00    -0.253 OA
ATOM     21  N   UNL     1       0.730   9.325  22.507  0.00  0.00    -0.295 N 
ATOM     22  H   UNL     1       2.275   7.552  22.080  0.00  0.00    +0.151 HD
ATOM     23  H   UNL     1       1.680   9.667  22.476  0.00  0.00    +0.151 HD
BRANCH  21  24
ATOM     24  C   UNL     1      -0.280  10.323  22.812  0.00  0.00    +0.039 C 
ATOM     25  H   UNL     1      -0.147  10.630  23.854  0.00  0.00    +0.051 HD
ATOM     26  H   UNL     1      -1.254   9.822  22.753  0.00  0.00    +0.051 HD
BRANCH  24  27
ATOM     27  C   UNL     1      -0.285  11.479  21.842  0.00  0.00    -0.018 A 
ATOM     28  C   UNL     1       0.557  11.436  20.713  0.00  0.00    -0.054 A 
ATOM     29  C   UNL     1       0.539  12.467  19.770  0.00  0.00    -0.026 A 
ATOM     30  C   UNL     1      -0.326  13.542  19.939  0.00  0.00    +0.124 A 
ATOM     31  F   UNL     1      -0.341  14.523  19.028  0.00  0.00    -0.205 F 
ATOM     32  C   UNL     1      -1.168  13.615  21.037  0.00  0.00    -0.014 A 
ATOM     33  C   UNL     1      -1.135  12.592  21.992  0.00  0.00    +0.044 A 
ATOM     34  H   UNL     1       1.232  10.595  20.565  0.00  0.00    +0.062 HD
ATOM     35  H   UNL     1       1.193  12.436  18.903  0.00  0.00    +0.065 HD
ATOM     36  H   UNL     1      -1.835  14.466  21.150  0.00  0.00    +0.065 HD
BRANCH  33  37
ATOM     37  C   UNL     1      -2.035  12.748  23.148  0.00  0.00    +0.242 C 
ATOM     38  N   UNL     1      -1.816  13.856  23.910  0.00  0.00    -0.325 N 
ATOM     39  O   UNL     1      -2.924  11.939  23.373  0.00  0.00    -0.270 OA
ATOM     40  H   UNL     1      -0.956  14.404  23.822  0.00  0.00    +0.145 HD
ATOM     41  H   UNL     1      -2.334  13.953  24.769  0.00  0.00    +0.145 HD
ENDBRANCH  33  37
ENDBRANCH  24  27
ENDBRANCH  21  24
ENDBRANCH   9  18
BRANCH   1  42
ATOM     42  N   UNL     1       5.070   6.167  16.007  0.00  0.00    -0.337 N 
ATOM     43  H   UNL     1       4.536   6.086  15.142  0.00  0.00    +0.147 HD
BRANCH  42  44
ATOM     44  C   UNL     1       6.230   5.262  16.013  0.00  0.00    +0.046 C 
ATOM     45  H   UNL     1       5.988   4.338  16.554  0.00  0.00    +0.055 HD
BRANCH  44  46
ATOM     46  C   UNL     1       6.579   4.889  14.581  0.00  0.00    +0.008 A 
ATOM     47  C   UNL     1       7.681   5.455  13.911  0.00  0.00    -0.054 A 
ATOM     48  C   UNL     1       7.977   5.096  12.592  0.00  0.00    -0.061 A 
ATOM     49  C   UNL     1       7.177   4.170  11.920  0.00  0.00    -0.059 A 
ATOM     50  C   UNL     1       6.087   3.598  12.573  0.00  0.00    -0.026 A 
ATOM     51  C   UNL     1       5.800   3.955  13.889  0.00  0.00    +0.128 A 
ATOM     52  F   UNL     1       4.756   3.369  14.495  0.00  0.00    -0.205 F 
ATOM     53  H   UNL     1       8.316   6.182  14.420  0.00  0.00    +0.062 HD
ATOM     54  H   UNL     1       8.830   5.544  12.085  0.00  0.00    +0.062 HD
ATOM     55  H   UNL     1       7.408   3.892  10.893  0.00  0.00    +0.062 HD
ATOM     56  H   UNL     1       5.455   2.873  12.067  0.00  0.00    +0.065 HD
ENDBRANCH  44  46
BRANCH  44  57
ATOM     57  C   UNL     1       7.421   5.947  16.691  0.00  0.00    -0.042 C 
ATOM     58  H   UNL     1       7.833   6.739  16.056  0.00  0.00    +0.025 HD
ATOM     59  H   UNL     1       7.139   6.400  17.648  0.00  0.00    +0.025 HD
ATOM     60  H   UNL     1       8.224   5.233  16.899  0.00  0.00    +0.025 HD
ENDBRANCH  44  57
ENDBRANCH  42  44
ENDBRANCH   1  42
TORSDOF 8
ENDMDL
MODEL 21
REMARK VINA RESULT:    -8.153      1.879      2.434
REMARK INTER + INTRA:         -11.837
REMARK INTER:                 -11.041
REMARK INTRA:                  -0.796
REMARK UNBOUND:                -0.109
REMARK  Name = 
REMARK  8 active torsions:
REMARK  status: ('A' for Active; 'I' for Inactive)
REMARK    1  A    between atoms: C_1  and  C_2
REMARK    2  A    between atoms: C_2  and  N_3
REMARK    3  A    between atoms: C_2  and  C_28
REMARK    4  A    between atoms: N_3  and  C_4
REMARK    5  A    between atoms: C_12  and  N_13
REMARK    6  A    between atoms: N_16  and  C_17
REMARK    7  A    between atoms: C_17  and  C_18
REMARK    8  A    between atoms: C_24  and  C_25
REMARK                            x       y       z     vdW  Elec       q    Type
REMARK                         _______ _______ _______ _____ _____    ______ ____
ROOT
ATOM      1  C   UNL     1       1.005   9.527  19.375  0.00  0.00    +0.028 A 
ATOM      2  C   UNL     1       1.783   9.449  18.200  0.00  0.00    -0.041 A 
ATOM      3  C   UNL     1       2.603   8.350  17.925  0.00  0.00    -0.055 A 
ATOM      4  C   UNL     1       2.613   7.295  18.818  0.00  0.00    -0.024 A 
ATOM      5  C   UNL     1       1.813   7.332  19.962  0.00  0.00    -0.041 A 
ATOM      6  C   UNL     1       1.003   8.425  20.242  0.00  0.00    -0.037 A 
ATOM      7  C   UNL     1       2.023   6.107  20.801  0.00  0.00    -0.025 C 
ATOM      8  C   UNL     1       2.686   5.156  19.792  0.00  0.00    -0.026 C 
ATOM      9  C   UNL     1       3.445   6.046  18.787  0.00  0.00    +0.050 C 
ATOM     10  H   UNL     1       1.764  10.270  17.486  0.00  0.00    +0.064 HD
ATOM     11  H   UNL     1       3.219   8.339  17.033  0.00  0.00    +0.062 HD
ATOM     12  H   UNL     1       0.399   8.406  21.139  0.00  0.00    +0.064 HD
ATOM     13  H   UNL     1       1.084   5.694  21.184  0.00  0.00    +0.031 HD
ATOM     14  H   UNL     1       2.698   6.335  21.633  0.00  0.00    +0.031 HD
ATOM     15  H   UNL     1       1.903   4.580  19.278  0.00  0.00    +0.029 HD
ATOM     16  H   UNL     1       3.345   4.429  20.279  0.00  0.00    +0.029 HD
ATOM     17  H   UNL     1       4.456   6.264  19.158  0.00  0.00    +0.055 HD
ENDROOT
BRANCH   9  18
ATOM     18  N   UNL     1       3.513   5.456  17.471  0.00  0.00    -0.293 N 
ATOM     19  C   UNL     1       4.552   4.626  17.141  0.00  0.00    +0.300 C 
ATOM     20  O   UNL     1       5.512   4.404  17.863  0.00  0.00    -0.253 OA
ATOM     21  N   UNL     1       4.377   4.089  15.890  0.00  0.00    -0.295 N 
ATOM     22  H   UNL     1       2.628   5.244  17.037  0.00  0.00    +0.151 HD
ATOM     23  H   UNL     1       3.867   4.694  15.263  0.00  0.00    +0.151 HD
BRANCH  21  24
ATOM     24  C   UNL     1       5.432   3.303  15.273  0.00  0.00    +0.039 C 
ATOM     25  H   UNL     1       4.963   2.478  14.728  0.00  0.00    +0.051 HD
ATOM     26  H   UNL     1       6.014   2.853  16.086  0.00  0.00    +0.051 HD
BRANCH  24  27
ATOM     27  C   UNL     1       6.368   4.128  14.424  0.00  0.00    -0.018 A 
ATOM     28  C   UNL     1       7.238   5.044  15.047  0.00  0.00    -0.054 A 
ATOM     29  C   UNL     1       8.151   5.787  14.294  0.00  0.00    -0.026 A 
ATOM     30  C   UNL     1       8.213   5.613  12.916  0.00  0.00    +0.124 A 
ATOM     31  F   UNL     1       9.094   6.323  12.202  0.00  0.00    -0.205 F 
ATOM     32  C   UNL     1       7.371   4.719  12.272  0.00  0.00    -0.014 A 
ATOM     33  C   UNL     1       6.443   3.991  13.024  0.00  0.00    +0.044 A 
ATOM     34  H   UNL     1       7.206   5.183  16.126  0.00  0.00    +0.062 HD
ATOM     35  H   UNL     1       8.818   6.497  14.774  0.00  0.00    +0.065 HD
ATOM     36  H   UNL     1       7.435   4.600  11.193  0.00  0.00    +0.065 HD
BRANCH  33  37
ATOM     37  C   UNL     1       5.561   3.081  12.272  0.00  0.00    +0.242 C 
ATOM     38  N   UNL     1       6.108   1.877  11.947  0.00  0.00    -0.325 N 
ATOM     39  O   UNL     1       4.414   3.399  11.992  0.00  0.00    -0.270 OA
ATOM     40  H   UNL     1       7.116   1.712  12.015  0.00  0.00    +0.145 HD
ATOM     41  H   UNL     1       5.584   1.263  11.345  0.00  0.00    +0.145 HD
ENDBRANCH  33  37
ENDBRANCH  24  27
ENDBRANCH  21  24
ENDBRANCH   9  18
BRANCH   1  42
ATOM     42  N   UNL     1       0.202  10.666  19.541  0.00  0.00    -0.337 N 
ATOM     43  H   UNL     1      -0.611  10.433  20.111  0.00  0.00    +0.147 HD
BRANCH  42  44
ATOM     44  C   UNL     1      -0.166  11.502  18.389  0.00  0.00    +0.046 C 
ATOM     45  H   UNL     1       0.440  11.235  17.515  0.00  0.00    +0.055 HD
BRANCH  44  46
ATOM     46  C   UNL     1      -1.626  11.256  18.040  0.00  0.00    +0.008 A 
ATOM     47  C   UNL     1      -2.007  10.521  16.902  0.00  0.00    -0.054 A 
ATOM     48  C   UNL     1      -3.357  10.314  16.603  0.00  0.00    -0.061 A 
ATOM     49  C   UNL     1      -4.348  10.839  17.434  0.00  0.00    -0.059 A 
ATOM     50  C   UNL     1      -3.986  11.564  18.568  0.00  0.00    -0.026 A 
ATOM     51  C   UNL     1      -2.638  11.762  18.864  0.00  0.00    +0.128 A 
ATOM     52  F   UNL     1      -2.324  12.446  19.974  0.00  0.00    -0.205 F 
ATOM     53  H   UNL     1      -1.245  10.105  16.239  0.00  0.00    +0.062 HD
ATOM     54  H   UNL     1      -3.637   9.746  15.717  0.00  0.00    +0.062 HD
ATOM     55  H   UNL     1      -5.399  10.677  17.201  0.00  0.00    +0.062 HD
ATOM     56  H   UNL     1      -4.743  11.977  19.228  0.00  0.00    +0.065 HD
ENDBRANCH  44  46
BRANCH  44  57
ATOM     57  C   UNL     1       0.059  12.980  18.726  0.00  0.00    -0.042 C 
ATOM     58  H   UNL     1      -0.796  13.394  19.271  0.00  0.00    +0.025 HD
ATOM     59  H   UNL     1       0.951  13.125  19.344  0.00  0.00    +0.025 HD
ATOM     60  H   UNL     1       0.198  13.578  17.819  0.00  0.00    +0.025 HD
ENDBRANCH  44  57
ENDBRANCH  42  44
ENDBRANCH   1  42
TORSDOF 8
ENDMDL
MODEL 22
REMARK VINA RESULT:    -8.125      3.723      5.437
REMARK INTER + INTRA:         -11.796
REMARK INTER:                 -11.123
REMARK INTRA:                  -0.673
REMARK UNBOUND:                -0.109
REMARK  Name = 
REMARK  8 active torsions:
REMARK  status: ('A' for Active; 'I' for Inactive)
REMARK    1  A    between atoms: C_1  and  C_2
REMARK    2  A    between atoms: C_2  and  N_3
REMARK    3  A    between atoms: C_2  and  C_28
REMARK    4  A    between atoms: N_3  and  C_4
REMARK    5  A    between atoms: C_12  and  N_13
REMARK    6  A    between atoms: N_16  and  C_17
REMARK    7  A    between atoms: C_17  and  C_18
REMARK    8  A    between atoms: C_24  and  C_25
REMARK                            x       y       z     vdW  Elec       q    Type
REMARK                         _______ _______ _______ _____ _____    ______ ____
ROOT
ATOM      1  C   UNL     1      -0.667  12.783  22.635  0.00  0.00    +0.028 A 
ATOM      2  C   UNL     1      -0.867  11.386  22.683  0.00  0.00    -0.041 A 
ATOM      3  C   UNL     1      -0.451  10.541  21.648  0.00  0.00    -0.055 A 
ATOM      4  C   UNL     1       0.212  11.097  20.570  0.00  0.00    -0.024 A 
ATOM      5  C   UNL     1       0.464  12.469  20.528  0.00  0.00    -0.041 A 
ATOM      6  C   UNL     1       0.045  13.312  21.550  0.00  0.00    -0.037 A 
ATOM      7  C   UNL     1       1.149  12.848  19.249  0.00  0.00    -0.025 C 
ATOM      8  C   UNL     1       1.672  11.485  18.768  0.00  0.00    -0.026 C 
ATOM      9  C   UNL     1       0.696  10.425  19.318  0.00  0.00    +0.050 C 
ATOM     10  H   UNL     1      -1.374  10.943  23.538  0.00  0.00    +0.064 HD
ATOM     11  H   UNL     1      -0.657   9.478  21.697  0.00  0.00    +0.062 HD
ATOM     12  H   UNL     1       0.266  14.369  21.473  0.00  0.00    +0.064 HD
ATOM     13  H   UNL     1       1.969  13.558  19.406  0.00  0.00    +0.031 HD
ATOM     14  H   UNL     1       0.423  13.266  18.544  0.00  0.00    +0.031 HD
ATOM     15  H   UNL     1       2.681  11.326  19.176  0.00  0.00    +0.029 HD
ATOM     16  H   UNL     1       1.761  11.437  17.677  0.00  0.00    +0.029 HD
ATOM     17  H   UNL     1      -0.144  10.282  18.624  0.00  0.00    +0.055 HD
ENDROOT
BRANCH   9  18
ATOM     18  N   UNL     1       1.345   9.162  19.580  0.00  0.00    -0.293 N 
ATOM     19  C   UNL     1       1.942   8.469  18.560  0.00  0.00    +0.300 C 
ATOM     20  O   UNL     1       1.892   8.797  17.383  0.00  0.00    -0.253 OA
ATOM     21  N   UNL     1       2.590   7.355  19.031  0.00  0.00    -0.295 N 
ATOM     22  H   UNL     1       1.780   9.070  20.485  0.00  0.00    +0.151 HD
ATOM     23  H   UNL     1       2.159   6.962  19.855  0.00  0.00    +0.151 HD
BRANCH  21  24
ATOM     24  C   UNL     1       3.160   6.390  18.107  0.00  0.00    +0.039 C 
ATOM     25  H   UNL     1       4.239   6.566  18.058  0.00  0.00    +0.051 HD
ATOM     26  H   UNL     1       2.758   6.620  17.114  0.00  0.00    +0.051 HD
BRANCH  24  27
ATOM     27  C   UNL     1       2.799   4.963  18.442  0.00  0.00    -0.018 A 
ATOM     28  C   UNL     1       1.563   4.691  19.061  0.00  0.00    -0.054 A 
ATOM     29  C   UNL     1       1.178   3.377  19.339  0.00  0.00    -0.026 A 
ATOM     30  C   UNL     1       2.016   2.323  18.990  0.00  0.00    +0.124 A 
ATOM     31  F   UNL     1       1.637   1.067  19.254  0.00  0.00    -0.205 F 
ATOM     32  C   UNL     1       3.238   2.556  18.379  0.00  0.00    -0.014 A 
ATOM     33  C   UNL     1       3.632   3.873  18.120  0.00  0.00    +0.044 A 
ATOM     34  H   UNL     1       0.894   5.506  19.330  0.00  0.00    +0.062 HD
ATOM     35  H   UNL     1       0.227   3.168  19.821  0.00  0.00    +0.065 HD
ATOM     36  H   UNL     1       3.878   1.718  18.117  0.00  0.00    +0.065 HD
BRANCH  33  37
ATOM     37  C   UNL     1       4.955   4.050  17.496  0.00  0.00    +0.242 C 
ATOM     38  N   UNL     1       6.014   3.991  18.350  0.00  0.00    -0.325 N 
ATOM     39  O   UNL     1       5.070   4.211  16.289  0.00  0.00    -0.270 OA
ATOM     40  H   UNL     1       5.887   4.054  19.364  0.00  0.00    +0.145 HD
ATOM     41  H   UNL     1       6.929   4.210  17.990  0.00  0.00    +0.145 HD
ENDBRANCH  33  37
ENDBRANCH  24  27
ENDBRANCH  21  24
ENDBRANCH   9  18
BRANCH   1  42
ATOM     42  N   UNL     1      -1.106  13.534  23.736  0.00  0.00    -0.337 N 
ATOM     43  H   UNL     1      -1.360  12.908  24.499  0.00  0.00    +0.147 HD
BRANCH  42  44
ATOM     44  C   UNL     1      -2.094  14.610  23.567  0.00  0.00    +0.046 C 
ATOM     45  H   UNL     1      -1.612  15.510  23.165  0.00  0.00    +0.055 HD
BRANCH  44  46
ATOM     46  C   UNL     1      -3.155  14.163  22.575  0.00  0.00    +0.008 A 
ATOM     47  C   UNL     1      -3.327  14.798  21.330  0.00  0.00    -0.054 A 
ATOM     48  C   UNL     1      -4.315  14.368  20.438  0.00  0.00    -0.061 A 
ATOM     49  C   UNL     1      -5.147  13.299  20.774  0.00  0.00    -0.059 A 
ATOM     50  C   UNL     1      -4.985  12.656  22.000  0.00  0.00    -0.026 A 
ATOM     51  C   UNL     1      -3.995  13.086  22.883  0.00  0.00    +0.128 A 
ATOM     52  F   UNL     1      -3.851  12.432  24.046  0.00  0.00    -0.205 F 
ATOM     53  H   UNL     1      -2.687  15.637  21.051  0.00  0.00    +0.062 HD
ATOM     54  H   UNL     1      -4.438  14.871  19.480  0.00  0.00    +0.062 HD
ATOM     55  H   UNL     1      -5.915  12.965  20.079  0.00  0.00    +0.062 HD
ATOM     56  H   UNL     1      -5.621  11.821  22.277  0.00  0.00    +0.065 HD
ENDBRANCH  44  46
BRANCH  44  57
ATOM     57  C   UNL     1      -2.736  14.942  24.919  0.00  0.00    -0.042 C 
ATOM     58  H   UNL     1      -2.012  15.414  25.592  0.00  0.00    +0.025 HD
ATOM     59  H   UNL     1      -3.585  15.625  24.809  0.00  0.00    +0.025 HD
ATOM     60  H   UNL     1      -3.113  14.040  25.412  0.00  0.00    +0.025 HD
ENDBRANCH  44  57
ENDBRANCH  42  44
ENDBRANCH   1  42
TORSDOF 8
ENDMDL
MODEL 23
REMARK VINA RESULT:    -8.122      2.950      4.322
REMARK INTER + INTRA:         -11.792
REMARK INTER:                 -10.671
REMARK INTRA:                  -1.121
REMARK UNBOUND:                -0.109
REMARK  Name = 
REMARK  8 active torsions:
REMARK  status: ('A' for Active; 'I' for Inactive)
REMARK    1  A    between atoms: C_1  and  C_2
REMARK    2  A    between atoms: C_2  and  N_3
REMARK    3  A    between atoms: C_2  and  C_28
REMARK    4  A    between atoms: N_3  and  C_4
REMARK    5  A    between atoms: C_12  and  N_13
REMARK    6  A    between atoms: N_16  and  C_17
REMARK    7  A    between atoms: C_17  and  C_18
REMARK    8  A    between atoms: C_24  and  C_25
REMARK                            x       y       z     vdW  Elec       q    Type
REMARK                         _______ _______ _______ _____ _____    ______ ____
ROOT
ATOM      1  C   UNL     1      -0.312  13.539  19.617  0.00  0.00    +0.028 A 
ATOM      2  C   UNL     1       0.931  12.913  19.852  0.00  0.00    -0.041 A 
ATOM      3  C   UNL     1       1.188  11.599  19.447  0.00  0.00    -0.055 A 
ATOM      4  C   UNL     1       0.202  10.916  18.761  0.00  0.00    -0.024 A 
ATOM      5  C   UNL     1      -1.016  11.535  18.475  0.00  0.00    -0.041 A 
ATOM      6  C   UNL     1      -1.278  12.837  18.882  0.00  0.00    -0.037 A 
ATOM      7  C   UNL     1      -1.943  10.591  17.768  0.00  0.00    -0.025 C 
ATOM      8  C   UNL     1      -0.964   9.515  17.275  0.00  0.00    -0.026 C 
ATOM      9  C   UNL     1       0.205   9.493  18.282  0.00  0.00    +0.050 C 
ATOM     10  H   UNL     1       1.716  13.454  20.377  0.00  0.00    +0.064 HD
ATOM     11  H   UNL     1       2.139  11.134  19.679  0.00  0.00    +0.062 HD
ATOM     12  H   UNL     1      -2.236  13.275  18.635  0.00  0.00    +0.064 HD
ATOM     13  H   UNL     1      -2.470  11.066  16.933  0.00  0.00    +0.031 HD
ATOM     14  H   UNL     1      -2.666  10.175  18.478  0.00  0.00    +0.031 HD
ATOM     15  H   UNL     1      -0.603   9.793  16.274  0.00  0.00    +0.029 HD
ATOM     16  H   UNL     1      -1.441   8.533  17.177  0.00  0.00    +0.029 HD
ATOM     17  H   UNL     1      -0.024   8.819  19.118  0.00  0.00    +0.055 HD
ENDROOT
BRANCH   9  18
ATOM     18  N   UNL     1       1.455   9.116  17.666  0.00  0.00    -0.293 N 
ATOM     19  C   UNL     1       2.242   8.152  18.238  0.00  0.00    +0.300 C 
ATOM     20  O   UNL     1       2.011   7.626  19.317  0.00  0.00    -0.253 OA
ATOM     21  N   UNL     1       3.327   7.866  17.448  0.00  0.00    -0.295 N 
ATOM     22  H   UNL     1       1.481   9.163  16.658  0.00  0.00    +0.151 HD
ATOM     23  H   UNL     1       3.642   8.654  16.901  0.00  0.00    +0.151 HD
BRANCH  21  24
ATOM     24  C   UNL     1       4.377   6.986  17.931  0.00  0.00    +0.039 C 
ATOM     25  H   UNL     1       4.037   6.539  18.870  0.00  0.00    +0.051 HD
ATOM     26  H   UNL     1       5.238   7.619  18.178  0.00  0.00    +0.051 HD
BRANCH  24  27
ATOM     27  C   UNL     1       4.819   5.969  16.907  0.00  0.00    -0.018 A 
ATOM     28  C   UNL     1       5.260   6.410  15.643  0.00  0.00    -0.054 A 
ATOM     29  C   UNL     1       5.721   5.498  14.691  0.00  0.00    -0.026 A 
ATOM     30  C   UNL     1       5.759   4.141  14.995  0.00  0.00    +0.124 A 
ATOM     31  F   UNL     1       6.209   3.274  14.079  0.00  0.00    -0.205 F 
ATOM     32  C   UNL     1       5.334   3.675  16.229  0.00  0.00    -0.014 A 
ATOM     33  C   UNL     1       4.852   4.587  17.175  0.00  0.00    +0.044 A 
ATOM     34  H   UNL     1       5.243   7.470  15.396  0.00  0.00    +0.062 HD
ATOM     35  H   UNL     1       6.056   5.837  13.714  0.00  0.00    +0.065 HD
ATOM     36  H   UNL     1       5.370   2.610  16.445  0.00  0.00    +0.065 HD
BRANCH  33  37
ATOM     37  C   UNL     1       4.390   4.020  18.454  0.00  0.00    +0.242 C 
ATOM     38  N   UNL     1       5.369   3.514  19.254  0.00  0.00    -0.325 N 
ATOM     39  O   UNL     1       3.206   4.037  18.763  0.00  0.00    -0.270 OA
ATOM     40  H   UNL     1       6.311   3.332  18.897  0.00  0.00    +0.145 HD
ATOM     41  H   UNL     1       5.095   3.022  20.089  0.00  0.00    +0.145 HD
ENDBRANCH  33  37
ENDBRANCH  24  27
ENDBRANCH  21  24
ENDBRANCH   9  18
BRANCH   1  42
ATOM     42  N   UNL     1      -0.456  14.866  20.048  0.00  0.00    -0.337 N 
ATOM     43  H   UNL     1       0.261  15.448  19.614  0.00  0.00    +0.147 HD
BRANCH  42  44
ATOM     44  C   UNL     1      -0.616  15.182  21.475  0.00  0.00    +0.046 C 
ATOM     45  H   UNL     1      -1.064  16.176  21.597  0.00  0.00    +0.055 HD
BRANCH  44  46
ATOM     46  C   UNL     1      -1.550  14.165  22.110  0.00  0.00    +0.008 A 
ATOM     47  C   UNL     1      -1.071  13.109  22.910  0.00  0.00    -0.054 A 
ATOM     48  C   UNL     1      -1.954  12.185  23.477  0.00  0.00    -0.061 A 
ATOM     49  C   UNL     1      -3.328  12.298  23.255  0.00  0.00    -0.059 A 
ATOM     50  C   UNL     1      -3.817  13.341  22.471  0.00  0.00    -0.026 A 
ATOM     51  C   UNL     1      -2.932  14.263  21.912  0.00  0.00    +0.128 A 
ATOM     52  F   UNL     1      -3.438  15.267  21.180  0.00  0.00    -0.205 F 
ATOM     53  H   UNL     1      -0.001  13.004  23.092  0.00  0.00    +0.062 HD
ATOM     54  H   UNL     1      -1.569  11.372  24.091  0.00  0.00    +0.062 HD
ATOM     55  H   UNL     1      -4.014  11.578  23.697  0.00  0.00    +0.062 HD
ATOM     56  H   UNL     1      -4.882  13.447  22.290  0.00  0.00    +0.065 HD
ENDBRANCH  44  46
BRANCH  44  57
ATOM     57  C   UNL     1       0.750  15.157  22.170  0.00  0.00    -0.042 C 
ATOM     58  H   UNL     1       1.562  15.089  21.438  0.00  0.00    +0.025 HD
ATOM     59  H   UNL     1       0.917  16.056  22.772  0.00  0.00    +0.025 HD
ATOM     60  H   UNL     1       0.836  14.299  22.845  0.00  0.00    +0.025 HD
ENDBRANCH  44  57
ENDBRANCH  42  44
ENDBRANCH   1  42
TORSDOF 8
ENDMDL
MODEL 24
REMARK VINA RESULT:    -8.118      2.511      3.728
REMARK INTER + INTRA:         -11.786
REMARK INTER:                 -11.172
REMARK INTRA:                  -0.614
REMARK UNBOUND:                -0.109
REMARK  Name = 
REMARK  8 active torsions:
REMARK  status: ('A' for Active; 'I' for Inactive)
REMARK    1  A    between atoms: C_1  and  C_2
REMARK    2  A    between atoms: C_2  and  N_3
REMARK    3  A    between atoms: C_2  and  C_28
REMARK    4  A    between atoms: N_3  and  C_4
REMARK    5  A    between atoms: C_12  and  N_13
REMARK    6  A    between atoms: N_16  and  C_17
REMARK    7  A    between atoms: C_17  and  C_18
REMARK    8  A    between atoms: C_24  and  C_25
REMARK                            x       y       z     vdW  Elec       q    Type
REMARK                         _______ _______ _______ _____ _____    ______ ____
ROOT
ATOM      1  C   UNL     1      -0.589  10.907  21.566  0.00  0.00    +0.028 A 
ATOM      2  C   UNL     1       0.034   9.827  22.230  0.00  0.00    -0.041 A 
ATOM      3  C   UNL     1       0.709   8.819  21.533  0.00  0.00    -0.055 A 
ATOM      4  C   UNL     1       0.798   8.915  20.158  0.00  0.00    -0.024 A 
ATOM      5  C   UNL     1       0.232  10.001  19.487  0.00  0.00    -0.041 A 
ATOM      6  C   UNL     1      -0.446  11.000  20.175  0.00  0.00    -0.037 A 
ATOM      7  C   UNL     1       0.411   9.867  18.005  0.00  0.00    -0.025 C 
ATOM      8  C   UNL     1       1.536   8.824  17.927  0.00  0.00    -0.026 C 
ATOM      9  C   UNL     1       1.403   7.943  19.186  0.00  0.00    +0.050 C 
ATOM     10  H   UNL     1      -0.020   9.758  23.314  0.00  0.00    +0.064 HD
ATOM     11  H   UNL     1       1.142   7.983  22.070  0.00  0.00    +0.062 HD
ATOM     12  H   UNL     1      -0.866  11.823  19.612  0.00  0.00    +0.064 HD
ATOM     13  H   UNL     1       0.706  10.810  17.531  0.00  0.00    +0.031 HD
ATOM     14  H   UNL     1      -0.511   9.492  17.548  0.00  0.00    +0.031 HD
ATOM     15  H   UNL     1       2.505   9.344  17.923  0.00  0.00    +0.029 HD
ATOM     16  H   UNL     1       1.491   8.233  17.005  0.00  0.00    +0.029 HD
ATOM     17  H   UNL     1       0.703   7.117  19.002  0.00  0.00    +0.055 HD
ENDROOT
BRANCH   9  18
ATOM     18  N   UNL     1       2.675   7.428  19.635  0.00  0.00    -0.293 N 
ATOM     19  C   UNL     1       3.161   6.253  19.125  0.00  0.00    +0.300 C 
ATOM     20  O   UNL     1       2.544   5.527  18.360  0.00  0.00    -0.253 OA
ATOM     21  N   UNL     1       4.423   5.993  19.598  0.00  0.00    -0.295 N 
ATOM     22  H   UNL     1       3.368   8.118  19.881  0.00  0.00    +0.151 HD
ATOM     23  H   UNL     1       4.586   6.361  20.524  0.00  0.00    +0.151 HD
BRANCH  21  24
ATOM     24  C   UNL     1       5.068   4.723  19.312  0.00  0.00    +0.039 C 
ATOM     25  H   UNL     1       4.337   3.927  19.481  0.00  0.00    +0.051 HD
ATOM     26  H   UNL     1       5.858   4.589  20.061  0.00  0.00    +0.051 HD
BRANCH  24  27
ATOM     27  C   UNL     1       5.703   4.675  17.944  0.00  0.00    -0.018 A 
ATOM     28  C   UNL     1       5.039   4.001  16.898  0.00  0.00    -0.054 A 
ATOM     29  C   UNL     1       5.576   3.980  15.609  0.00  0.00    -0.026 A 
ATOM     30  C   UNL     1       6.772   4.640  15.348  0.00  0.00    +0.124 A 
ATOM     31  F   UNL     1       7.277   4.620  14.108  0.00  0.00    -0.205 F 
ATOM     32  C   UNL     1       7.450   5.312  16.353  0.00  0.00    -0.014 A 
ATOM     33  C   UNL     1       6.923   5.316  17.648  0.00  0.00    +0.044 A 
ATOM     34  H   UNL     1       4.098   3.489  17.088  0.00  0.00    +0.062 HD
ATOM     35  H   UNL     1       5.067   3.456  14.805  0.00  0.00    +0.065 HD
ATOM     36  H   UNL     1       8.385   5.820  16.127  0.00  0.00    +0.065 HD
BRANCH  33  37
ATOM     37  C   UNL     1       7.709   6.024  18.673  0.00  0.00    +0.242 C 
ATOM     38  N   UNL     1       8.101   5.265  19.734  0.00  0.00    -0.325 N 
ATOM     39  O   UNL     1       7.999   7.206  18.546  0.00  0.00    -0.270 OA
ATOM     40  H   UNL     1       7.687   4.346  19.915  0.00  0.00    +0.145 HD
ATOM     41  H   UNL     1       8.549   5.725  20.510  0.00  0.00    +0.145 HD
ENDBRANCH  33  37
ENDBRANCH  24  27
ENDBRANCH  21  24
ENDBRANCH   9  18
BRANCH   1  42
ATOM     42  N   UNL     1      -1.222  11.873  22.363  0.00  0.00    -0.337 N 
ATOM     43  H   UNL     1      -2.177  12.016  22.036  0.00  0.00    +0.147 HD
BRANCH  42  44
ATOM     44  C   UNL     1      -0.558  13.149  22.670  0.00  0.00    +0.046 C 
ATOM     45  H   UNL     1       0.407  12.968  23.159  0.00  0.00    +0.055 HD
BRANCH  44  46
ATOM     46  C   UNL     1      -0.293  13.898  21.373  0.00  0.00    +0.008 A 
ATOM     47  C   UNL     1      -1.316  14.572  20.679  0.00  0.00    -0.054 A 
ATOM     48  C   UNL     1      -1.044  15.250  19.486  0.00  0.00    -0.061 A 
ATOM     49  C   UNL     1       0.251  15.263  18.966  0.00  0.00    -0.059 A 
ATOM     50  C   UNL     1       1.275  14.605  19.645  0.00  0.00    -0.026 A 
ATOM     51  C   UNL     1       0.999  13.936  20.837  0.00  0.00    +0.128 A 
ATOM     52  F   UNL     1       2.011  13.331  21.477  0.00  0.00    -0.205 F 
ATOM     53  H   UNL     1      -2.335  14.570  21.070  0.00  0.00    +0.062 HD
ATOM     54  H   UNL     1      -1.846  15.764  18.958  0.00  0.00    +0.062 HD
ATOM     55  H   UNL     1       0.462  15.790  18.037  0.00  0.00    +0.062 HD
ATOM     56  H   UNL     1       2.290  14.607  19.257  0.00  0.00    +0.065 HD
ENDBRANCH  44  46
BRANCH  44  57
ATOM     57  C   UNL     1      -1.445  13.987  23.597  0.00  0.00    -0.042 C 
ATOM     58  H   UNL     1      -1.341  13.664  24.638  0.00  0.00    +0.025 HD
ATOM     59  H   UNL     1      -1.191  15.051  23.550  0.00  0.00    +0.025 HD
ATOM     60  H   UNL     1      -2.501  13.898  23.323  0.00  0.00    +0.025 HD
ENDBRANCH  44  57
ENDBRANCH  42  44
ENDBRANCH   1  42
TORSDOF 8
ENDMDL
MODEL 25
REMARK VINA RESULT:    -8.108      4.598     11.426
REMARK INTER + INTRA:         -11.772
REMARK INTER:                 -10.205
REMARK INTRA:                  -1.566
REMARK UNBOUND:                -0.109
REMARK  Name = 
REMARK  8 active torsions:
REMARK  status: ('A' for Active; 'I' for Inactive)
REMARK    1  A    between atoms: C_1  and  C_2
REMARK    2  A    between atoms: C_2  and  N_3
REMARK    3  A    between atoms: C_2  and  C_28
REMARK    4  A    between atoms: N_3  and  C_4
REMARK    5  A    between atoms: C_12  and  N_13
REMARK    6  A    between atoms: N_16  and  C_17
REMARK    7  A    between atoms: C_17  and  C_18
REMARK    8  A    between atoms: C_24  and  C_25
REMARK                            x       y       z     vdW  Elec       q    Type
REMARK                         _______ _______ _______ _____ _____    ______ ____
ROOT
ATOM      1  C   UNL     1       2.831   7.104  18.107  0.00  0.00    +0.028 A 
ATOM      2  C   UNL     1       2.369   8.291  17.501  0.00  0.00    -0.041 A 
ATOM      3  C   UNL     1       1.541   9.195  18.176  0.00  0.00    -0.055 A 
ATOM      4  C   UNL     1       1.207   8.927  19.490  0.00  0.00    -0.024 A 
ATOM      5  C   UNL     1       1.695   7.783  20.123  0.00  0.00    -0.041 A 
ATOM      6  C   UNL     1       2.510   6.879  19.453  0.00  0.00    -0.037 A 
ATOM      7  C   UNL     1       1.164   7.677  21.521  0.00  0.00    -0.025 C 
ATOM      8  C   UNL     1       0.687   9.116  21.776  0.00  0.00    -0.026 C 
ATOM      9  C   UNL     1       0.292   9.694  20.401  0.00  0.00    +0.050 C 
ATOM     10  H   UNL     1       2.645   8.514  16.472  0.00  0.00    +0.064 HD
ATOM     11  H   UNL     1       1.171  10.078  17.668  0.00  0.00    +0.062 HD
ATOM     12  H   UNL     1       2.866   6.008  19.987  0.00  0.00    +0.064 HD
ATOM     13  H   UNL     1       1.934   7.378  22.241  0.00  0.00    +0.031 HD
ATOM     14  H   UNL     1       0.328   6.971  21.553  0.00  0.00    +0.031 HD
ATOM     15  H   UNL     1       1.515   9.694  22.211  0.00  0.00    +0.029 HD
ATOM     16  H   UNL     1      -0.140   9.158  22.493  0.00  0.00    +0.029 HD
ATOM     17  H   UNL     1      -0.753   9.450  20.170  0.00  0.00    +0.055 HD
ENDROOT
BRANCH   9  18
ATOM     18  N   UNL     1       0.500  11.121  20.324  0.00  0.00    -0.293 N 
ATOM     19  C   UNL     1      -0.532  11.983  20.589  0.00  0.00    +0.300 C 
ATOM     20  O   UNL     1      -1.683  11.633  20.806  0.00  0.00    -0.253 OA
ATOM     21  N   UNL     1      -0.106  13.287  20.566  0.00  0.00    -0.295 N 
ATOM     22  H   UNL     1       1.420  11.447  20.580  0.00  0.00    +0.151 HD
ATOM     23  H   UNL     1       0.663  13.444  19.930  0.00  0.00    +0.151 HD
BRANCH  21  24
ATOM     24  C   UNL     1      -1.062  14.375  20.666  0.00  0.00    +0.039 C 
ATOM     25  H   UNL     1      -1.820  14.230  19.890  0.00  0.00    +0.051 HD
ATOM     26  H   UNL     1      -0.526  15.298  20.415  0.00  0.00    +0.051 HD
BRANCH  24  27
ATOM     27  C   UNL     1      -1.643  14.530  22.051  0.00  0.00    -0.018 A 
ATOM     28  C   UNL     1      -0.778  14.760  23.140  0.00  0.00    -0.054 A 
ATOM     29  C   UNL     1      -1.287  14.957  24.426  0.00  0.00    -0.026 A 
ATOM     30  C   UNL     1      -2.662  14.940  24.634  0.00  0.00    +0.124 A 
ATOM     31  F   UNL     1      -3.142  15.136  25.868  0.00  0.00    -0.205 F 
ATOM     32  C   UNL     1      -3.540  14.719  23.585  0.00  0.00    -0.014 A 
ATOM     33  C   UNL     1      -3.029  14.501  22.301  0.00  0.00    +0.044 A 
ATOM     34  H   UNL     1       0.299  14.784  22.987  0.00  0.00    +0.062 HD
ATOM     35  H   UNL     1      -0.620  15.128  25.266  0.00  0.00    +0.065 HD
ATOM     36  H   UNL     1      -4.611  14.708  23.771  0.00  0.00    +0.065 HD
BRANCH  33  37
ATOM     37  C   UNL     1      -4.016  14.243  21.238  0.00  0.00    +0.242 C 
ATOM     38  N   UNL     1      -4.331  12.932  21.042  0.00  0.00    -0.325 N 
ATOM     39  O   UNL     1      -4.523  15.160  20.608  0.00  0.00    -0.270 OA
ATOM     40  H   UNL     1      -3.759  12.180  21.437  0.00  0.00    +0.145 HD
ATOM     41  H   UNL     1      -4.920  12.695  20.260  0.00  0.00    +0.145 HD
ENDBRANCH  33  37
ENDBRANCH  24  27
ENDBRANCH  21  24
ENDBRANCH   9  18
BRANCH   1  42
ATOM     42  N   UNL     1       3.672   6.278  17.346  0.00  0.00    -0.337 N 
ATOM     43  H   UNL     1       3.802   5.386  17.823  0.00  0.00    +0.147 HD
BRANCH  42  44
ATOM     44  C   UNL     1       4.940   6.789  16.803  0.00  0.00    +0.046 C 
ATOM     45  H   UNL     1       4.899   7.882  16.706  0.00  0.00    +0.055 HD
BRANCH  44  46
ATOM     46  C   UNL     1       6.068   6.446  17.762  0.00  0.00    +0.008 A 
ATOM     47  C   UNL     1       6.005   5.331  18.620  0.00  0.00    -0.054 A 
ATOM     48  C   UNL     1       7.057   5.041  19.495  0.00  0.00    -0.061 A 
ATOM     49  C   UNL     1       8.186   5.861  19.530  0.00  0.00    -0.059 A 
ATOM     50  C   UNL     1       8.266   6.964  18.683  0.00  0.00    -0.026 A 
ATOM     51  C   UNL     1       7.217   7.244  17.808  0.00  0.00    +0.128 A 
ATOM     52  F   UNL     1       7.335   8.302  16.991  0.00  0.00    -0.205 F 
ATOM     53  H   UNL     1       5.128   4.681  18.608  0.00  0.00    +0.062 HD
ATOM     54  H   UNL     1       6.992   4.178  20.155  0.00  0.00    +0.062 HD
ATOM     55  H   UNL     1       9.005   5.634  20.212  0.00  0.00    +0.062 HD
ATOM     56  H   UNL     1       9.139   7.610  18.694  0.00  0.00    +0.065 HD
ENDBRANCH  44  46
BRANCH  44  57
ATOM     57  C   UNL     1       5.204   6.170  15.427  0.00  0.00    -0.042 C 
ATOM     58  H   UNL     1       4.678   5.215  15.318  0.00  0.00    +0.025 HD
ATOM     59  H   UNL     1       4.875   6.827  14.615  0.00  0.00    +0.025 HD
ATOM     60  H   UNL     1       6.272   5.983  15.273  0.00  0.00    +0.025 HD
ENDBRANCH  44  57
ENDBRANCH  42  44
ENDBRANCH   1  42
TORSDOF 8
ENDMDL
MODEL 26
REMARK VINA RESULT:    -8.063      2.340      3.692
REMARK INTER + INTRA:         -11.707
REMARK INTER:                 -11.232
REMARK INTRA:                  -0.475
REMARK UNBOUND:                -0.109
REMARK  Name = 
REMARK  8 active torsions:
REMARK  status: ('A' for Active; 'I' for Inactive)
REMARK    1  A    between atoms: C_1  and  C_2
REMARK    2  A    between atoms: C_2  and  N_3
REMARK    3  A    between atoms: C_2  and  C_28
REMARK    4  A    between atoms: N_3  and  C_4
REMARK    5  A    between atoms: C_12  and  N_13
REMARK    6  A    between atoms: N_16  and  C_17
REMARK    7  A    between atoms: C_17  and  C_18
REMARK    8  A    between atoms: C_24  and  C_25
REMARK                            x       y       z     vdW  Elec       q    Type
REMARK                         _______ _______ _______ _____ _____    ______ ____
ROOT
ATOM      1  C   UNL     1       1.395   6.408  20.427  0.00  0.00    +0.028 A 
ATOM      2  C   UNL     1       2.737   6.646  20.061  0.00  0.00    -0.041 A 
ATOM      3  C   UNL     1       3.640   5.602  19.832  0.00  0.00    -0.055 A 
ATOM      4  C   UNL     1       3.182   4.302  19.930  0.00  0.00    -0.024 A 
ATOM      5  C   UNL     1       1.846   4.046  20.243  0.00  0.00    -0.041 A 
ATOM      6  C   UNL     1       0.949   5.080  20.478  0.00  0.00    -0.037 A 
ATOM      7  C   UNL     1       1.593   2.571  20.341  0.00  0.00    -0.025 C 
ATOM      8  C   UNL     1       2.816   2.002  19.604  0.00  0.00    -0.026 C 
ATOM      9  C   UNL     1       3.957   3.022  19.799  0.00  0.00    +0.050 C 
ATOM     10  H   UNL     1       3.096   7.669  19.965  0.00  0.00    +0.064 HD
ATOM     11  H   UNL     1       4.674   5.820  19.591  0.00  0.00    +0.062 HD
ATOM     12  H   UNL     1      -0.078   4.831  20.715  0.00  0.00    +0.064 HD
ATOM     13  H   UNL     1       0.658   2.272  19.855  0.00  0.00    +0.031 HD
ATOM     14  H   UNL     1       1.584   2.262  21.392  0.00  0.00    +0.031 HD
ATOM     15  H   UNL     1       2.572   1.899  18.537  0.00  0.00    +0.029 HD
ATOM     16  H   UNL     1       3.090   1.004  19.964  0.00  0.00    +0.029 HD
ATOM     17  H   UNL     1       4.497   2.817  20.733  0.00  0.00    +0.055 HD
ENDROOT
BRANCH   9  18
ATOM     18  N   UNL     1       4.876   3.040  18.686  0.00  0.00    -0.293 N 
ATOM     19  C   UNL     1       4.404   3.162  17.405  0.00  0.00    +0.300 C 
ATOM     20  O   UNL     1       3.219   3.166  17.105  0.00  0.00    -0.253 OA
ATOM     21  N   UNL     1       5.435   3.264  16.506  0.00  0.00    -0.295 N 
ATOM     22  H   UNL     1       5.775   3.460  18.863  0.00  0.00    +0.151 HD
ATOM     23  H   UNL     1       6.269   2.774  16.797  0.00  0.00    +0.151 HD
BRANCH  21  24
ATOM     24  C   UNL     1       5.171   3.246  15.078  0.00  0.00    +0.039 C 
ATOM     25  H   UNL     1       4.131   3.548  14.924  0.00  0.00    +0.051 HD
ATOM     26  H   UNL     1       5.247   2.202  14.751  0.00  0.00    +0.051 HD
BRANCH  24  27
ATOM     27  C   UNL     1       6.158   4.062  14.280  0.00  0.00    -0.018 A 
ATOM     28  C   UNL     1       6.995   4.978  14.948  0.00  0.00    -0.054 A 
ATOM     29  C   UNL     1       7.953   5.713  14.245  0.00  0.00    -0.026 A 
ATOM     30  C   UNL     1       8.093   5.532  12.873  0.00  0.00    +0.124 A 
ATOM     31  F   UNL     1       9.017   6.235  12.208  0.00  0.00    -0.205 F 
ATOM     32  C   UNL     1       7.285   4.639  12.186  0.00  0.00    -0.014 A 
ATOM     33  C   UNL     1       6.313   3.918  12.887  0.00  0.00    +0.044 A 
ATOM     34  H   UNL     1       6.902   5.122  16.023  0.00  0.00    +0.062 HD
ATOM     35  H   UNL     1       8.595   6.423  14.759  0.00  0.00    +0.065 HD
ATOM     36  H   UNL     1       7.410   4.514  11.113  0.00  0.00    +0.065 HD
BRANCH  33  37
ATOM     37  C   UNL     1       5.471   3.009  12.090  0.00  0.00    +0.242 C 
ATOM     38  N   UNL     1       6.044   1.815  11.771  0.00  0.00    -0.325 N 
ATOM     39  O   UNL     1       4.331   3.317  11.771  0.00  0.00    -0.270 OA
ATOM     40  H   UNL     1       7.051   1.661  11.875  0.00  0.00    +0.145 HD
ATOM     41  H   UNL     1       5.551   1.203  11.140  0.00  0.00    +0.145 HD
ENDBRANCH  33  37
ENDBRANCH  24  27
ENDBRANCH  21  24
ENDBRANCH   9  18
BRANCH   1  42
ATOM     42  N   UNL     1       0.569   7.527  20.613  0.00  0.00    -0.337 N 
ATOM     43  H   UNL     1      -0.173   7.527  19.913  0.00  0.00    +0.147 HD
BRANCH  42  44
ATOM     44  C   UNL     1       1.148   8.868  20.786  0.00  0.00    +0.046 C 
ATOM     45  H   UNL     1       2.131   8.924  20.303  0.00  0.00    +0.055 HD
BRANCH  44  46
ATOM     46  C   UNL     1       0.240   9.893  20.123  0.00  0.00    +0.008 A 
ATOM     47  C   UNL     1      -0.525  10.807  20.873  0.00  0.00    -0.054 A 
ATOM     48  C   UNL     1      -1.355  11.735  20.236  0.00  0.00    -0.061 A 
ATOM     49  C   UNL     1      -1.435  11.765  18.843  0.00  0.00    -0.059 A 
ATOM     50  C   UNL     1      -0.679  10.871  18.088  0.00  0.00    -0.026 A 
ATOM     51  C   UNL     1       0.150   9.951  18.728  0.00  0.00    +0.128 A 
ATOM     52  F   UNL     1       0.881   9.118  17.971  0.00  0.00    -0.205 F 
ATOM     53  H   UNL     1      -0.476  10.796  21.963  0.00  0.00    +0.062 HD
ATOM     54  H   UNL     1      -1.944  12.434  20.828  0.00  0.00    +0.062 HD
ATOM     55  H   UNL     1      -2.082  12.489  18.348  0.00  0.00    +0.062 HD
ATOM     56  H   UNL     1      -0.727  10.882  17.003  0.00  0.00    +0.065 HD
ENDBRANCH  44  46
BRANCH  44  57
ATOM     57  C   UNL     1       1.301   9.180  22.279  0.00  0.00    -0.042 C 
ATOM     58  H   UNL     1       1.246   8.265  22.879  0.00  0.00    +0.025 HD
ATOM     59  H   UNL     1       2.257   9.666  22.497  0.00  0.00    +0.025 HD
ATOM     60  H   UNL     1       0.512   9.855  22.627  0.00  0.00    +0.025 HD
ENDBRANCH  44  57
ENDBRANCH  42  44
ENDBRANCH   1  42
TORSDOF 8
ENDMDL
MODEL 27
REMARK VINA RESULT:    -8.028      4.166     11.073
REMARK INTER + INTRA:         -11.658
REMARK INTER:                 -11.079
REMARK INTRA:                  -0.579
REMARK UNBOUND:                -0.109
REMARK  Name = 
REMARK  8 active torsions:
REMARK  status: ('A' for Active; 'I' for Inactive)
REMARK    1  A    between atoms: C_1  and  C_2
REMARK    2  A    between atoms: C_2  and  N_3
REMARK    3  A    between atoms: C_2  and  C_28
REMARK    4  A    between atoms: N_3  and  C_4
REMARK    5  A    between atoms: C_12  and  N_13
REMARK    6  A    between atoms: N_16  and  C_17
REMARK    7  A    between atoms: C_17  and  C_18
REMARK    8  A    between atoms: C_24  and  C_25
REMARK                            x       y       z     vdW  Elec       q    Type
REMARK                         _______ _______ _______ _____ _____    ______ ____
ROOT
ATOM      1  C   UNL     1       2.710   5.718  19.546  0.00  0.00    +0.028 A 
ATOM      2  C   UNL     1       1.986   6.194  20.660  0.00  0.00    -0.041 A 
ATOM      3  C   UNL     1       1.468   7.493  20.708  0.00  0.00    -0.055 A 
ATOM      4  C   UNL     1       1.643   8.312  19.609  0.00  0.00    -0.024 A 
ATOM      5  C   UNL     1       2.314   7.843  18.478  0.00  0.00    -0.041 A 
ATOM      6  C   UNL     1       2.835   6.556  18.430  0.00  0.00    -0.037 A 
ATOM      7  C   UNL     1       2.423   8.917  17.437  0.00  0.00    -0.025 C 
ATOM      8  C   UNL     1       1.347   9.908  17.907  0.00  0.00    -0.026 C 
ATOM      9  C   UNL     1       1.247   9.751  19.438  0.00  0.00    +0.050 C 
ATOM     10  H   UNL     1       1.831   5.545  21.520  0.00  0.00    +0.064 HD
ATOM     11  H   UNL     1       0.952   7.841  21.595  0.00  0.00    +0.062 HD
ATOM     12  H   UNL     1       3.345   6.237  17.531  0.00  0.00    +0.064 HD
ATOM     13  H   UNL     1       2.213   8.546  16.428  0.00  0.00    +0.031 HD
ATOM     14  H   UNL     1       3.420   9.369  17.469  0.00  0.00    +0.031 HD
ATOM     15  H   UNL     1       0.390   9.646  17.432  0.00  0.00    +0.029 HD
ATOM     16  H   UNL     1       1.575  10.938  17.612  0.00  0.00    +0.029 HD
ATOM     17  H   UNL     1       1.980  10.400  19.937  0.00  0.00    +0.055 HD
ENDROOT
BRANCH   9  18
ATOM     18  N   UNL     1      -0.081  10.025  19.934  0.00  0.00    -0.293 N 
ATOM     19  C   UNL     1      -0.628  11.272  19.787  0.00  0.00    +0.300 C 
ATOM     20  O   UNL     1      -0.030  12.237  19.333  0.00  0.00    -0.253 OA
ATOM     21  N   UNL     1      -1.928  11.297  20.226  0.00  0.00    -0.295 N 
ATOM     22  H   UNL     1      -0.731   9.254  19.901  0.00  0.00    +0.151 HD
ATOM     23  H   UNL     1      -2.108  10.644  20.976  0.00  0.00    +0.151 HD
BRANCH  21  24
ATOM     24  C   UNL     1      -2.652  12.553  20.309  0.00  0.00    +0.039 C 
ATOM     25  H   UNL     1      -3.606  12.427  19.788  0.00  0.00    +0.051 HD
ATOM     26  H   UNL     1      -2.077  13.293  19.739  0.00  0.00    +0.051 HD
BRANCH  24  27
ATOM     27  C   UNL     1      -2.803  13.060  21.722  0.00  0.00    -0.018 A 
ATOM     28  C   UNL     1      -3.904  12.637  22.494  0.00  0.00    -0.054 A 
ATOM     29  C   UNL     1      -4.045  13.049  23.821  0.00  0.00    -0.026 A 
ATOM     30  C   UNL     1      -3.085  13.876  24.394  0.00  0.00    +0.124 A 
ATOM     31  F   UNL     1      -3.225  14.261  25.668  0.00  0.00    -0.205 F 
ATOM     32  C   UNL     1      -1.990  14.310  23.663  0.00  0.00    -0.014 A 
ATOM     33  C   UNL     1      -1.860  13.913  22.328  0.00  0.00    +0.044 A 
ATOM     34  H   UNL     1      -4.657  11.982  22.059  0.00  0.00    +0.062 HD
ATOM     35  H   UNL     1      -4.897  12.727  24.414  0.00  0.00    +0.065 HD
ATOM     36  H   UNL     1      -1.252  14.957  24.130  0.00  0.00    +0.065 HD
BRANCH  33  37
ATOM     37  C   UNL     1      -0.688  14.435  21.602  0.00  0.00    +0.242 C 
ATOM     38  N   UNL     1       0.510  13.905  21.975  0.00  0.00    -0.325 N 
ATOM     39  O   UNL     1      -0.811  15.267  20.714  0.00  0.00    -0.270 OA
ATOM     40  H   UNL     1       0.611  13.367  22.840  0.00  0.00    +0.145 HD
ATOM     41  H   UNL     1       1.350  14.303  21.584  0.00  0.00    +0.145 HD
ENDBRANCH  33  37
ENDBRANCH  24  27
ENDBRANCH  21  24
ENDBRANCH   9  18
BRANCH   1  42
ATOM     42  N   UNL     1       3.167   4.392  19.595  0.00  0.00    -0.337 N 
ATOM     43  H   UNL     1       4.009   4.339  20.168  0.00  0.00    +0.147 HD
BRANCH  42  44
ATOM     44  C   UNL     1       3.299   3.595  18.366  0.00  0.00    +0.046 C 
ATOM     45  H   UNL     1       2.444   3.774  17.702  0.00  0.00    +0.055 HD
BRANCH  44  46
ATOM     46  C   UNL     1       4.561   4.018  17.630  0.00  0.00    +0.008 A 
ATOM     47  C   UNL     1       4.608   4.115  16.227  0.00  0.00    -0.054 A 
ATOM     48  C   UNL     1       5.784   4.502  15.576  0.00  0.00    -0.061 A 
ATOM     49  C   UNL     1       6.931   4.796  16.315  0.00  0.00    -0.059 A 
ATOM     50  C   UNL     1       6.897   4.710  17.706  0.00  0.00    -0.026 A 
ATOM     51  C   UNL     1       5.721   4.329  18.349  0.00  0.00    +0.128 A 
ATOM     52  F   UNL     1       5.716   4.276  19.690  0.00  0.00    -0.205 F 
ATOM     53  H   UNL     1       3.722   3.887  15.632  0.00  0.00    +0.062 HD
ATOM     54  H   UNL     1       5.807   4.570  14.490  0.00  0.00    +0.062 HD
ATOM     55  H   UNL     1       7.846   5.098  15.808  0.00  0.00    +0.062 HD
ATOM     56  H   UNL     1       7.779   4.938  18.298  0.00  0.00    +0.065 HD
ENDBRANCH  44  46
BRANCH  44  57
ATOM     57  C   UNL     1       3.361   2.104  18.717  0.00  0.00    -0.042 C 
ATOM     58  H   UNL     1       3.875   1.946  19.671  0.00  0.00    +0.025 HD
ATOM     59  H   UNL     1       2.362   1.664  18.799  0.00  0.00    +0.025 HD
ATOM     60  H   UNL     1       3.898   1.538  17.949  0.00  0.00    +0.025 HD
ENDBRANCH  44  57
ENDBRANCH  42  44
ENDBRANCH   1  42
TORSDOF 8
ENDMDL
MODEL 28
REMARK VINA RESULT:    -7.836      2.756      9.904
REMARK INTER + INTRA:         -11.381
REMARK INTER:                 -11.674
REMARK INTRA:                   0.292
REMARK UNBOUND:                -0.109
REMARK  Name = 
REMARK  8 active torsions:
REMARK  status: ('A' for Active; 'I' for Inactive)
REMARK    1  A    between atoms: C_1  and  C_2
REMARK    2  A    between atoms: C_2  and  N_3
REMARK    3  A    between atoms: C_2  and  C_28
REMARK    4  A    between atoms: N_3  and  C_4
REMARK    5  A    between atoms: C_12  and  N_13
REMARK    6  A    between atoms: N_16  and  C_17
REMARK    7  A    between atoms: C_17  and  C_18
REMARK    8  A    between atoms: C_24  and  C_25
REMARK                            x       y       z     vdW  Elec       q    Type
REMARK                         _______ _______ _______ _____ _____    ______ ____
ROOT
ATOM      1  C   UNL     1       4.096   3.311  17.256  0.00  0.00    +0.028 A 
ATOM      2  C   UNL     1       2.945   4.100  17.047  0.00  0.00    -0.041 A 
ATOM      3  C   UNL     1       1.969   4.266  18.036  0.00  0.00    -0.055 A 
ATOM      4  C   UNL     1       2.169   3.667  19.265  0.00  0.00    -0.024 A 
ATOM      5  C   UNL     1       3.325   2.924  19.508  0.00  0.00    -0.041 A 
ATOM      6  C   UNL     1       4.292   2.751  18.526  0.00  0.00    -0.037 A 
ATOM      7  C   UNL     1       3.301   2.334  20.887  0.00  0.00    -0.025 C 
ATOM      8  C   UNL     1       2.224   3.193  21.568  0.00  0.00    -0.026 C 
ATOM      9  C   UNL     1       1.253   3.639  20.455  0.00  0.00    +0.050 C 
ATOM     10  H   UNL     1       2.793   4.588  16.086  0.00  0.00    +0.064 HD
ATOM     11  H   UNL     1       1.077   4.846  17.829  0.00  0.00    +0.062 HD
ATOM     12  H   UNL     1       5.172   2.168  18.763  0.00  0.00    +0.064 HD
ATOM     13  H   UNL     1       4.266   2.422  21.398  0.00  0.00    +0.031 HD
ATOM     14  H   UNL     1       2.998   1.282  20.839  0.00  0.00    +0.031 HD
ATOM     15  H   UNL     1       2.706   4.067  22.030  0.00  0.00    +0.029 HD
ATOM     16  H   UNL     1       1.710   2.654  22.371  0.00  0.00    +0.029 HD
ATOM     17  H   UNL     1       0.472   2.882  20.304  0.00  0.00    +0.055 HD
ENDROOT
BRANCH   9  18
ATOM     18  N   UNL     1       0.656   4.924  20.729  0.00  0.00    -0.293 N 
ATOM     19  C   UNL     1       1.440   6.045  20.812  0.00  0.00    +0.300 C 
ATOM     20  O   UNL     1       2.661   6.035  20.763  0.00  0.00    -0.253 OA
ATOM     21  N   UNL     1       0.676   7.173  20.971  0.00  0.00    -0.295 N 
ATOM     22  H   UNL     1      -0.272   5.066  20.361  0.00  0.00    +0.151 HD
ATOM     23  H   UNL     1      -0.188   7.003  21.467  0.00  0.00    +0.151 HD
BRANCH  21  24
ATOM     24  C   UNL     1       1.303   8.455  21.238  0.00  0.00    +0.039 C 
ATOM     25  H   UNL     1       1.966   8.688  20.399  0.00  0.00    +0.051 HD
ATOM     26  H   UNL     1       1.944   8.322  22.118  0.00  0.00    +0.051 HD
BRANCH  24  27
ATOM     27  C   UNL     1       0.311   9.551  21.541  0.00  0.00    -0.018 A 
ATOM     28  C   UNL     1      -0.259   9.630  22.828  0.00  0.00    -0.054 A 
ATOM     29  C   UNL     1      -1.143  10.661  23.155  0.00  0.00    -0.026 A 
ATOM     30  C   UNL     1      -1.456  11.629  22.207  0.00  0.00    +0.124 A 
ATOM     31  F   UNL     1      -2.299  12.617  22.530  0.00  0.00    -0.205 F 
ATOM     32  C   UNL     1      -0.913  11.581  20.933  0.00  0.00    -0.014 A 
ATOM     33  C   UNL     1      -0.044  10.537  20.599  0.00  0.00    +0.044 A 
ATOM     34  H   UNL     1      -0.015   8.883  23.581  0.00  0.00    +0.062 HD
ATOM     35  H   UNL     1      -1.587  10.718  24.145  0.00  0.00    +0.065 HD
ATOM     36  H   UNL     1      -1.172  12.347  20.206  0.00  0.00    +0.065 HD
BRANCH  33  37
ATOM     37  C   UNL     1       0.474  10.532  19.220  0.00  0.00    +0.242 C 
ATOM     38  N   UNL     1       1.512  11.382  18.985  0.00  0.00    -0.325 N 
ATOM     39  O   UNL     1       0.005   9.788  18.369  0.00  0.00    -0.270 OA
ATOM     40  H   UNL     1       1.755  12.125  19.646  0.00  0.00    +0.145 HD
ATOM     41  H   UNL     1       1.832  11.492  18.036  0.00  0.00    +0.145 HD
ENDBRANCH  33  37
ENDBRANCH  24  27
ENDBRANCH  21  24
ENDBRANCH   9  18
BRANCH   1  42
ATOM     42  N   UNL     1       5.020   3.229  16.204  0.00  0.00    -0.337 N 
ATOM     43  H   UNL     1       5.500   2.330  16.238  0.00  0.00    +0.147 HD
BRANCH  42  44
ATOM     44  C   UNL     1       5.956   4.332  15.935  0.00  0.00    +0.046 C 
ATOM     45  H   UNL     1       6.860   4.221  16.546  0.00  0.00    +0.055 HD
BRANCH  44  46
ATOM     46  C   UNL     1       6.369   4.290  14.473  0.00  0.00    +0.008 A 
ATOM     47  C   UNL     1       5.719   3.464  13.537  0.00  0.00    -0.054 A 
ATOM     48  C   UNL     1       6.124   3.443  12.198  0.00  0.00    -0.061 A 
ATOM     49  C   UNL     1       7.185   4.244  11.774  0.00  0.00    -0.059 A 
ATOM     50  C   UNL     1       7.834   5.072  12.687  0.00  0.00    -0.026 A 
ATOM     51  C   UNL     1       7.422   5.093  14.019  0.00  0.00    +0.128 A 
ATOM     52  F   UNL     1       8.055   5.916  14.868  0.00  0.00    -0.205 F 
ATOM     53  H   UNL     1       4.889   2.829  13.852  0.00  0.00    +0.062 HD
ATOM     54  H   UNL     1       5.614   2.796  11.486  0.00  0.00    +0.062 HD
ATOM     55  H   UNL     1       7.500   4.227  10.731  0.00  0.00    +0.062 HD
ATOM     56  H   UNL     1       8.660   5.705  12.374  0.00  0.00    +0.065 HD
ENDBRANCH  44  46
BRANCH  44  57
ATOM     57  C   UNL     1       5.287   5.671  16.262  0.00  0.00    -0.042 C 
ATOM     58  H   UNL     1       4.199   5.565  16.316  0.00  0.00    +0.025 HD
ATOM     59  H   UNL     1       5.631   6.075  17.220  0.00  0.00    +0.025 HD
ATOM     60  H   UNL     1       5.513   6.424  15.499  0.00  0.00    +0.025 HD
ENDBRANCH  44  57
ENDBRANCH  42  44
ENDBRANCH   1  42
TORSDOF 8
ENDMDL
MODEL 29
REMARK VINA RESULT:    -7.809      3.816     10.027
REMARK INTER + INTRA:         -11.342
REMARK INTER:                 -10.645
REMARK INTRA:                  -0.698
REMARK UNBOUND:                -0.109
REMARK  Name = 
REMARK  8 active torsions:
REMARK  status: ('A' for Active; 'I' for Inactive)
REMARK    1  A    between atoms: C_1  and  C_2
REMARK    2  A    between atoms: C_2  and  N_3
REMARK    3  A    between atoms: C_2  and  C_28
REMARK    4  A    between atoms: N_3  and  C_4
REMARK    5  A    between atoms: C_12  and  N_13
REMARK    6  A    between atoms: N_16  and  C_17
REMARK    7  A    between atoms: C_17  and  C_18
REMARK    8  A    between atoms: C_24  and  C_25
REMARK                            x       y       z     vdW  Elec       q    Type
REMARK                         _______ _______ _______ _____ _____    ______ ____
ROOT
ATOM      1  C   UNL     1       4.238   6.099  18.334  0.00  0.00    +0.028 A 
ATOM      2  C   UNL     1       3.974   7.056  17.330  0.00  0.00    -0.041 A 
ATOM      3  C   UNL     1       2.970   8.020  17.471  0.00  0.00    -0.055 A 
ATOM      4  C   UNL     1       2.248   8.053  18.649  0.00  0.00    -0.024 A 
ATOM      5  C   UNL     1       2.528   7.147  19.673  0.00  0.00    -0.041 A 
ATOM      6  C   UNL     1       3.519   6.183  19.534  0.00  0.00    -0.037 A 
ATOM      7  C   UNL     1       1.592   7.340  20.829  0.00  0.00    -0.025 C 
ATOM      8  C   UNL     1       1.046   8.748  20.546  0.00  0.00    -0.026 C 
ATOM      9  C   UNL     1       1.090   8.935  19.016  0.00  0.00    +0.050 C 
ATOM     10  H   UNL     1       4.552   7.044  16.408  0.00  0.00    +0.064 HD
ATOM     11  H   UNL     1       2.766   8.715  16.664  0.00  0.00    +0.062 HD
ATOM     12  H   UNL     1       3.700   5.504  20.357  0.00  0.00    +0.064 HD
ATOM     13  H   UNL     1       2.104   7.296  21.796  0.00  0.00    +0.031 HD
ATOM     14  H   UNL     1       0.794   6.591  20.794  0.00  0.00    +0.031 HD
ATOM     15  H   UNL     1       1.693   9.487  21.041  0.00  0.00    +0.029 HD
ATOM     16  H   UNL     1       0.037   8.891  20.950  0.00  0.00    +0.029 HD
ATOM     17  H   UNL     1       0.169   8.549  18.558  0.00  0.00    +0.055 HD
ENDROOT
BRANCH   9  18
ATOM     18  N   UNL     1       1.297  10.312  18.635  0.00  0.00    -0.293 N 
ATOM     19  C   UNL     1       0.340  11.254  18.907  0.00  0.00    +0.300 C 
ATOM     20  O   UNL     1      -0.757  11.003  19.383  0.00  0.00    -0.253 OA
ATOM     21  N   UNL     1       0.771  12.511  18.564  0.00  0.00    -0.295 N 
ATOM     22  H   UNL     1       2.252  10.637  18.660  0.00  0.00    +0.151 HD
ATOM     23  H   UNL     1       1.415  12.513  17.785  0.00  0.00    +0.151 HD
BRANCH  21  24
ATOM     24  C   UNL     1      -0.139  13.641  18.620  0.00  0.00    +0.039 C 
ATOM     25  H   UNL     1      -1.046  13.372  18.072  0.00  0.00    +0.051 HD
ATOM     26  H   UNL     1       0.333  14.461  18.066  0.00  0.00    +0.051 HD
BRANCH  24  27
ATOM     27  C   UNL     1      -0.407  14.118  20.027  0.00  0.00    -0.018 A 
ATOM     28  C   UNL     1      -1.738  14.315  20.447  0.00  0.00    -0.054 A 
ATOM     29  C   UNL     1      -2.023  14.708  21.757  0.00  0.00    -0.026 A 
ATOM     30  C   UNL     1      -0.985  14.895  22.663  0.00  0.00    +0.124 A 
ATOM     31  F   UNL     1      -1.266  15.265  23.918  0.00  0.00    -0.205 F 
ATOM     32  C   UNL     1       0.335  14.708  22.283  0.00  0.00    -0.014 A 
ATOM     33  C   UNL     1       0.621  14.335  20.966  0.00  0.00    +0.044 A 
ATOM     34  H   UNL     1      -2.560  14.164  19.749  0.00  0.00    +0.062 HD
ATOM     35  H   UNL     1      -3.049  14.866  22.078  0.00  0.00    +0.065 HD
ATOM     36  H   UNL     1       1.132  14.861  23.007  0.00  0.00    +0.065 HD
BRANCH  33  37
ATOM     37  C   UNL     1       2.046  14.182  20.623  0.00  0.00    +0.242 C 
ATOM     38  N   UNL     1       2.618  15.261  20.020  0.00  0.00    -0.325 N 
ATOM     39  O   UNL     1       2.657  13.157  20.893  0.00  0.00    -0.270 OA
ATOM     40  H   UNL     1       2.051  16.019  19.630  0.00  0.00    +0.145 HD
ATOM     41  H   UNL     1       3.559  15.169  19.672  0.00  0.00    +0.145 HD
ENDBRANCH  33  37
ENDBRANCH  24  27
ENDBRANCH  21  24
ENDBRANCH   9  18
BRANCH   1  42
ATOM     42  N   UNL     1       5.281   5.190  18.098  0.00  0.00    -0.337 N 
ATOM     43  H   UNL     1       6.031   5.654  17.586  0.00  0.00    +0.147 HD
BRANCH  42  44
ATOM     44  C   UNL     1       5.005   3.851  17.557  0.00  0.00    +0.046 C 
ATOM     45  H   UNL     1       5.775   3.142  17.886  0.00  0.00    +0.055 HD
BRANCH  44  46
ATOM     46  C   UNL     1       3.664   3.366  18.084  0.00  0.00    +0.008 A 
ATOM     47  C   UNL     1       2.460   3.608  17.396  0.00  0.00    -0.054 A 
ATOM     48  C   UNL     1       1.240   3.154  17.907  0.00  0.00    -0.061 A 
ATOM     49  C   UNL     1       1.203   2.452  19.113  0.00  0.00    -0.059 A 
ATOM     50  C   UNL     1       2.387   2.199  19.802  0.00  0.00    -0.026 A 
ATOM     51  C   UNL     1       3.600   2.650  19.285  0.00  0.00    +0.128 A 
ATOM     52  F   UNL     1       4.724   2.371  19.963  0.00  0.00    -0.205 F 
ATOM     53  H   UNL     1       2.470   4.157  16.453  0.00  0.00    +0.062 HD
ATOM     54  H   UNL     1       0.317   3.352  17.366  0.00  0.00    +0.062 HD
ATOM     55  H   UNL     1       0.252   2.098  19.510  0.00  0.00    +0.062 HD
ATOM     56  H   UNL     1       2.377   1.651  20.740  0.00  0.00    +0.065 HD
ENDBRANCH  44  46
BRANCH  44  57
ATOM     57  C   UNL     1       4.988   3.902  16.025  0.00  0.00    -0.042 C 
ATOM     58  H   UNL     1       5.421   2.992  15.596  0.00  0.00    +0.025 HD
ATOM     59  H   UNL     1       3.971   4.006  15.633  0.00  0.00    +0.025 HD
ATOM     60  H   UNL     1       5.564   4.755  15.650  0.00  0.00    +0.025 HD
ENDBRANCH  44  57
ENDBRANCH  42  44
ENDBRANCH   1  42
TORSDOF 8
ENDMDL
MODEL 30
REMARK VINA RESULT:    -7.664      3.747      5.925
REMARK INTER + INTRA:         -11.134
REMARK INTER:                 -10.943
REMARK INTRA:                  -0.191
REMARK UNBOUND:                -0.109
REMARK  Name = 
REMARK  8 active torsions:
REMARK  status: ('A' for Active; 'I' for Inactive)
REMARK    1  A    between atoms: C_1  and  C_2
REMARK    2  A    between atoms: C_2  and  N_3
REMARK    3  A    between atoms: C_2  and  C_28
REMARK    4  A    between atoms: N_3  and  C_4
REMARK    5  A    between atoms: C_12  and  N_13
REMARK    6  A    between atoms: N_16  and  C_17
REMARK    7  A    between atoms: C_17  and  C_18
REMARK    8  A    between atoms: C_24  and  C_25
REMARK                            x       y       z     vdW  Elec       q    Type
REMARK                         _______ _______ _______ _____ _____    ______ ____
ROOT
ATOM      1  C   UNL     1      -1.405  13.638  19.886  0.00  0.00    +0.028 A 
ATOM      2  C   UNL     1      -1.782  12.278  19.914  0.00  0.00    -0.041 A 
ATOM      3  C   UNL     1      -0.974  11.273  19.370  0.00  0.00    -0.055 A 
ATOM      4  C   UNL     1       0.246  11.629  18.829  0.00  0.00    -0.024 A 
ATOM      5  C   UNL     1       0.659  12.963  18.837  0.00  0.00    -0.041 A 
ATOM      6  C   UNL     1      -0.143  13.964  19.369  0.00  0.00    -0.037 A 
ATOM      7  C   UNL     1       1.987  13.116  18.158  0.00  0.00    -0.025 C 
ATOM      8  C   UNL     1       2.502  11.668  18.165  0.00  0.00    -0.026 C 
ATOM      9  C   UNL     1       1.255  10.761  18.133  0.00  0.00    +0.050 C 
ATOM     10  H   UNL     1      -2.735  11.991  20.355  0.00  0.00    +0.064 HD
ATOM     11  H   UNL     1      -1.312  10.243  19.372  0.00  0.00    +0.062 HD
ATOM     12  H   UNL     1       0.221  14.983  19.354  0.00  0.00    +0.064 HD
ATOM     13  H   UNL     1       2.664  13.784  18.702  0.00  0.00    +0.031 HD
ATOM     14  H   UNL     1       1.845  13.481  17.135  0.00  0.00    +0.031 HD
ATOM     15  H   UNL     1       3.076  11.498  19.088  0.00  0.00    +0.029 HD
ATOM     16  H   UNL     1       3.180  11.464  17.329  0.00  0.00    +0.029 HD
ATOM     17  H   UNL     1       0.939  10.582  17.097  0.00  0.00    +0.055 HD
ENDROOT
BRANCH   9  18
ATOM     18  N   UNL     1       1.470   9.505  18.813  0.00  0.00    -0.293 N 
ATOM     19  C   UNL     1       2.211   8.518  18.218  0.00  0.00    +0.300 C 
ATOM     20  O   UNL     1       2.647   8.577  17.078  0.00  0.00    -0.253 OA
ATOM     21  N   UNL     1       2.385   7.452  19.065  0.00  0.00    -0.295 N 
ATOM     22  H   UNL     1       1.530   9.553  19.818  0.00  0.00    +0.151 HD
ATOM     23  H   UNL     1       1.618   7.325  19.710  0.00  0.00    +0.151 HD
BRANCH  21  24
ATOM     24  C   UNL     1       3.006   6.229  18.589  0.00  0.00    +0.039 C 
ATOM     25  H   UNL     1       4.065   6.437  18.405  0.00  0.00    +0.051 HD
ATOM     26  H   UNL     1       2.557   5.998  17.616  0.00  0.00    +0.051 HD
BRANCH  24  27
ATOM     27  C   UNL     1       2.777   5.051  19.505  0.00  0.00    -0.018 A 
ATOM     28  C   UNL     1       1.739   5.109  20.457  0.00  0.00    -0.054 A 
ATOM     29  C   UNL     1       1.470   4.017  21.286  0.00  0.00    -0.026 A 
ATOM     30  C   UNL     1       2.223   2.855  21.164  0.00  0.00    +0.124 A 
ATOM     31  F   UNL     1       1.955   1.810  21.957  0.00  0.00    -0.205 F 
ATOM     32  C   UNL     1       3.251   2.765  20.238  0.00  0.00    -0.014 A 
ATOM     33  C   UNL     1       3.533   3.865  19.422  0.00  0.00    +0.044 A 
ATOM     34  H   UNL     1       1.137   6.010  20.556  0.00  0.00    +0.062 HD
ATOM     35  H   UNL     1       0.673   4.064  22.023  0.00  0.00    +0.065 HD
ATOM     36  H   UNL     1       3.828   1.847  20.160  0.00  0.00    +0.065 HD
BRANCH  33  37
ATOM     37  C   UNL     1       4.656   3.711  18.481  0.00  0.00    +0.242 C 
ATOM     38  N   UNL     1       5.885   4.008  18.987  0.00  0.00    -0.325 N 
ATOM     39  O   UNL     1       4.475   3.318  17.337  0.00  0.00    -0.270 OA
ATOM     40  H   UNL     1       5.991   4.517  19.870  0.00  0.00    +0.145 HD
ATOM     41  H   UNL     1       6.671   4.020  18.356  0.00  0.00    +0.145 HD
ENDBRANCH  33  37
ENDBRANCH  24  27
ENDBRANCH  21  24
ENDBRANCH   9  18
BRANCH   1  42
ATOM     42  N   UNL     1      -2.280  14.560  20.478  0.00  0.00    -0.337 N 
ATOM     43  H   UNL     1      -2.412  15.357  19.855  0.00  0.00    +0.147 HD
BRANCH  42  44
ATOM     44  C   UNL     1      -2.094  14.989  21.872  0.00  0.00    +0.046 C 
ATOM     45  H   UNL     1      -2.357  16.048  21.983  0.00  0.00    +0.055 HD
BRANCH  44  46
ATOM     46  C   UNL     1      -3.015  14.180  22.771  0.00  0.00    +0.008 A 
ATOM     47  C   UNL     1      -4.323  14.603  23.074  0.00  0.00    -0.054 A 
ATOM     48  C   UNL     1      -5.147  13.841  23.908  0.00  0.00    -0.061 A 
ATOM     49  C   UNL     1      -4.678  12.644  24.453  0.00  0.00    -0.059 A 
ATOM     50  C   UNL     1      -3.388  12.209  24.157  0.00  0.00    -0.026 A 
ATOM     51  C   UNL     1      -2.573  12.971  23.321  0.00  0.00    +0.128 A 
ATOM     52  F   UNL     1      -1.344  12.513  23.040  0.00  0.00    -0.205 F 
ATOM     53  H   UNL     1      -4.705  15.537  22.658  0.00  0.00    +0.062 HD
ATOM     54  H   UNL     1      -6.155  14.183  24.136  0.00  0.00    +0.062 HD
ATOM     55  H   UNL     1      -5.320  12.051  25.102  0.00  0.00    +0.062 HD
ATOM     56  H   UNL     1      -3.007  11.279  24.570  0.00  0.00    +0.065 HD
ENDBRANCH  44  46
BRANCH  44  57
ATOM     57  C   UNL     1      -0.632  14.787  22.287  0.00  0.00    -0.042 C 
ATOM     58  H   UNL     1      -0.419  13.729  22.474  0.00  0.00    +0.025 HD
ATOM     59  H   UNL     1       0.062  15.136  21.515  0.00  0.00    +0.025 HD
ATOM     60  H   UNL     1      -0.398  15.342  23.202  0.00  0.00    +0.025 HD
ENDBRANCH  44  57
ENDBRANCH  42  44
ENDBRANCH   1  42
TORSDOF 8
ENDMDL
MODEL 31
REMARK VINA RESULT:    -7.635      4.535      9.333
REMARK INTER + INTRA:         -11.092
REMARK INTER:                 -11.624
REMARK INTRA:                   0.533
REMARK UNBOUND:                -0.109
REMARK  Name = 
REMARK  8 active torsions:
REMARK  status: ('A' for Active; 'I' for Inactive)
REMARK    1  A    between atoms: C_1  and  C_2
REMARK    2  A    between atoms: C_2  and  N_3
REMARK    3  A    between atoms: C_2  and  C_28
REMARK    4  A    between atoms: N_3  and  C_4
REMARK    5  A    between atoms: C_12  and  N_13
REMARK    6  A    between atoms: N_16  and  C_17
REMARK    7  A    between atoms: C_17  and  C_18
REMARK    8  A    between atoms: C_24  and  C_25
REMARK                            x       y       z     vdW  Elec       q    Type
REMARK                         _______ _______ _______ _____ _____    ______ ____
ROOT
ATOM      1  C   UNL     1       2.749   7.302  18.695  0.00  0.00    +0.028 A 
ATOM      2  C   UNL     1       2.502   8.242  17.671  0.00  0.00    -0.041 A 
ATOM      3  C   UNL     1       1.606   9.304  17.840  0.00  0.00    -0.055 A 
ATOM      4  C   UNL     1       0.981   9.451  19.063  0.00  0.00    -0.024 A 
ATOM      5  C   UNL     1       1.250   8.561  20.104  0.00  0.00    -0.041 A 
ATOM      6  C   UNL     1       2.133   7.501  19.938  0.00  0.00    -0.037 A 
ATOM      7  C   UNL     1       0.426   8.888  21.313  0.00  0.00    -0.025 C 
ATOM      8  C   UNL     1      -0.005  10.331  21.008  0.00  0.00    -0.026 C 
ATOM      9  C   UNL     1      -0.058  10.455  19.472  0.00  0.00    +0.050 C 
ATOM     10  H   UNL     1       3.006   8.139  16.712  0.00  0.00    +0.064 HD
ATOM     11  H   UNL     1       1.409   9.984  17.019  0.00  0.00    +0.062 HD
ATOM     12  H   UNL     1       2.310   6.839  20.776  0.00  0.00    +0.064 HD
ATOM     13  H   UNL     1       1.003   8.830  22.243  0.00  0.00    +0.031 HD
ATOM     14  H   UNL     1      -0.440   8.219  21.369  0.00  0.00    +0.031 HD
ATOM     15  H   UNL     1       0.744  11.021  21.423  0.00  0.00    +0.029 HD
ATOM     16  H   UNL     1      -0.962  10.586  21.476  0.00  0.00    +0.029 HD
ATOM     17  H   UNL     1      -1.043  10.143  19.097  0.00  0.00    +0.055 HD
ENDROOT
BRANCH   9  18
ATOM     18  N   UNL     1       0.249  11.790  19.016  0.00  0.00    -0.293 N 
ATOM     19  C   UNL     1       0.725  12.726  19.896  0.00  0.00    +0.300 C 
ATOM     20  O   UNL     1       0.830  12.548  21.101  0.00  0.00    -0.253 OA
ATOM     21  N   UNL     1       1.053  13.891  19.250  0.00  0.00    -0.295 N 
ATOM     22  H   UNL     1       0.590  11.865  18.070  0.00  0.00    +0.151 HD
ATOM     23  H   UNL     1       0.489  14.066  18.430  0.00  0.00    +0.151 HD
BRANCH  21  24
ATOM     24  C   UNL     1       1.430  15.071  20.007  0.00  0.00    +0.039 C 
ATOM     25  H   UNL     1       0.679  15.226  20.787  0.00  0.00    +0.051 HD
ATOM     26  H   UNL     1       1.357  15.927  19.325  0.00  0.00    +0.051 HD
BRANCH  24  27
ATOM     27  C   UNL     1       2.842  15.011  20.537  0.00  0.00    -0.018 A 
ATOM     28  C   UNL     1       3.055  14.965  21.930  0.00  0.00    -0.054 A 
ATOM     29  C   UNL     1       4.347  14.859  22.451  0.00  0.00    -0.026 A 
ATOM     30  C   UNL     1       5.435  14.785  21.589  0.00  0.00    +0.124 A 
ATOM     31  F   UNL     1       6.670  14.677  22.096  0.00  0.00    -0.205 F 
ATOM     32  C   UNL     1       5.261  14.827  20.214  0.00  0.00    -0.014 A 
ATOM     33  C   UNL     1       3.969  14.953  19.693  0.00  0.00    +0.044 A 
ATOM     34  H   UNL     1       2.210  15.013  22.614  0.00  0.00    +0.062 HD
ATOM     35  H   UNL     1       4.511  14.829  23.524  0.00  0.00    +0.065 HD
ATOM     36  H   UNL     1       6.126  14.769  19.559  0.00  0.00    +0.065 HD
BRANCH  33  37
ATOM     37  C   UNL     1       3.859  15.021  18.226  0.00  0.00    +0.242 C 
ATOM     38  N   UNL     1       5.010  14.764  17.544  0.00  0.00    -0.325 N 
ATOM     39  O   UNL     1       2.792  15.267  17.681  0.00  0.00    -0.270 OA
ATOM     40  H   UNL     1       5.919  14.756  18.013  0.00  0.00    +0.145 HD
ATOM     41  H   UNL     1       5.012  14.900  16.545  0.00  0.00    +0.145 HD
ENDBRANCH  33  37
ENDBRANCH  24  27
ENDBRANCH  21  24
ENDBRANCH   9  18
BRANCH   1  42
ATOM     42  N   UNL     1       3.681   6.288  18.427  0.00  0.00    -0.337 N 
ATOM     43  H   UNL     1       3.470   5.857  17.527  0.00  0.00    +0.147 HD
BRANCH  42  44
ATOM     44  C   UNL     1       4.011   5.280  19.445  0.00  0.00    +0.046 C 
ATOM     45  H   UNL     1       3.936   5.715  20.450  0.00  0.00    +0.055 HD
BRANCH  44  46
ATOM     46  C   UNL     1       3.016   4.134  19.354  0.00  0.00    +0.008 A 
ATOM     47  C   UNL     1       2.911   3.327  18.205  0.00  0.00    -0.054 A 
ATOM     48  C   UNL     1       1.983   2.282  18.148  0.00  0.00    -0.061 A 
ATOM     49  C   UNL     1       1.144   2.028  19.234  0.00  0.00    -0.059 A 
ATOM     50  C   UNL     1       1.240   2.815  20.380  0.00  0.00    -0.026 A 
ATOM     51  C   UNL     1       2.171   3.851  20.434  0.00  0.00    +0.128 A 
ATOM     52  F   UNL     1       2.253   4.576  21.560  0.00  0.00    -0.205 F 
ATOM     53  H   UNL     1       3.557   3.512  17.346  0.00  0.00    +0.062 HD
ATOM     54  H   UNL     1       1.910   1.668  17.252  0.00  0.00    +0.062 HD
ATOM     55  H   UNL     1       0.421   1.215  19.189  0.00  0.00    +0.062 HD
ATOM     56  H   UNL     1       0.598   2.630  21.236  0.00  0.00    +0.065 HD
ENDBRANCH  44  46
BRANCH  44  57
ATOM     57  C   UNL     1       5.437   4.765  19.224  0.00  0.00    -0.042 C 
ATOM     58  H   UNL     1       5.540   4.304  18.235  0.00  0.00    +0.025 HD
ATOM     59  H   UNL     1       6.176   5.570  19.295  0.00  0.00    +0.025 HD
ATOM     60  H   UNL     1       5.709   4.014  19.973  0.00  0.00    +0.025 HD
ENDBRANCH  44  57
ENDBRANCH  42  44
ENDBRANCH   1  42
TORSDOF 8
ENDMDL
MODEL 32
REMARK VINA RESULT:    -7.481      3.231      4.849
REMARK INTER + INTRA:         -10.870
REMARK INTER:                 -10.761
REMARK INTRA:                  -0.109
REMARK UNBOUND:                -0.109
REMARK  Name = 
REMARK  8 active torsions:
REMARK  status: ('A' for Active; 'I' for Inactive)
REMARK    1  A    between atoms: C_1  and  C_2
REMARK    2  A    between atoms: C_2  and  N_3
REMARK    3  A    between atoms: C_2  and  C_28
REMARK    4  A    between atoms: N_3  and  C_4
REMARK    5  A    between atoms: C_12  and  N_13
REMARK    6  A    between atoms: N_16  and  C_17
REMARK    7  A    between atoms: C_17  and  C_18
REMARK    8  A    between atoms: C_24  and  C_25
REMARK                            x       y       z     vdW  Elec       q    Type
REMARK                         _______ _______ _______ _____ _____    ______ ____
ROOT
ATOM      1  C   UNL     1      -0.603  13.741  19.928  0.00  0.00    +0.028 A 
ATOM      2  C   UNL     1       0.620  13.046  20.046  0.00  0.00    -0.041 A 
ATOM      3  C   UNL     1       0.791  11.754  19.539  0.00  0.00    -0.055 A 
ATOM      4  C   UNL     1      -0.264  11.164  18.868  0.00  0.00    -0.024 A 
ATOM      5  C   UNL     1      -1.466  11.854  18.698  0.00  0.00    -0.041 A 
ATOM      6  C   UNL     1      -1.641  13.135  19.206  0.00  0.00    -0.037 A 
ATOM      7  C   UNL     1      -2.474  11.004  17.986  0.00  0.00    -0.025 C 
ATOM      8  C   UNL     1      -1.577   9.922  17.364  0.00  0.00    -0.026 C 
ATOM      9  C   UNL     1      -0.356   9.779  18.296  0.00  0.00    +0.050 C 
ATOM     10  H   UNL     1       1.458  13.514  20.558  0.00  0.00    +0.064 HD
ATOM     11  H   UNL     1       1.730  11.232  19.682  0.00  0.00    +0.062 HD
ATOM     12  H   UNL     1      -2.590  13.630  19.046  0.00  0.00    +0.064 HD
ATOM     13  H   UNL     1      -3.024  11.558  17.217  0.00  0.00    +0.031 HD
ATOM     14  H   UNL     1      -3.175  10.571  18.708  0.00  0.00    +0.031 HD
ATOM     15  H   UNL     1      -1.260  10.253  16.364  0.00  0.00    +0.029 HD
ATOM     16  H   UNL     1      -2.106   8.972  17.229  0.00  0.00    +0.029 HD
ATOM     17  H   UNL     1      -0.570   9.059  19.097  0.00  0.00    +0.055 HD
ENDROOT
BRANCH   9  18
ATOM     18  N   UNL     1       0.838   9.392  17.583  0.00  0.00    -0.293 N 
ATOM     19  C   UNL     1       1.758   8.568  18.176  0.00  0.00    +0.300 C 
ATOM     20  O   UNL     1       1.697   8.191  19.337  0.00  0.00    -0.253 OA
ATOM     21  N   UNL     1       2.762   8.236  17.301  0.00  0.00    -0.295 N 
ATOM     22  H   UNL     1       0.742   9.294  16.583  0.00  0.00    +0.151 HD
ATOM     23  H   UNL     1       2.949   8.955  16.616  0.00  0.00    +0.151 HD
BRANCH  21  24
ATOM     24  C   UNL     1       3.925   7.499  17.762  0.00  0.00    +0.039 C 
ATOM     25  H   UNL     1       4.165   7.845  18.771  0.00  0.00    +0.051 HD
ATOM     26  H   UNL     1       4.765   7.792  17.120  0.00  0.00    +0.051 HD
BRANCH  24  27
ATOM     27  C   UNL     1       3.758   6.002  17.664  0.00  0.00    -0.018 A 
ATOM     28  C   UNL     1       2.606   5.400  18.209  0.00  0.00    -0.054 A 
ATOM     29  C   UNL     1       2.397   4.024  18.092  0.00  0.00    -0.026 A 
ATOM     30  C   UNL     1       3.328   3.239  17.420  0.00  0.00    +0.124 A 
ATOM     31  F   UNL     1       3.117   1.921  17.307  0.00  0.00    -0.205 F 
ATOM     32  C   UNL     1       4.471   3.799  16.872  0.00  0.00    -0.014 A 
ATOM     33  C   UNL     1       4.689   5.174  17.007  0.00  0.00    +0.044 A 
ATOM     34  H   UNL     1       1.866   6.005  18.729  0.00  0.00    +0.062 HD
ATOM     35  H   UNL     1       1.512   3.559  18.517  0.00  0.00    +0.065 HD
ATOM     36  H   UNL     1       5.186   3.167  16.352  0.00  0.00    +0.065 HD
BRANCH  33  37
ATOM     37  C   UNL     1       5.938   5.699  16.426  0.00  0.00    +0.242 C 
ATOM     38  N   UNL     1       5.877   6.010  15.101  0.00  0.00    -0.325 N 
ATOM     39  O   UNL     1       6.938   5.858  17.112  0.00  0.00    -0.270 OA
ATOM     40  H   UNL     1       5.105   5.688  14.511  0.00  0.00    +0.145 HD
ATOM     41  H   UNL     1       6.730   6.272  14.634  0.00  0.00    +0.145 HD
ENDBRANCH  33  37
ENDBRANCH  24  27
ENDBRANCH  21  24
ENDBRANCH   9  18
BRANCH   1  42
ATOM     42  N   UNL     1      -0.659  15.040  20.454  0.00  0.00    -0.337 N 
ATOM     43  H   UNL     1       0.177  15.557  20.182  0.00  0.00    +0.147 HD
BRANCH  42  44
ATOM     44  C   UNL     1      -0.999  15.267  21.867  0.00  0.00    +0.046 C 
ATOM     45  H   UNL     1      -1.320  16.305  22.019  0.00  0.00    +0.055 HD
BRANCH  44  46
ATOM     46  C   UNL     1      -2.153  14.356  22.255  0.00  0.00    +0.008 A 
ATOM     47  C   UNL     1      -3.495  14.719  22.036  0.00  0.00    -0.054 A 
ATOM     48  C   UNL     1      -4.538  13.864  22.407  0.00  0.00    -0.061 A 
ATOM     49  C   UNL     1      -4.256  12.634  23.005  0.00  0.00    -0.059 A 
ATOM     50  C   UNL     1      -2.932  12.258  23.222  0.00  0.00    -0.026 A 
ATOM     51  C   UNL     1      -1.898  13.113  22.844  0.00  0.00    +0.128 A 
ATOM     52  F   UNL     1      -0.634  12.712  23.049  0.00  0.00    -0.205 F 
ATOM     53  H   UNL     1      -3.734  15.678  21.573  0.00  0.00    +0.062 HD
ATOM     54  H   UNL     1      -5.571  14.159  22.235  0.00  0.00    +0.062 HD
ATOM     55  H   UNL     1      -5.068  11.968  23.293  0.00  0.00    +0.062 HD
ATOM     56  H   UNL     1      -2.694  11.303  23.682  0.00  0.00    +0.065 HD
ENDBRANCH  44  46
BRANCH  44  57
ATOM     57  C   UNL     1       0.223  14.983  22.747  0.00  0.00    -0.042 C 
ATOM     58  H   UNL     1       0.229  13.942  23.088  0.00  0.00    +0.025 HD
ATOM     59  H   UNL     1       1.161  15.165  22.213  0.00  0.00    +0.025 HD
ATOM     60  H   UNL     1       0.231  15.625  23.634  0.00  0.00    +0.025 HD
ENDBRANCH  44  57
ENDBRANCH  42  44
ENDBRANCH   1  42
TORSDOF 8
ENDMDL
