MODEL 1
REMARK VINA RESULT:    -8.458      0.000      0.000
REMARK INTER + INTRA:         -12.397
REMARK INTER:                 -11.695
REMARK INTRA:                  -0.701
REMARK UNBOUND:                -1.219
REMARK  Name = 
REMARK  6 active torsions:
REMARK  status: ('A' for Active; 'I' for Inactive)
REMARK    1  A    between atoms: C_1  and  C_2
REMARK    2  A    between atoms: C_8  and  C_9
REMARK    3  A    between atoms: C_15  and  N_16
REMARK    4  A    between atoms: N_19  and  C_20
REMARK    5  A    between atoms: C_20  and  C_21
REMARK    6  A    between atoms: C_27  and  C_28
REMARK                            x       y       z     vdW  Elec       q    Type
REMARK                         _______ _______ _______ _____ _____    ______ ____
ROOT
ATOM      1  C   UNL     1       4.253   3.656  17.420  0.00  0.00    -0.017 A 
ATOM      2  C   UNL     1       4.160   2.288  17.759  0.00  0.00    -0.054 A 
ATOM      3  C   UNL     1       3.266   1.836  18.736  0.00  0.00    -0.058 A 
ATOM      4  C   UNL     1       2.479   2.767  19.391  0.00  0.00    -0.042 A 
ATOM      5  C   UNL     1       2.559   4.126  19.075  0.00  0.00    -0.023 A 
ATOM      6  C   UNL     1       3.428   4.574  18.089  0.00  0.00    -0.049 A 
ATOM      7  C   UNL     1       1.578   4.925  19.895  0.00  0.00    +0.050 C 
ATOM      8  C   UNL     1       1.271   3.928  21.029  0.00  0.00    -0.026 C 
ATOM      9  C   UNL     1       1.433   2.522  20.433  0.00  0.00    -0.025 C 
ATOM     10  H   UNL     1       4.784   1.563  17.240  0.00  0.00    +0.062 HD
ATOM     11  H   UNL     1       3.196   0.778  18.969  0.00  0.00    +0.062 HD
ATOM     12  H   UNL     1       3.463   5.629  17.831  0.00  0.00    +0.063 HD
ATOM     13  H   UNL     1       0.679   5.127  19.301  0.00  0.00    +0.055 HD
ATOM     14  H   UNL     1       1.992   4.051  21.852  0.00  0.00    +0.029 HD
ATOM     15  H   UNL     1       0.276   4.083  21.458  0.00  0.00    +0.029 HD
ATOM     16  H   UNL     1       1.759   1.802  21.190  0.00  0.00    +0.031 HD
ATOM     17  H   UNL     1       0.505   2.180  19.964  0.00  0.00    +0.031 HD
ENDROOT
BRANCH   1  24
ATOM     18  C   UNL     1       6.473   4.661  16.722  0.00  0.00    -0.040 A 
ATOM     19  C   UNL     1       7.348   5.041  15.690  0.00  0.00    -0.023 A 
ATOM     20  C   UNL     1       6.966   4.908  14.361  0.00  0.00    +0.124 A 
ATOM     21  F   UNL     1       7.810   5.281  13.391  0.00  0.00    -0.205 F 
ATOM     22  C   UNL     1       5.724   4.393  14.024  0.00  0.00    -0.026 A 
ATOM     23  C   UNL     1       4.851   3.998  15.037  0.00  0.00    -0.051 A 
ATOM     24  C   UNL     1       5.207   4.117  16.397  0.00  0.00    -0.015 A 
ATOM     25  H   UNL     1       8.332   5.445  15.912  0.00  0.00    +0.065 HD
ATOM     26  H   UNL     1       5.446   4.296  12.981  0.00  0.00    +0.065 HD
ATOM     27  H   UNL     1       3.882   3.582  14.765  0.00  0.00    +0.062 HD
BRANCH  18  28
ATOM     28  C   UNL     1       6.931   4.819  18.148  0.00  0.00    -0.039 C 
ATOM     29  H   UNL     1       7.711   5.584  18.215  0.00  0.00    +0.028 HD
ATOM     30  H   UNL     1       7.309   3.871  18.545  0.00  0.00    +0.028 HD
ATOM     31  H   UNL     1       6.103   5.124  18.798  0.00  0.00    +0.028 HD
ENDBRANCH  18  28
ENDBRANCH   1  24
BRANCH   7  32
ATOM     32  N   UNL     1       2.156   6.151  20.409  0.00  0.00    -0.293 N 
ATOM     33  C   UNL     1       1.331   7.112  20.942  0.00  0.00    +0.300 C 
ATOM     34  O   UNL     1       0.150   6.946  21.207  0.00  0.00    -0.253 OA
ATOM     35  N   UNL     1       2.005   8.301  21.087  0.00  0.00    -0.295 N 
ATOM     36  H   UNL     1       2.903   6.534  19.850  0.00  0.00    +0.151 HD
ATOM     37  H   UNL     1       2.952   8.180  21.410  0.00  0.00    +0.151 HD
BRANCH  35  38
ATOM     38  C   UNL     1       1.303   9.467  21.592  0.00  0.00    +0.039 C 
ATOM     39  H   UNL     1       0.728   9.149  22.468  0.00  0.00    +0.051 HD
ATOM     40  H   UNL     1       2.072  10.181  21.905  0.00  0.00    +0.051 HD
BRANCH  38  41
ATOM     41  C   UNL     1       0.403  10.138  20.571  0.00  0.00    -0.018 A 
ATOM     42  C   UNL     1       0.580   9.917  19.190  0.00  0.00    -0.054 A 
ATOM     43  C   UNL     1      -0.294  10.474  18.254  0.00  0.00    -0.026 A 
ATOM     44  C   UNL     1      -1.348  11.266  18.683  0.00  0.00    +0.124 A 
ATOM     45  F   UNL     1      -2.188  11.791  17.783  0.00  0.00    -0.205 F 
ATOM     46  C   UNL     1      -1.531  11.538  20.031  0.00  0.00    -0.014 A 
ATOM     47  C   UNL     1      -0.644  10.999  20.972  0.00  0.00    +0.044 A 
ATOM     48  H   UNL     1       1.386   9.282  18.828  0.00  0.00    +0.062 HD
ATOM     49  H   UNL     1      -0.167  10.278  17.193  0.00  0.00    +0.065 HD
ATOM     50  H   UNL     1      -2.356  12.172  20.342  0.00  0.00    +0.065 HD
BRANCH  47  51
ATOM     51  C   UNL     1      -0.869  11.394  22.382  0.00  0.00    +0.242 C 
ATOM     52  N   UNL     1      -0.688  12.716  22.678  0.00  0.00    -0.325 N 
ATOM     53  O   UNL     1      -1.284  10.603  23.218  0.00  0.00    -0.270 OA
ATOM     54  H   UNL     1      -1.021  12.996  23.592  0.00  0.00    +0.145 HD
ATOM     55  H   UNL     1      -0.711  13.415  21.950  0.00  0.00    +0.145 HD
ENDBRANCH  47  51
ENDBRANCH  38  41
ENDBRANCH  35  38
ENDBRANCH   7  32
TORSDOF 6
ENDMDL
MODEL 2
REMARK VINA RESULT:    -8.244      4.507      9.273
REMARK INTER + INTRA:         -12.113
REMARK INTER:                 -11.027
REMARK INTRA:                  -1.086
REMARK UNBOUND:                -1.219
REMARK  Name = 
REMARK  6 active torsions:
REMARK  status: ('A' for Active; 'I' for Inactive)
REMARK    1  A    between atoms: C_1  and  C_2
REMARK    2  A    between atoms: C_8  and  C_9
REMARK    3  A    between atoms: C_15  and  N_16
REMARK    4  A    between atoms: N_19  and  C_20
REMARK    5  A    between atoms: C_20  and  C_21
REMARK    6  A    between atoms: C_27  and  C_28
REMARK                            x       y       z     vdW  Elec       q    Type
REMARK                         _______ _______ _______ _____ _____    ______ ____
ROOT
ATOM      1  C   UNL     1       2.095  13.726  18.885  0.00  0.00    -0.017 A 
ATOM      2  C   UNL     1       1.052  14.673  18.785  0.00  0.00    -0.054 A 
ATOM      3  C   UNL     1      -0.286  14.277  18.674  0.00  0.00    -0.058 A 
ATOM      4  C   UNL     1      -0.573  12.924  18.639  0.00  0.00    -0.042 A 
ATOM      5  C   UNL     1       0.444  11.971  18.729  0.00  0.00    -0.023 A 
ATOM      6  C   UNL     1       1.770  12.360  18.864  0.00  0.00    -0.049 A 
ATOM      7  C   UNL     1      -0.125  10.575  18.707  0.00  0.00    +0.050 C 
ATOM      8  C   UNL     1      -1.528  10.847  18.128  0.00  0.00    -0.026 C 
ATOM      9  C   UNL     1      -1.915  12.267  18.564  0.00  0.00    -0.025 C 
ATOM     10  H   UNL     1       1.286  15.736  18.812  0.00  0.00    +0.062 HD
ATOM     11  H   UNL     1      -1.076  15.021  18.618  0.00  0.00    +0.062 HD
ATOM     12  H   UNL     1       2.552  11.612  18.963  0.00  0.00    +0.063 HD
ATOM     13  H   UNL     1      -0.195  10.189  19.730  0.00  0.00    +0.055 HD
ATOM     14  H   UNL     1      -1.502  10.806  17.029  0.00  0.00    +0.029 HD
ATOM     15  H   UNL     1      -2.261  10.100  18.453  0.00  0.00    +0.029 HD
ATOM     16  H   UNL     1      -2.574  12.743  17.832  0.00  0.00    +0.031 HD
ATOM     17  H   UNL     1      -2.390  12.264  19.550  0.00  0.00    +0.031 HD
ENDROOT
BRANCH   1  24
ATOM     18  C   UNL     1       4.095  14.528  20.220  0.00  0.00    -0.040 A 
ATOM     19  C   UNL     1       5.453  14.891  20.248  0.00  0.00    -0.023 A 
ATOM     20  C   UNL     1       6.200  14.911  19.077  0.00  0.00    +0.124 A 
ATOM     21  F   UNL     1       7.490  15.266  19.122  0.00  0.00    -0.205 F 
ATOM     22  C   UNL     1       5.627  14.569  17.862  0.00  0.00    -0.026 A 
ATOM     23  C   UNL     1       4.286  14.193  17.819  0.00  0.00    -0.051 A 
ATOM     24  C   UNL     1       3.499  14.159  18.990  0.00  0.00    -0.015 A 
ATOM     25  H   UNL     1       5.939  15.162  21.181  0.00  0.00    +0.065 HD
ATOM     26  H   UNL     1       6.228  14.590  16.958  0.00  0.00    +0.065 HD
ATOM     27  H   UNL     1       3.847  13.913  16.863  0.00  0.00    +0.062 HD
BRANCH  18  28
ATOM     28  C   UNL     1       3.326  14.516  21.515  0.00  0.00    -0.039 C 
ATOM     29  H   UNL     1       2.851  13.542  21.667  0.00  0.00    +0.028 HD
ATOM     30  H   UNL     1       2.566  15.303  21.525  0.00  0.00    +0.028 HD
ATOM     31  H   UNL     1       3.987  14.707  22.368  0.00  0.00    +0.028 HD
ENDBRANCH  18  28
ENDBRANCH   1  24
BRANCH   7  32
ATOM     32  N   UNL     1       0.635   9.680  17.858  0.00  0.00    -0.293 N 
ATOM     33  C   UNL     1       1.602   8.881  18.418  0.00  0.00    +0.300 C 
ATOM     34  O   UNL     1       1.753   8.707  19.617  0.00  0.00    -0.253 OA
ATOM     35  N   UNL     1       2.410   8.345  17.444  0.00  0.00    -0.295 N 
ATOM     36  H   UNL     1       0.906  10.070  16.969  0.00  0.00    +0.151 HD
ATOM     37  H   UNL     1       1.899   8.060  16.622  0.00  0.00    +0.151 HD
BRANCH  35  38
ATOM     38  C   UNL     1       3.530   7.503  17.823  0.00  0.00    +0.039 C 
ATOM     39  H   UNL     1       4.377   7.780  17.187  0.00  0.00    +0.051 HD
ATOM     40  H   UNL     1       3.765   7.749  18.864  0.00  0.00    +0.051 HD
BRANCH  38  41
ATOM     41  C   UNL     1       3.247   6.015  17.728  0.00  0.00    -0.018 A 
ATOM     42  C   UNL     1       2.013   5.482  18.152  0.00  0.00    -0.054 A 
ATOM     43  C   UNL     1       1.722   4.125  17.996  0.00  0.00    -0.026 A 
ATOM     44  C   UNL     1       2.662   3.283  17.422  0.00  0.00    +0.124 A 
ATOM     45  F   UNL     1       2.376   1.985  17.266  0.00  0.00    -0.205 F 
ATOM     46  C   UNL     1       3.902   3.763  17.028  0.00  0.00    -0.014 A 
ATOM     47  C   UNL     1       4.205   5.120  17.204  0.00  0.00    +0.044 A 
ATOM     48  H   UNL     1       1.249   6.126  18.585  0.00  0.00    +0.062 HD
ATOM     49  H   UNL     1       0.759   3.726  18.301  0.00  0.00    +0.065 HD
ATOM     50  H   UNL     1       4.628   3.081  16.593  0.00  0.00    +0.065 HD
BRANCH  47  51
ATOM     51  C   UNL     1       5.575   5.537  16.820  0.00  0.00    +0.242 C 
ATOM     52  N   UNL     1       5.746   5.938  15.525  0.00  0.00    -0.325 N 
ATOM     53  O   UNL     1       6.483   5.608  17.635  0.00  0.00    -0.270 OA
ATOM     54  H   UNL     1       6.633   6.388  15.332  0.00  0.00    +0.145 HD
ATOM     55  H   UNL     1       4.956   6.230  14.966  0.00  0.00    +0.145 HD
ENDBRANCH  47  51
ENDBRANCH  38  41
ENDBRANCH  35  38
ENDBRANCH   7  32
TORSDOF 6
ENDMDL
MODEL 3
REMARK VINA RESULT:    -7.972      5.629      8.063
REMARK INTER + INTRA:         -11.755
REMARK INTER:                 -10.612
REMARK INTRA:                  -1.143
REMARK UNBOUND:                -1.219
REMARK  Name = 
REMARK  6 active torsions:
REMARK  status: ('A' for Active; 'I' for Inactive)
REMARK    1  A    between atoms: C_1  and  C_2
REMARK    2  A    between atoms: C_8  and  C_9
REMARK    3  A    between atoms: C_15  and  N_16
REMARK    4  A    between atoms: N_19  and  C_20
REMARK    5  A    between atoms: C_20  and  C_21
REMARK    6  A    between atoms: C_27  and  C_28
REMARK                            x       y       z     vdW  Elec       q    Type
REMARK                         _______ _______ _______ _____ _____    ______ ____
ROOT
ATOM      1  C   UNL     1       3.400   6.083  18.294  0.00  0.00    -0.017 A 
ATOM      2  C   UNL     1       2.894   5.086  17.431  0.00  0.00    -0.054 A 
ATOM      3  C   UNL     1       3.735   4.367  16.574  0.00  0.00    -0.058 A 
ATOM      4  C   UNL     1       5.085   4.668  16.568  0.00  0.00    -0.042 A 
ATOM      5  C   UNL     1       5.606   5.654  17.410  0.00  0.00    -0.023 A 
ATOM      6  C   UNL     1       4.778   6.353  18.279  0.00  0.00    -0.049 A 
ATOM      7  C   UNL     1       7.100   5.766  17.246  0.00  0.00    +0.050 C 
ATOM      8  C   UNL     1       7.293   5.058  15.890  0.00  0.00    -0.026 C 
ATOM      9  C   UNL     1       6.173   4.015  15.776  0.00  0.00    -0.025 C 
ATOM     10  H   UNL     1       1.830   4.857  17.440  0.00  0.00    +0.062 HD
ATOM     11  H   UNL     1       3.329   3.591  15.931  0.00  0.00    +0.062 HD
ATOM     12  H   UNL     1       5.195   7.099  18.950  0.00  0.00    +0.063 HD
ATOM     13  H   UNL     1       7.602   5.212  18.048  0.00  0.00    +0.055 HD
ATOM     14  H   UNL     1       7.193   5.779  15.065  0.00  0.00    +0.029 HD
ATOM     15  H   UNL     1       8.288   4.610  15.796  0.00  0.00    +0.029 HD
ATOM     16  H   UNL     1       5.888   3.848  14.733  0.00  0.00    +0.031 HD
ATOM     17  H   UNL     1       6.464   3.068  16.242  0.00  0.00    +0.031 HD
ENDROOT
BRANCH   1  24
ATOM     18  C   UNL     1       1.975   6.297  20.380  0.00  0.00    -0.040 A 
ATOM     19  C   UNL     1       1.155   7.094  21.198  0.00  0.00    -0.023 A 
ATOM     20  C   UNL     1       0.841   8.394  20.824  0.00  0.00    +0.124 A 
ATOM     21  F   UNL     1       0.054   9.136  21.613  0.00  0.00    -0.205 F 
ATOM     22  C   UNL     1       1.333   8.935  19.647  0.00  0.00    -0.026 A 
ATOM     23  C   UNL     1       2.159   8.163  18.832  0.00  0.00    -0.051 A 
ATOM     24  C   UNL     1       2.500   6.839  19.182  0.00  0.00    -0.015 A 
ATOM     25  H   UNL     1       0.753   6.708  22.131  0.00  0.00    +0.065 HD
ATOM     26  H   UNL     1       1.078   9.953  19.373  0.00  0.00    +0.065 HD
ATOM     27  H   UNL     1       2.553   8.599  17.915  0.00  0.00    +0.062 HD
BRANCH  18  28
ATOM     28  C   UNL     1       2.292   4.894  20.828  0.00  0.00    -0.039 C 
ATOM     29  H   UNL     1       1.511   4.203  20.496  0.00  0.00    +0.028 HD
ATOM     30  H   UNL     1       2.391   4.845  21.917  0.00  0.00    +0.028 HD
ATOM     31  H   UNL     1       3.246   4.552  20.410  0.00  0.00    +0.028 HD
ENDBRANCH  18  28
ENDBRANCH   1  24
BRANCH   7  32
ATOM     32  N   UNL     1       7.550   7.142  17.195  0.00  0.00    -0.293 N 
ATOM     33  C   UNL     1       8.231   7.667  18.267  0.00  0.00    +0.300 C 
ATOM     34  O   UNL     1       8.672   7.013  19.200  0.00  0.00    -0.253 OA
ATOM     35  N   UNL     1       8.301   9.036  18.171  0.00  0.00    -0.295 N 
ATOM     36  H   UNL     1       6.892   7.788  16.787  0.00  0.00    +0.151 HD
ATOM     37  H   UNL     1       8.469   9.357  17.230  0.00  0.00    +0.151 HD
BRANCH  35  38
ATOM     38  C   UNL     1       8.940   9.798  19.229  0.00  0.00    +0.039 C 
ATOM     39  H   UNL     1       8.289   9.749  20.107  0.00  0.00    +0.051 HD
ATOM     40  H   UNL     1       9.884   9.290  19.451  0.00  0.00    +0.051 HD
BRANCH  38  41
ATOM     41  C   UNL     1       9.240  11.239  18.859  0.00  0.00    -0.018 A 
ATOM     42  C   UNL     1       9.650  11.585  17.555  0.00  0.00    -0.054 A 
ATOM     43  C   UNL     1       9.853  12.918  17.194  0.00  0.00    -0.026 A 
ATOM     44  C   UNL     1       9.659  13.921  18.131  0.00  0.00    +0.124 A 
ATOM     45  F   UNL     1       9.847  15.199  17.778  0.00  0.00    -0.205 F 
ATOM     46  C   UNL     1       9.295  13.618  19.434  0.00  0.00    -0.014 A 
ATOM     47  C   UNL     1       9.111  12.279  19.806  0.00  0.00    +0.044 A 
ATOM     48  H   UNL     1       9.787  10.818  16.795  0.00  0.00    +0.062 HD
ATOM     49  H   UNL     1      10.143  13.179  16.180  0.00  0.00    +0.065 HD
ATOM     50  H   UNL     1       9.162  14.420  20.155  0.00  0.00    +0.065 HD
BRANCH  47  51
ATOM     51  C   UNL     1       8.790  12.037  21.233  0.00  0.00    +0.242 C 
ATOM     52  N   UNL     1       9.852  11.964  22.090  0.00  0.00    -0.325 N 
ATOM     53  O   UNL     1       7.637  11.997  21.640  0.00  0.00    -0.270 OA
ATOM     54  H   UNL     1       9.608  11.983  23.072  0.00  0.00    +0.145 HD
ATOM     55  H   UNL     1      10.748  12.354  21.835  0.00  0.00    +0.145 HD
ENDBRANCH  47  51
ENDBRANCH  38  41
ENDBRANCH  35  38
ENDBRANCH   7  32
TORSDOF 6
ENDMDL
MODEL 4
REMARK VINA RESULT:    -7.918      4.163      9.199
REMARK INTER + INTRA:         -11.683
REMARK INTER:                 -10.475
REMARK INTRA:                  -1.208
REMARK UNBOUND:                -1.219
REMARK  Name = 
REMARK  6 active torsions:
REMARK  status: ('A' for Active; 'I' for Inactive)
REMARK    1  A    between atoms: C_1  and  C_2
REMARK    2  A    between atoms: C_8  and  C_9
REMARK    3  A    between atoms: C_15  and  N_16
REMARK    4  A    between atoms: N_19  and  C_20
REMARK    5  A    between atoms: C_20  and  C_21
REMARK    6  A    between atoms: C_27  and  C_28
REMARK                            x       y       z     vdW  Elec       q    Type
REMARK                         _______ _______ _______ _____ _____    ______ ____
ROOT
ATOM      1  C   UNL     1       2.298  13.727  18.889  0.00  0.00    -0.017 A 
ATOM      2  C   UNL     1       1.267  14.664  18.661  0.00  0.00    -0.054 A 
ATOM      3  C   UNL     1      -0.070  14.267  18.547  0.00  0.00    -0.058 A 
ATOM      4  C   UNL     1      -0.367  12.919  18.640  0.00  0.00    -0.042 A 
ATOM      5  C   UNL     1       0.639  11.973  18.859  0.00  0.00    -0.023 A 
ATOM      6  C   UNL     1       1.963  12.367  18.996  0.00  0.00    -0.049 A 
ATOM      7  C   UNL     1       0.058  10.586  18.959  0.00  0.00    +0.050 C 
ATOM      8  C   UNL     1      -1.324  10.805  18.311  0.00  0.00    -0.026 C 
ATOM      9  C   UNL     1      -1.712  12.264  18.589  0.00  0.00    -0.025 C 
ATOM     10  H   UNL     1       1.510  15.723  18.588  0.00  0.00    +0.062 HD
ATOM     11  H   UNL     1      -0.851  15.005  18.391  0.00  0.00    +0.062 HD
ATOM     12  H   UNL     1       2.735  11.629  19.194  0.00  0.00    +0.063 HD
ATOM     13  H   UNL     1      -0.048  10.306  20.014  0.00  0.00    +0.055 HD
ATOM     14  H   UNL     1      -1.264  10.654  17.223  0.00  0.00    +0.029 HD
ATOM     15  H   UNL     1      -2.073  10.099  18.686  0.00  0.00    +0.029 HD
ATOM     16  H   UNL     1      -2.343  12.668  17.791  0.00  0.00    +0.031 HD
ATOM     17  H   UNL     1      -2.218  12.364  19.555  0.00  0.00    +0.031 HD
ENDROOT
BRANCH   1  24
ATOM     18  C   UNL     1       4.294  14.541  20.223  0.00  0.00    -0.040 A 
ATOM     19  C   UNL     1       5.652  14.904  20.253  0.00  0.00    -0.023 A 
ATOM     20  C   UNL     1       6.403  14.913  19.084  0.00  0.00    +0.124 A 
ATOM     21  F   UNL     1       7.693  15.267  19.130  0.00  0.00    -0.205 F 
ATOM     22  C   UNL     1       5.835  14.559  17.870  0.00  0.00    -0.026 A 
ATOM     23  C   UNL     1       4.493  14.183  17.826  0.00  0.00    -0.051 A 
ATOM     24  C   UNL     1       3.702  14.160  18.995  0.00  0.00    -0.015 A 
ATOM     25  H   UNL     1       6.136  15.183  21.185  0.00  0.00    +0.065 HD
ATOM     26  H   UNL     1       6.438  14.572  16.969  0.00  0.00    +0.065 HD
ATOM     27  H   UNL     1       4.057  13.894  16.872  0.00  0.00    +0.062 HD
BRANCH  18  28
ATOM     28  C   UNL     1       3.521  14.541  21.516  0.00  0.00    -0.039 C 
ATOM     29  H   UNL     1       3.803  13.678  22.128  0.00  0.00    +0.028 HD
ATOM     30  H   UNL     1       2.443  14.523  21.326  0.00  0.00    +0.028 HD
ATOM     31  H   UNL     1       3.723  15.448  22.097  0.00  0.00    +0.028 HD
ENDBRANCH  18  28
ENDBRANCH   1  24
BRANCH   7  32
ATOM     32  N   UNL     1       0.836   9.606  18.229  0.00  0.00    -0.293 N 
ATOM     33  C   UNL     1       1.521   8.638  18.924  0.00  0.00    +0.300 C 
ATOM     34  O   UNL     1       1.378   8.402  20.114  0.00  0.00    -0.253 OA
ATOM     35  N   UNL     1       2.429   8.007  18.107  0.00  0.00    -0.295 N 
ATOM     36  H   UNL     1       1.353   9.974  17.446  0.00  0.00    +0.151 HD
ATOM     37  H   UNL     1       2.072   7.839  17.179  0.00  0.00    +0.151 HD
BRANCH  35  38
ATOM     38  C   UNL     1       3.294   6.979  18.654  0.00  0.00    +0.039 C 
ATOM     39  H   UNL     1       4.022   7.475  19.304  0.00  0.00    +0.051 HD
ATOM     40  H   UNL     1       2.656   6.326  19.260  0.00  0.00    +0.051 HD
BRANCH  38  41
ATOM     41  C   UNL     1       3.994   6.135  17.605  0.00  0.00    -0.018 A 
ATOM     42  C   UNL     1       5.002   6.684  16.786  0.00  0.00    -0.054 A 
ATOM     43  C   UNL     1       5.699   5.890  15.872  0.00  0.00    -0.026 A 
ATOM     44  C   UNL     1       5.392   4.543  15.758  0.00  0.00    +0.124 A 
ATOM     45  F   UNL     1       6.068   3.784  14.887  0.00  0.00    -0.205 F 
ATOM     46  C   UNL     1       4.380   3.976  16.518  0.00  0.00    -0.014 A 
ATOM     47  C   UNL     1       3.664   4.774  17.421  0.00  0.00    +0.044 A 
ATOM     48  H   UNL     1       5.277   7.733  16.872  0.00  0.00    +0.062 HD
ATOM     49  H   UNL     1       6.493   6.313  15.264  0.00  0.00    +0.065 HD
ATOM     50  H   UNL     1       4.148   2.921  16.402  0.00  0.00    +0.065 HD
BRANCH  47  51
ATOM     51  C   UNL     1       2.555   4.107  18.143  0.00  0.00    +0.242 C 
ATOM     52  N   UNL     1       1.364   4.019  17.478  0.00  0.00    -0.325 N 
ATOM     53  O   UNL     1       2.716   3.582  19.235  0.00  0.00    -0.270 OA
ATOM     54  H   UNL     1       0.682   3.406  17.906  0.00  0.00    +0.145 HD
ATOM     55  H   UNL     1       1.327   4.111  16.472  0.00  0.00    +0.145 HD
ENDBRANCH  47  51
ENDBRANCH  38  41
ENDBRANCH  35  38
ENDBRANCH   7  32
TORSDOF 6
ENDMDL
MODEL 5
REMARK VINA RESULT:    -7.795      1.688      1.988
REMARK INTER + INTRA:         -11.519
REMARK INTER:                 -11.042
REMARK INTRA:                  -0.478
REMARK UNBOUND:                -1.219
REMARK  Name = 
REMARK  6 active torsions:
REMARK  status: ('A' for Active; 'I' for Inactive)
REMARK    1  A    between atoms: C_1  and  C_2
REMARK    2  A    between atoms: C_8  and  C_9
REMARK    3  A    between atoms: C_15  and  N_16
REMARK    4  A    between atoms: N_19  and  C_20
REMARK    5  A    between atoms: C_20  and  C_21
REMARK    6  A    between atoms: C_27  and  C_28
REMARK                            x       y       z     vdW  Elec       q    Type
REMARK                         _______ _______ _______ _____ _____    ______ ____
ROOT
ATOM      1  C   UNL     1       4.711   4.641  17.481  0.00  0.00    -0.017 A 
ATOM      2  C   UNL     1       4.999   3.644  18.439  0.00  0.00    -0.054 A 
ATOM      3  C   UNL     1       4.282   3.554  19.638  0.00  0.00    -0.058 A 
ATOM      4  C   UNL     1       3.289   4.485  19.883  0.00  0.00    -0.042 A 
ATOM      5  C   UNL     1       2.992   5.484  18.952  0.00  0.00    -0.023 A 
ATOM      6  C   UNL     1       3.685   5.560  17.751  0.00  0.00    -0.049 A 
ATOM      7  C   UNL     1       1.852   6.344  19.433  0.00  0.00    +0.050 C 
ATOM      8  C   UNL     1       1.851   6.006  20.936  0.00  0.00    -0.026 C 
ATOM      9  C   UNL     1       2.372   4.568  21.063  0.00  0.00    -0.025 C 
ATOM     10  H   UNL     1       5.783   2.916  18.239  0.00  0.00    +0.062 HD
ATOM     11  H   UNL     1       4.505   2.768  20.353  0.00  0.00    +0.062 HD
ATOM     12  H   UNL     1       3.429   6.322  17.020  0.00  0.00    +0.063 HD
ATOM     13  H   UNL     1       0.918   6.017  18.960  0.00  0.00    +0.055 HD
ATOM     14  H   UNL     1       2.530   6.680  21.480  0.00  0.00    +0.029 HD
ATOM     15  H   UNL     1       0.861   6.130  21.388  0.00  0.00    +0.029 HD
ATOM     16  H   UNL     1       2.897   4.415  22.012  0.00  0.00    +0.031 HD
ATOM     17  H   UNL     1       1.560   3.841  20.963  0.00  0.00    +0.031 HD
ENDROOT
BRANCH   1  24
ATOM     18  C   UNL     1       6.673   5.486  16.116  0.00  0.00    -0.040 A 
ATOM     19  C   UNL     1       7.377   5.489  14.899  0.00  0.00    -0.023 A 
ATOM     20  C   UNL     1       6.899   4.774  13.808  0.00  0.00    +0.124 A 
ATOM     21  F   UNL     1       7.580   4.793  12.656  0.00  0.00    -0.205 F 
ATOM     22  C   UNL     1       5.726   4.041  13.896  0.00  0.00    -0.026 A 
ATOM     23  C   UNL     1       5.023   4.016  15.100  0.00  0.00    -0.051 A 
ATOM     24  C   UNL     1       5.482   4.728  16.229  0.00  0.00    -0.015 A 
ATOM     25  H   UNL     1       8.303   6.048  14.791  0.00  0.00    +0.065 HD
ATOM     26  H   UNL     1       5.370   3.488  13.034  0.00  0.00    +0.065 HD
ATOM     27  H   UNL     1       4.111   3.427  15.166  0.00  0.00    +0.062 HD
BRANCH  18  28
ATOM     28  C   UNL     1       7.232   6.272  17.272  0.00  0.00    -0.039 C 
ATOM     29  H   UNL     1       6.964   5.797  18.221  0.00  0.00    +0.028 HD
ATOM     30  H   UNL     1       6.864   7.303  17.259  0.00  0.00    +0.028 HD
ATOM     31  H   UNL     1       8.325   6.329  17.220  0.00  0.00    +0.028 HD
ENDBRANCH  18  28
ENDBRANCH   1  24
BRANCH   7  32
ATOM     32  N   UNL     1       2.089   7.756  19.206  0.00  0.00    -0.293 N 
ATOM     33  C   UNL     1       1.188   8.676  19.686  0.00  0.00    +0.300 C 
ATOM     34  O   UNL     1       0.287   8.423  20.470  0.00  0.00    -0.253 OA
ATOM     35  N   UNL     1       1.409   9.909  19.121  0.00  0.00    -0.295 N 
ATOM     36  H   UNL     1       2.440   7.984  18.289  0.00  0.00    +0.151 HD
ATOM     37  H   UNL     1       2.389  10.129  19.026  0.00  0.00    +0.151 HD
BRANCH  35  38
ATOM     38  C   UNL     1       0.536  11.019  19.456  0.00  0.00    +0.039 C 
ATOM     39  H   UNL     1       0.413  11.022  20.544  0.00  0.00    +0.051 HD
ATOM     40  H   UNL     1       1.060  11.930  19.149  0.00  0.00    +0.051 HD
BRANCH  38  41
ATOM     41  C   UNL     1      -0.812  10.977  18.761  0.00  0.00    -0.018 A 
ATOM     42  C   UNL     1      -1.055  10.081  17.700  0.00  0.00    -0.054 A 
ATOM     43  C   UNL     1      -2.318   9.989  17.109  0.00  0.00    -0.026 A 
ATOM     44  C   UNL     1      -3.349  10.796  17.564  0.00  0.00    +0.124 A 
ATOM     45  F   UNL     1      -4.560  10.698  17.001  0.00  0.00    -0.205 F 
ATOM     46  C   UNL     1      -3.138  11.717  18.579  0.00  0.00    -0.014 A 
ATOM     47  C   UNL     1      -1.868  11.828  19.159  0.00  0.00    +0.044 A 
ATOM     48  H   UNL     1      -0.269   9.421  17.339  0.00  0.00    +0.062 HD
ATOM     49  H   UNL     1      -2.505   9.278  16.310  0.00  0.00    +0.065 HD
ATOM     50  H   UNL     1      -3.959  12.348  18.909  0.00  0.00    +0.065 HD
BRANCH  47  51
ATOM     51  C   UNL     1      -1.710  12.882  20.188  0.00  0.00    +0.242 C 
ATOM     52  N   UNL     1      -1.448  14.143  19.729  0.00  0.00    -0.325 N 
ATOM     53  O   UNL     1      -1.894  12.661  21.376  0.00  0.00    -0.270 OA
ATOM     54  H   UNL     1      -1.526  14.874  20.426  0.00  0.00    +0.145 HD
ATOM     55  H   UNL     1      -1.659  14.398  18.775  0.00  0.00    +0.145 HD
ENDBRANCH  47  51
ENDBRANCH  38  41
ENDBRANCH  35  38
ENDBRANCH   7  32
TORSDOF 6
ENDMDL
MODEL 6
REMARK VINA RESULT:    -7.747      1.947      2.510
REMARK INTER + INTRA:         -11.457
REMARK INTER:                 -10.336
REMARK INTRA:                  -1.120
REMARK UNBOUND:                -1.219
REMARK  Name = 
REMARK  6 active torsions:
REMARK  status: ('A' for Active; 'I' for Inactive)
REMARK    1  A    between atoms: C_1  and  C_2
REMARK    2  A    between atoms: C_8  and  C_9
REMARK    3  A    between atoms: C_15  and  N_16
REMARK    4  A    between atoms: N_19  and  C_20
REMARK    5  A    between atoms: C_20  and  C_21
REMARK    6  A    between atoms: C_27  and  C_28
REMARK                            x       y       z     vdW  Elec       q    Type
REMARK                         _______ _______ _______ _____ _____    ______ ____
ROOT
ATOM      1  C   UNL     1       4.494   3.873  17.847  0.00  0.00    -0.017 A 
ATOM      2  C   UNL     1       4.610   2.588  18.421  0.00  0.00    -0.054 A 
ATOM      3  C   UNL     1       3.820   2.199  19.508  0.00  0.00    -0.058 A 
ATOM      4  C   UNL     1       2.926   3.114  20.035  0.00  0.00    -0.042 A 
ATOM      5  C   UNL     1       2.799   4.393  19.486  0.00  0.00    -0.023 A 
ATOM      6  C   UNL     1       3.565   4.774  18.392  0.00  0.00    -0.049 A 
ATOM      7  C   UNL     1       1.738   5.184  20.208  0.00  0.00    +0.050 C 
ATOM      8  C   UNL     1       1.612   4.371  21.512  0.00  0.00    -0.026 C 
ATOM      9  C   UNL     1       1.957   2.918  21.158  0.00  0.00    -0.025 C 
ATOM     10  H   UNL     1       5.317   1.874  18.001  0.00  0.00    +0.062 HD
ATOM     11  H   UNL     1       3.910   1.199  19.923  0.00  0.00    +0.062 HD
ATOM     12  H   UNL     1       3.441   5.761  17.955  0.00  0.00    +0.063 HD
ATOM     13  H   UNL     1       0.803   5.152  19.638  0.00  0.00    +0.055 HD
ATOM     14  H   UNL     1       2.330   4.735  22.261  0.00  0.00    +0.029 HD
ATOM     15  H   UNL     1       0.617   4.462  21.961  0.00  0.00    +0.029 HD
ATOM     16  H   UNL     1       2.405   2.395  22.009  0.00  0.00    +0.031 HD
ATOM     17  H   UNL     1       1.075   2.374  20.806  0.00  0.00    +0.031 HD
ENDROOT
BRANCH   1  24
ATOM     18  C   UNL     1       6.617   4.862  16.878  0.00  0.00    -0.040 A 
ATOM     19  C   UNL     1       7.387   5.178  15.744  0.00  0.00    -0.023 A 
ATOM     20  C   UNL     1       6.893   4.935  14.469  0.00  0.00    +0.124 A 
ATOM     21  F   UNL     1       7.637   5.247  13.402  0.00  0.00    -0.205 F 
ATOM     22  C   UNL     1       5.639   4.372  14.287  0.00  0.00    -0.026 A 
ATOM     23  C   UNL     1       4.870   4.040  15.401  0.00  0.00    -0.051 A 
ATOM     24  C   UNL     1       5.342   4.271  16.710  0.00  0.00    -0.015 A 
ATOM     25  H   UNL     1       8.376   5.616  15.845  0.00  0.00    +0.065 HD
ATOM     26  H   UNL     1       5.271   4.189  13.283  0.00  0.00    +0.065 HD
ATOM     27  H   UNL     1       3.892   3.586  15.250  0.00  0.00    +0.062 HD
BRANCH  18  28
ATOM     28  C   UNL     1       7.196   5.139  18.240  0.00  0.00    -0.039 C 
ATOM     29  H   UNL     1       8.112   4.559  18.390  0.00  0.00    +0.028 HD
ATOM     30  H   UNL     1       6.474   4.899  19.028  0.00  0.00    +0.028 HD
ATOM     31  H   UNL     1       7.445   6.200  18.356  0.00  0.00    +0.028 HD
ENDBRANCH  18  28
ENDBRANCH   1  24
BRANCH   7  32
ATOM     32  N   UNL     1       2.147   6.548  20.472  0.00  0.00    -0.293 N 
ATOM     33  C   UNL     1       1.202   7.477  20.836  0.00  0.00    +0.300 C 
ATOM     34  O   UNL     1       0.053   7.211  21.154  0.00  0.00    -0.253 OA
ATOM     35  N   UNL     1       1.712   8.749  20.742  0.00  0.00    -0.295 N 
ATOM     36  H   UNL     1       2.838   6.913  19.834  0.00  0.00    +0.151 HD
ATOM     37  H   UNL     1       2.667   8.815  21.059  0.00  0.00    +0.151 HD
BRANCH  35  38
ATOM     38  C   UNL     1       0.861   9.887  21.037  0.00  0.00    +0.039 C 
ATOM     39  H   UNL     1      -0.173   9.581  20.846  0.00  0.00    +0.051 HD
ATOM     40  H   UNL     1       0.983  10.098  22.105  0.00  0.00    +0.051 HD
BRANCH  38  41
ATOM     41  C   UNL     1       1.207  11.139  20.252  0.00  0.00    -0.018 A 
ATOM     42  C   UNL     1       1.513  12.348  20.910  0.00  0.00    -0.054 A 
ATOM     43  C   UNL     1       1.905  13.480  20.192  0.00  0.00    -0.026 A 
ATOM     44  C   UNL     1       1.986  13.422  18.809  0.00  0.00    +0.124 A 
ATOM     45  F   UNL     1       2.371  14.506  18.126  0.00  0.00    -0.205 F 
ATOM     46  C   UNL     1       1.655  12.263  18.124  0.00  0.00    -0.014 A 
ATOM     47  C   UNL     1       1.240  11.131  18.840  0.00  0.00    +0.044 A 
ATOM     48  H   UNL     1       1.479  12.413  21.996  0.00  0.00    +0.062 HD
ATOM     49  H   UNL     1       2.166  14.399  20.707  0.00  0.00    +0.065 HD
ATOM     50  H   UNL     1       1.713  12.245  17.039  0.00  0.00    +0.065 HD
BRANCH  47  51
ATOM     51  C   UNL     1       0.839   9.958  18.029  0.00  0.00    +0.242 C 
ATOM     52  N   UNL     1      -0.457   9.934  17.597  0.00  0.00    -0.325 N 
ATOM     53  O   UNL     1       1.642   9.102  17.686  0.00  0.00    -0.270 OA
ATOM     54  H   UNL     1      -0.660   9.227  16.900  0.00  0.00    +0.145 HD
ATOM     55  H   UNL     1      -1.004  10.782  17.559  0.00  0.00    +0.145 HD
ENDBRANCH  47  51
ENDBRANCH  38  41
ENDBRANCH  35  38
ENDBRANCH   7  32
TORSDOF 6
ENDMDL
MODEL 7
REMARK VINA RESULT:    -7.686      5.675      8.357
REMARK INTER + INTRA:         -11.376
REMARK INTER:                 -10.077
REMARK INTRA:                  -1.299
REMARK UNBOUND:                -1.219
REMARK  Name = 
REMARK  6 active torsions:
REMARK  status: ('A' for Active; 'I' for Inactive)
REMARK    1  A    between atoms: C_1  and  C_2
REMARK    2  A    between atoms: C_8  and  C_9
REMARK    3  A    between atoms: C_15  and  N_16
REMARK    4  A    between atoms: N_19  and  C_20
REMARK    5  A    between atoms: C_20  and  C_21
REMARK    6  A    between atoms: C_27  and  C_28
REMARK                            x       y       z     vdW  Elec       q    Type
REMARK                         _______ _______ _______ _____ _____    ______ ____
ROOT
ATOM      1  C   UNL     1       2.569   7.002  18.885  0.00  0.00    -0.017 A 
ATOM      2  C   UNL     1       1.968   5.899  18.238  0.00  0.00    -0.054 A 
ATOM      3  C   UNL     1       2.725   4.986  17.497  0.00  0.00    -0.058 A 
ATOM      4  C   UNL     1       4.088   5.196  17.386  0.00  0.00    -0.042 A 
ATOM      5  C   UNL     1       4.702   6.284  18.012  0.00  0.00    -0.023 A 
ATOM      6  C   UNL     1       3.957   7.178  18.769  0.00  0.00    -0.049 A 
ATOM      7  C   UNL     1       6.191   6.270  17.774  0.00  0.00    +0.050 C 
ATOM      8  C   UNL     1       6.279   5.318  16.565  0.00  0.00    -0.026 C 
ATOM      9  C   UNL     1       5.100   4.343  16.686  0.00  0.00    -0.025 C 
ATOM     10  H   UNL     1       0.894   5.742  18.330  0.00  0.00    +0.062 HD
ATOM     11  H   UNL     1       2.248   4.133  17.023  0.00  0.00    +0.062 HD
ATOM     12  H   UNL     1       4.446   8.006  19.275  0.00  0.00    +0.063 HD
ATOM     13  H   UNL     1       6.699   5.840  18.644  0.00  0.00    +0.055 HD
ATOM     14  H   UNL     1       6.179   5.883  15.626  0.00  0.00    +0.029 HD
ATOM     15  H   UNL     1       7.243   4.799  16.517  0.00  0.00    +0.029 HD
ATOM     16  H   UNL     1       4.756   4.008  15.702  0.00  0.00    +0.031 HD
ATOM     17  H   UNL     1       5.360   3.480  17.306  0.00  0.00    +0.031 HD
ENDROOT
BRANCH   1  24
ATOM     18  C   UNL     1       1.332   9.202  19.120  0.00  0.00    -0.040 A 
ATOM     19  C   UNL     1       0.523  10.048  19.899  0.00  0.00    -0.023 A 
ATOM     20  C   UNL     1       0.160   9.682  21.189  0.00  0.00    +0.124 A 
ATOM     21  F   UNL     1      -0.606  10.503  21.917  0.00  0.00    -0.205 F 
ATOM     22  C   UNL     1       0.580   8.478  21.732  0.00  0.00    -0.026 A 
ATOM     23  C   UNL     1       1.371   7.622  20.967  0.00  0.00    -0.051 A 
ATOM     24  C   UNL     1       1.755   7.961  19.652  0.00  0.00    -0.015 A 
ATOM     25  H   UNL     1       0.170  10.999  19.507  0.00  0.00    +0.065 HD
ATOM     26  H   UNL     1       0.285   8.210  22.741  0.00  0.00    +0.065 HD
ATOM     27  H   UNL     1       1.686   6.672  21.396  0.00  0.00    +0.062 HD
BRANCH  18  28
ATOM     28  C   UNL     1       1.696   9.638  17.725  0.00  0.00    -0.039 C 
ATOM     29  H   UNL     1       1.300   8.932  16.989  0.00  0.00    +0.028 HD
ATOM     30  H   UNL     1       2.782   9.720  17.612  0.00  0.00    +0.028 HD
ATOM     31  H   UNL     1       1.282  10.628  17.500  0.00  0.00    +0.028 HD
ENDBRANCH  18  28
ENDBRANCH   1  24
BRANCH   7  32
ATOM     32  N   UNL     1       6.712   7.583  17.455  0.00  0.00    -0.293 N 
ATOM     33  C   UNL     1       7.928   7.967  17.967  0.00  0.00    +0.300 C 
ATOM     34  O   UNL     1       8.719   7.218  18.519  0.00  0.00    -0.253 OA
ATOM     35  N   UNL     1       8.110   9.321  17.818  0.00  0.00    -0.295 N 
ATOM     36  H   UNL     1       6.027   8.323  17.460  0.00  0.00    +0.151 HD
ATOM     37  H   UNL     1       7.776   9.669  16.932  0.00  0.00    +0.151 HD
BRANCH  35  38
ATOM     38  C   UNL     1       9.314   9.945  18.335  0.00  0.00    +0.039 C 
ATOM     39  H   UNL     1       9.946   9.149  18.743  0.00  0.00    +0.051 HD
ATOM     40  H   UNL     1       9.819  10.403  17.478  0.00  0.00    +0.051 HD
BRANCH  38  41
ATOM     41  C   UNL     1       9.057  11.018  19.377  0.00  0.00    -0.018 A 
ATOM     42  C   UNL     1       9.077  10.713  20.754  0.00  0.00    -0.054 A 
ATOM     43  C   UNL     1       8.915  11.713  21.715  0.00  0.00    -0.026 A 
ATOM     44  C   UNL     1       8.722  13.027  21.315  0.00  0.00    +0.124 A 
ATOM     45  F   UNL     1       8.577  13.983  22.240  0.00  0.00    -0.205 F 
ATOM     46  C   UNL     1       8.658  13.359  19.970  0.00  0.00    -0.014 A 
ATOM     47  C   UNL     1       8.798  12.355  19.003  0.00  0.00    +0.044 A 
ATOM     48  H   UNL     1       9.248   9.694  21.094  0.00  0.00    +0.062 HD
ATOM     49  H   UNL     1       8.958  11.475  22.774  0.00  0.00    +0.065 HD
ATOM     50  H   UNL     1       8.493  14.393  19.681  0.00  0.00    +0.065 HD
BRANCH  47  51
ATOM     51  C   UNL     1       8.648  12.784  17.592  0.00  0.00    +0.242 C 
ATOM     52  N   UNL     1       9.739  13.374  17.018  0.00  0.00    -0.325 N 
ATOM     53  O   UNL     1       7.639  12.543  16.945  0.00  0.00    -0.270 OA
ATOM     54  H   UNL     1       9.681  13.491  16.014  0.00  0.00    +0.145 HD
ATOM     55  H   UNL     1      10.662  13.244  17.409  0.00  0.00    +0.145 HD
ENDBRANCH  47  51
ENDBRANCH  38  41
ENDBRANCH  35  38
ENDBRANCH   7  32
TORSDOF 6
ENDMDL
MODEL 8
REMARK VINA RESULT:    -7.680      1.685      1.954
REMARK INTER + INTRA:         -11.368
REMARK INTER:                 -10.483
REMARK INTRA:                  -0.885
REMARK UNBOUND:                -1.219
REMARK  Name = 
REMARK  6 active torsions:
REMARK  status: ('A' for Active; 'I' for Inactive)
REMARK    1  A    between atoms: C_1  and  C_2
REMARK    2  A    between atoms: C_8  and  C_9
REMARK    3  A    between atoms: C_15  and  N_16
REMARK    4  A    between atoms: N_19  and  C_20
REMARK    5  A    between atoms: C_20  and  C_21
REMARK    6  A    between atoms: C_27  and  C_28
REMARK                            x       y       z     vdW  Elec       q    Type
REMARK                         _______ _______ _______ _____ _____    ______ ____
ROOT
ATOM      1  C   UNL     1       4.731   4.066  17.722  0.00  0.00    -0.017 A 
ATOM      2  C   UNL     1       4.946   2.885  18.466  0.00  0.00    -0.054 A 
ATOM      3  C   UNL     1       4.216   2.609  19.627  0.00  0.00    -0.058 A 
ATOM      4  C   UNL     1       3.283   3.537  20.055  0.00  0.00    -0.042 A 
ATOM      5  C   UNL     1       3.059   4.715  19.338  0.00  0.00    -0.023 A 
ATOM      6  C   UNL     1       3.764   4.980  18.172  0.00  0.00    -0.049 A 
ATOM      7  C   UNL     1       1.972   5.537  19.983  0.00  0.00    +0.050 C 
ATOM      8  C   UNL     1       1.938   4.913  21.392  0.00  0.00    -0.026 C 
ATOM      9  C   UNL     1       2.364   3.447  21.233  0.00  0.00    -0.025 C 
ATOM     10  H   UNL     1       5.684   2.161  18.123  0.00  0.00    +0.062 HD
ATOM     11  H   UNL     1       4.382   1.686  20.174  0.00  0.00    +0.062 HD
ATOM     12  H   UNL     1       3.564   5.885  17.605  0.00  0.00    +0.063 HD
ATOM     13  H   UNL     1       1.023   5.370  19.461  0.00  0.00    +0.055 HD
ATOM     14  H   UNL     1       2.655   5.422  22.054  0.00  0.00    +0.029 HD
ATOM     15  H   UNL     1       0.954   5.009  21.864  0.00  0.00    +0.029 HD
ATOM     16  H   UNL     1       2.870   3.078  22.131  0.00  0.00    +0.031 HD
ATOM     17  H   UNL     1       1.508   2.807  20.996  0.00  0.00    +0.031 HD
ENDROOT
BRANCH   1  24
ATOM     18  C   UNL     1       6.803   4.936  16.548  0.00  0.00    -0.040 A 
ATOM     19  C   UNL     1       7.510   5.135  15.349  0.00  0.00    -0.023 A 
ATOM     20  C   UNL     1       6.943   4.781  14.132  0.00  0.00    +0.124 A 
ATOM     21  F   UNL     1       7.628   4.984  13.000  0.00  0.00    -0.205 F 
ATOM     22  C   UNL     1       5.677   4.219  14.072  0.00  0.00    -0.026 A 
ATOM     23  C   UNL     1       4.969   4.001  15.254  0.00  0.00    -0.051 A 
ATOM     24  C   UNL     1       5.516   4.347  16.508  0.00  0.00    -0.015 A 
ATOM     25  H   UNL     1       8.506   5.569  15.354  0.00  0.00    +0.065 HD
ATOM     26  H   UNL     1       5.252   3.947  13.112  0.00  0.00    +0.065 HD
ATOM     27  H   UNL     1       3.981   3.546  15.201  0.00  0.00    +0.062 HD
BRANCH  18  28
ATOM     28  C   UNL     1       7.459   5.331  17.845  0.00  0.00    -0.039 C 
ATOM     29  H   UNL     1       6.704   5.619  18.582  0.00  0.00    +0.028 HD
ATOM     30  H   UNL     1       8.160   6.158  17.692  0.00  0.00    +0.028 HD
ATOM     31  H   UNL     1       8.040   4.501  18.263  0.00  0.00    +0.028 HD
ENDBRANCH  18  28
ENDBRANCH   1  24
BRANCH   7  32
ATOM     32  N   UNL     1       2.302   6.947  20.036  0.00  0.00    -0.293 N 
ATOM     33  C   UNL     1       1.383   7.835  20.541  0.00  0.00    +0.300 C 
ATOM     34  O   UNL     1       0.368   7.519  21.142  0.00  0.00    -0.253 OA
ATOM     35  N   UNL     1       1.737   9.126  20.230  0.00  0.00    -0.295 N 
ATOM     36  H   UNL     1       2.791   7.298  19.227  0.00  0.00    +0.151 HD
ATOM     37  H   UNL     1       2.729   9.292  20.306  0.00  0.00    +0.151 HD
BRANCH  35  38
ATOM     38  C   UNL     1       0.874  10.223  20.630  0.00  0.00    +0.039 C 
ATOM     39  H   UNL     1       0.362   9.918  21.549  0.00  0.00    +0.051 HD
ATOM     40  H   UNL     1       1.531  11.071  20.848  0.00  0.00    +0.051 HD
BRANCH  38  41
ATOM     41  C   UNL     1      -0.125  10.643  19.569  0.00  0.00    -0.018 A 
ATOM     42  C   UNL     1      -1.312   9.912  19.359  0.00  0.00    -0.054 A 
ATOM     43  C   UNL     1      -2.268  10.340  18.435  0.00  0.00    -0.026 A 
ATOM     44  C   UNL     1      -2.047  11.497  17.703  0.00  0.00    +0.124 A 
ATOM     45  F   UNL     1      -2.970  11.908  16.826  0.00  0.00    -0.205 F 
ATOM     46  C   UNL     1      -0.874  12.222  17.854  0.00  0.00    -0.014 A 
ATOM     47  C   UNL     1       0.097  11.783  18.765  0.00  0.00    +0.044 A 
ATOM     48  H   UNL     1      -1.520   9.013  19.935  0.00  0.00    +0.062 HD
ATOM     49  H   UNL     1      -3.192   9.786  18.297  0.00  0.00    +0.065 HD
ATOM     50  H   UNL     1      -0.717  13.118  17.261  0.00  0.00    +0.065 HD
BRANCH  47  51
ATOM     51  C   UNL     1       1.348  12.575  18.815  0.00  0.00    +0.242 C 
ATOM     52  N   UNL     1       2.286  12.290  17.862  0.00  0.00    -0.325 N 
ATOM     53  O   UNL     1       1.501  13.496  19.605  0.00  0.00    -0.270 OA
ATOM     54  H   UNL     1       3.045  12.957  17.799  0.00  0.00    +0.145 HD
ATOM     55  H   UNL     1       2.026  11.812  17.011  0.00  0.00    +0.145 HD
ENDBRANCH  47  51
ENDBRANCH  38  41
ENDBRANCH  35  38
ENDBRANCH   7  32
TORSDOF 6
ENDMDL
MODEL 9
REMARK VINA RESULT:    -7.657      4.445      9.063
REMARK INTER + INTRA:         -11.337
REMARK INTER:                 -10.348
REMARK INTRA:                  -0.989
REMARK UNBOUND:                -1.219
REMARK  Name = 
REMARK  6 active torsions:
REMARK  status: ('A' for Active; 'I' for Inactive)
REMARK    1  A    between atoms: C_1  and  C_2
REMARK    2  A    between atoms: C_8  and  C_9
REMARK    3  A    between atoms: C_15  and  N_16
REMARK    4  A    between atoms: N_19  and  C_20
REMARK    5  A    between atoms: C_20  and  C_21
REMARK    6  A    between atoms: C_27  and  C_28
REMARK                            x       y       z     vdW  Elec       q    Type
REMARK                         _______ _______ _______ _____ _____    ______ ____
ROOT
ATOM      1  C   UNL     1       2.157  13.784  19.168  0.00  0.00    -0.017 A 
ATOM      2  C   UNL     1       1.127  14.709  18.892  0.00  0.00    -0.054 A 
ATOM      3  C   UNL     1      -0.219  14.325  18.887  0.00  0.00    -0.058 A 
ATOM      4  C   UNL     1      -0.527  12.999  19.137  0.00  0.00    -0.042 A 
ATOM      5  C   UNL     1       0.478  12.066  19.406  0.00  0.00    -0.023 A 
ATOM      6  C   UNL     1       1.812  12.450  19.435  0.00  0.00    -0.049 A 
ATOM      7  C   UNL     1      -0.113  10.707  19.681  0.00  0.00    +0.050 C 
ATOM      8  C   UNL     1      -1.523  10.879  19.083  0.00  0.00    -0.026 C 
ATOM      9  C   UNL     1      -1.880  12.366  19.222  0.00  0.00    -0.025 C 
ATOM     10  H   UNL     1       1.378  15.750  18.695  0.00  0.00    +0.062 HD
ATOM     11  H   UNL     1      -0.998  15.056  18.692  0.00  0.00    +0.062 HD
ATOM     12  H   UNL     1       2.584  11.723  19.673  0.00  0.00    +0.063 HD
ATOM     13  H   UNL     1      -0.168  10.541  20.764  0.00  0.00    +0.055 HD
ATOM     14  H   UNL     1      -1.520  10.613  18.015  0.00  0.00    +0.029 HD
ATOM     15  H   UNL     1      -2.260  10.229  19.566  0.00  0.00    +0.029 HD
ATOM     16  H   UNL     1      -2.546  12.694  18.418  0.00  0.00    +0.031 HD
ATOM     17  H   UNL     1      -2.335  12.576  20.195  0.00  0.00    +0.031 HD
ENDROOT
BRANCH   1  24
ATOM     18  C   UNL     1       4.263  14.579  20.333  0.00  0.00    -0.040 A 
ATOM     19  C   UNL     1       5.623  14.928  20.251  0.00  0.00    -0.023 A 
ATOM     20  C   UNL     1       6.276  14.926  19.025  0.00  0.00    +0.124 A 
ATOM     21  F   UNL     1       7.569  15.267  18.966  0.00  0.00    -0.205 F 
ATOM     22  C   UNL     1       5.608  14.577  17.863  0.00  0.00    -0.026 A 
ATOM     23  C   UNL     1       4.263  14.215  17.929  0.00  0.00    -0.051 A 
ATOM     24  C   UNL     1       3.569  14.203  19.158  0.00  0.00    -0.015 A 
ATOM     25  H   UNL     1       6.183  15.204  21.141  0.00  0.00    +0.065 HD
ATOM     26  H   UNL     1       6.136  14.581  16.915  0.00  0.00    +0.065 HD
ATOM     27  H   UNL     1       3.748  13.928  17.014  0.00  0.00    +0.062 HD
BRANCH  18  28
ATOM     28  C   UNL     1       3.598  14.590  21.684  0.00  0.00    -0.039 C 
ATOM     29  H   UNL     1       3.323  15.612  21.965  0.00  0.00    +0.028 HD
ATOM     30  H   UNL     1       4.256  14.162  22.448  0.00  0.00    +0.028 HD
ATOM     31  H   UNL     1       2.685  13.984  21.680  0.00  0.00    +0.028 HD
ENDBRANCH  18  28
ENDBRANCH   1  24
BRANCH   7  32
ATOM     32  N   UNL     1       0.616   9.642  19.023  0.00  0.00    -0.293 N 
ATOM     33  C   UNL     1       1.224   8.672  19.783  0.00  0.00    +0.300 C 
ATOM     34  O   UNL     1       1.041   8.510  20.980  0.00  0.00    -0.253 OA
ATOM     35  N   UNL     1       2.106   7.943  19.022  0.00  0.00    -0.295 N 
ATOM     36  H   UNL     1       1.171   9.934  18.234  0.00  0.00    +0.151 HD
ATOM     37  H   UNL     1       1.758   7.747  18.096  0.00  0.00    +0.151 HD
BRANCH  35  38
ATOM     38  C   UNL     1       2.892   6.893  19.643  0.00  0.00    +0.039 C 
ATOM     39  H   UNL     1       3.917   6.987  19.269  0.00  0.00    +0.051 HD
ATOM     40  H   UNL     1       2.882   7.092  20.720  0.00  0.00    +0.051 HD
BRANCH  38  41
ATOM     41  C   UNL     1       2.357   5.494  19.403  0.00  0.00    -0.018 A 
ATOM     42  C   UNL     1       1.399   4.924  20.268  0.00  0.00    -0.054 A 
ATOM     43  C   UNL     1       0.850   3.667  20.006  0.00  0.00    -0.026 A 
ATOM     44  C   UNL     1       1.256   2.960  18.884  0.00  0.00    +0.124 A 
ATOM     45  F   UNL     1       0.720   1.759  18.633  0.00  0.00    -0.205 F 
ATOM     46  C   UNL     1       2.224   3.470  18.032  0.00  0.00    -0.014 A 
ATOM     47  C   UNL     1       2.793   4.722  18.304  0.00  0.00    +0.044 A 
ATOM     48  H   UNL     1       1.049   5.467  21.142  0.00  0.00    +0.062 HD
ATOM     49  H   UNL     1       0.094   3.246  20.662  0.00  0.00    +0.065 HD
ATOM     50  H   UNL     1       2.535   2.892  17.167  0.00  0.00    +0.065 HD
BRANCH  47  51
ATOM     51  C   UNL     1       3.867   5.162  17.383  0.00  0.00    +0.242 C 
ATOM     52  N   UNL     1       4.606   4.174  16.795  0.00  0.00    -0.325 N 
ATOM     53  O   UNL     1       4.028   6.339  17.090  0.00  0.00    -0.270 OA
ATOM     54  H   UNL     1       5.204   4.483  16.039  0.00  0.00    +0.145 HD
ATOM     55  H   UNL     1       4.252   3.229  16.741  0.00  0.00    +0.145 HD
ENDBRANCH  47  51
ENDBRANCH  38  41
ENDBRANCH  35  38
ENDBRANCH   7  32
TORSDOF 6
ENDMDL
MODEL 10
REMARK VINA RESULT:    -7.569      3.876      9.365
REMARK INTER + INTRA:         -11.221
REMARK INTER:                 -10.057
REMARK INTRA:                  -1.164
REMARK UNBOUND:                -1.219
REMARK  Name = 
REMARK  6 active torsions:
REMARK  status: ('A' for Active; 'I' for Inactive)
REMARK    1  A    between atoms: C_1  and  C_2
REMARK    2  A    between atoms: C_8  and  C_9
REMARK    3  A    between atoms: C_15  and  N_16
REMARK    4  A    between atoms: N_19  and  C_20
REMARK    5  A    between atoms: C_20  and  C_21
REMARK    6  A    between atoms: C_27  and  C_28
REMARK                            x       y       z     vdW  Elec       q    Type
REMARK                         _______ _______ _______ _____ _____    ______ ____
ROOT
ATOM      1  C   UNL     1       1.724  13.418  19.515  0.00  0.00    -0.017 A 
ATOM      2  C   UNL     1       0.670  14.322  19.259  0.00  0.00    -0.054 A 
ATOM      3  C   UNL     1      -0.569  13.883  18.780  0.00  0.00    -0.058 A 
ATOM      4  C   UNL     1      -0.740  12.532  18.534  0.00  0.00    -0.042 A 
ATOM      5  C   UNL     1       0.292  11.621  18.774  0.00  0.00    -0.023 A 
ATOM      6  C   UNL     1       1.515  12.051  19.273  0.00  0.00    -0.049 A 
ATOM      7  C   UNL     1      -0.153  10.214  18.466  0.00  0.00    +0.050 C 
ATOM      8  C   UNL     1      -1.390  10.488  17.590  0.00  0.00    -0.026 C 
ATOM      9  C   UNL     1      -1.973  11.828  18.062  0.00  0.00    -0.025 C 
ATOM     10  H   UNL     1       0.813  15.384  19.454  0.00  0.00    +0.062 HD
ATOM     11  H   UNL     1      -1.374  14.591  18.608  0.00  0.00    +0.062 HD
ATOM     12  H   UNL     1       2.302  11.332  19.483  0.00  0.00    +0.063 HD
ATOM     13  H   UNL     1      -0.438   9.706  19.395  0.00  0.00    +0.055 HD
ATOM     14  H   UNL     1      -1.098  10.580  16.533  0.00  0.00    +0.029 HD
ATOM     15  H   UNL     1      -2.123   9.676  17.643  0.00  0.00    +0.029 HD
ATOM     16  H   UNL     1      -2.470  12.358  17.243  0.00  0.00    +0.031 HD
ATOM     17  H   UNL     1      -2.670  11.687  18.894  0.00  0.00    +0.031 HD
ENDROOT
BRANCH   1  24
ATOM     18  C   UNL     1       3.965  14.554  19.177  0.00  0.00    -0.040 A 
ATOM     19  C   UNL     1       5.171  15.021  19.729  0.00  0.00    -0.023 A 
ATOM     20  C   UNL     1       5.451  14.821  21.075  0.00  0.00    +0.124 A 
ATOM     21  F   UNL     1       6.607  15.267  21.582  0.00  0.00    -0.205 F 
ATOM     22  C   UNL     1       4.551  14.166  21.900  0.00  0.00    -0.026 A 
ATOM     23  C   UNL     1       3.345  13.709  21.371  0.00  0.00    -0.051 A 
ATOM     24  C   UNL     1       3.026  13.898  20.009  0.00  0.00    -0.015 A 
ATOM     25  H   UNL     1       5.901  15.542  19.116  0.00  0.00    +0.065 HD
ATOM     26  H   UNL     1       4.788  14.021  22.949  0.00  0.00    +0.065 HD
ATOM     27  H   UNL     1       2.636  13.208  22.028  0.00  0.00    +0.062 HD
BRANCH  18  28
ATOM     28  C   UNL     1       3.702  14.797  17.714  0.00  0.00    -0.039 C 
ATOM     29  H   UNL     1       4.320  15.623  17.348  0.00  0.00    +0.028 HD
ATOM     30  H   UNL     1       2.645  15.022  17.539  0.00  0.00    +0.028 HD
ATOM     31  H   UNL     1       3.936  13.909  17.117  0.00  0.00    +0.028 HD
ENDBRANCH  18  28
ENDBRANCH   1  24
BRANCH   7  32
ATOM     32  N   UNL     1       0.853   9.461  17.743  0.00  0.00    -0.293 N 
ATOM     33  C   UNL     1       1.696   8.625  18.436  0.00  0.00    +0.300 C 
ATOM     34  O   UNL     1       1.548   8.301  19.604  0.00  0.00    -0.253 OA
ATOM     35  N   UNL     1       2.755   8.246  17.648  0.00  0.00    -0.295 N 
ATOM     36  H   UNL     1       1.316   9.972  17.008  0.00  0.00    +0.151 HD
ATOM     37  H   UNL     1       2.489   8.056  16.694  0.00  0.00    +0.151 HD
BRANCH  35  38
ATOM     38  C   UNL     1       3.794   7.397  18.202  0.00  0.00    +0.039 C 
ATOM     39  H   UNL     1       4.612   8.049  18.526  0.00  0.00    +0.051 HD
ATOM     40  H   UNL     1       3.358   6.903  19.076  0.00  0.00    +0.051 HD
BRANCH  38  41
ATOM     41  C   UNL     1       4.299   6.333  17.245  0.00  0.00    -0.018 A 
ATOM     42  C   UNL     1       5.156   6.664  16.176  0.00  0.00    -0.054 A 
ATOM     43  C   UNL     1       5.682   5.676  15.341  0.00  0.00    -0.026 A 
ATOM     44  C   UNL     1       5.352   4.347  15.556  0.00  0.00    +0.124 A 
ATOM     45  F   UNL     1       5.865   3.403  14.759  0.00  0.00    -0.205 F 
ATOM     46  C   UNL     1       4.481   3.986  16.574  0.00  0.00    -0.014 A 
ATOM     47  C   UNL     1       3.934   4.977  17.400  0.00  0.00    +0.044 A 
ATOM     48  H   UNL     1       5.448   7.698  15.999  0.00  0.00    +0.062 HD
ATOM     49  H   UNL     1       6.363   5.936  14.535  0.00  0.00    +0.065 HD
ATOM     50  H   UNL     1       4.226   2.939  16.715  0.00  0.00    +0.065 HD
BRANCH  47  51
ATOM     51  C   UNL     1       2.961   4.514  18.417  0.00  0.00    +0.242 C 
ATOM     52  N   UNL     1       3.486   3.962  19.552  0.00  0.00    -0.325 N 
ATOM     53  O   UNL     1       1.758   4.696  18.294  0.00  0.00    -0.270 OA
ATOM     54  H   UNL     1       2.822   3.822  20.304  0.00  0.00    +0.145 HD
ATOM     55  H   UNL     1       4.444   4.141  19.817  0.00  0.00    +0.145 HD
ENDBRANCH  47  51
ENDBRANCH  38  41
ENDBRANCH  35  38
ENDBRANCH   7  32
TORSDOF 6
ENDMDL
MODEL 11
REMARK VINA RESULT:    -7.523      4.302      9.109
REMARK INTER + INTRA:         -11.160
REMARK INTER:                 -10.062
REMARK INTRA:                  -1.099
REMARK UNBOUND:                -1.219
REMARK  Name = 
REMARK  6 active torsions:
REMARK  status: ('A' for Active; 'I' for Inactive)
REMARK    1  A    between atoms: C_1  and  C_2
REMARK    2  A    between atoms: C_8  and  C_9
REMARK    3  A    between atoms: C_15  and  N_16
REMARK    4  A    between atoms: N_19  and  C_20
REMARK    5  A    between atoms: C_20  and  C_21
REMARK    6  A    between atoms: C_27  and  C_28
REMARK                            x       y       z     vdW  Elec       q    Type
REMARK                         _______ _______ _______ _____ _____    ______ ____
ROOT
ATOM      1  C   UNL     1       2.346  14.255  19.380  0.00  0.00    -0.017 A 
ATOM      2  C   UNL     1       1.374  15.244  19.115  0.00  0.00    -0.054 A 
ATOM      3  C   UNL     1       0.006  14.973  19.227  0.00  0.00    -0.058 A 
ATOM      4  C   UNL     1      -0.386  13.695  19.584  0.00  0.00    -0.042 A 
ATOM      5  C   UNL     1       0.559  12.699  19.844  0.00  0.00    -0.023 A 
ATOM      6  C   UNL     1       1.918  12.972  19.758  0.00  0.00    -0.049 A 
ATOM      7  C   UNL     1      -0.115  11.413  20.249  0.00  0.00    +0.050 C 
ATOM      8  C   UNL     1      -1.547  11.666  19.738  0.00  0.00    -0.026 C 
ATOM      9  C   UNL     1      -1.774  13.183  19.803  0.00  0.00    -0.025 C 
ATOM     10  H   UNL     1       1.691  16.247  18.833  0.00  0.00    +0.062 HD
ATOM     11  H   UNL     1      -0.726  15.753  19.038  0.00  0.00    +0.062 HD
ATOM     12  H   UNL     1       2.646  12.200  19.989  0.00  0.00    +0.063 HD
ATOM     13  H   UNL     1      -0.103  11.318  21.341  0.00  0.00    +0.055 HD
ATOM     14  H   UNL     1      -1.643  11.336  18.693  0.00  0.00    +0.029 HD
ATOM     15  H   UNL     1      -2.295  11.109  20.312  0.00  0.00    +0.029 HD
ATOM     16  H   UNL     1      -2.470  13.516  19.027  0.00  0.00    +0.031 HD
ATOM     17  H   UNL     1      -2.139  13.488  20.789  0.00  0.00    +0.031 HD
ENDROOT
BRANCH   1  24
ATOM     18  C   UNL     1       4.585  14.957  20.341  0.00  0.00    -0.040 A 
ATOM     19  C   UNL     1       5.958  15.184  20.144  0.00  0.00    -0.023 A 
ATOM     20  C   UNL     1       6.521  15.040  18.882  0.00  0.00    +0.124 A 
ATOM     21  F   UNL     1       7.829  15.267  18.713  0.00  0.00    -0.205 F 
ATOM     22  C   UNL     1       5.747  14.662  17.796  0.00  0.00    -0.026 A 
ATOM     23  C   UNL     1       4.386  14.419  17.978  0.00  0.00    -0.051 A 
ATOM     24  C   UNL     1       3.783  14.554  19.246  0.00  0.00    -0.015 A 
ATOM     25  H   UNL     1       6.600  15.478  20.971  0.00  0.00    +0.065 HD
ATOM     26  H   UNL     1       6.206  14.553  16.819  0.00  0.00    +0.065 HD
ATOM     27  H   UNL     1       3.787  14.109  17.123  0.00  0.00    +0.062 HD
BRANCH  18  28
ATOM     28  C   UNL     1       4.020  15.121  21.727  0.00  0.00    -0.039 C 
ATOM     29  H   UNL     1       4.806  15.420  22.426  0.00  0.00    +0.028 HD
ATOM     30  H   UNL     1       3.552  14.193  22.071  0.00  0.00    +0.028 HD
ATOM     31  H   UNL     1       3.240  15.891  21.747  0.00  0.00    +0.028 HD
ENDBRANCH  18  28
ENDBRANCH   1  24
BRANCH   7  32
ATOM     32  N   UNL     1       0.478  10.254  19.614  0.00  0.00    -0.293 N 
ATOM     33  C   UNL     1       0.730   9.130  20.364  0.00  0.00    +0.300 C 
ATOM     34  O   UNL     1       0.315   8.942  21.497  0.00  0.00    -0.253 OA
ATOM     35  N   UNL     1       1.558   8.270  19.683  0.00  0.00    -0.295 N 
ATOM     36  H   UNL     1       1.210  10.462  18.952  0.00  0.00    +0.151 HD
ATOM     37  H   UNL     1       1.342   8.211  18.700  0.00  0.00    +0.151 HD
BRANCH  35  38
ATOM     38  C   UNL     1       1.989   7.037  20.317  0.00  0.00    +0.039 C 
ATOM     39  H   UNL     1       2.678   7.307  21.124  0.00  0.00    +0.051 HD
ATOM     40  H   UNL     1       1.092   6.578  20.746  0.00  0.00    +0.051 HD
BRANCH  38  41
ATOM     41  C   UNL     1       2.634   6.045  19.366  0.00  0.00    -0.018 A 
ATOM     42  C   UNL     1       3.345   6.484  18.231  0.00  0.00    -0.054 A 
ATOM     43  C   UNL     1       4.003   5.576  17.397  0.00  0.00    -0.026 A 
ATOM     44  C   UNL     1       3.950   4.220  17.681  0.00  0.00    +0.124 A 
ATOM     45  F   UNL     1       4.588   3.355  16.885  0.00  0.00    -0.205 F 
ATOM     46  C   UNL     1       3.227   3.748  18.767  0.00  0.00    -0.014 A 
ATOM     47  C   UNL     1       2.549   4.654  19.593  0.00  0.00    +0.044 A 
ATOM     48  H   UNL     1       3.420   7.544  17.998  0.00  0.00    +0.062 HD
ATOM     49  H   UNL     1       4.571   5.924  16.539  0.00  0.00    +0.065 HD
ATOM     50  H   UNL     1       3.190   2.679  18.962  0.00  0.00    +0.065 HD
BRANCH  47  51
ATOM     51  C   UNL     1       1.746   4.061  20.688  0.00  0.00    +0.242 C 
ATOM     52  N   UNL     1       0.492   3.631  20.357  0.00  0.00    -0.325 N 
ATOM     53  O   UNL     1       2.208   3.881  21.806  0.00  0.00    -0.270 OA
ATOM     54  H   UNL     1       0.034   3.069  21.065  0.00  0.00    +0.145 HD
ATOM     55  H   UNL     1       0.250   3.439  19.395  0.00  0.00    +0.145 HD
ENDBRANCH  47  51
ENDBRANCH  38  41
ENDBRANCH  35  38
ENDBRANCH   7  32
TORSDOF 6
ENDMDL
MODEL 12
REMARK VINA RESULT:    -7.380      2.412      3.079
REMARK INTER + INTRA:         -10.972
REMARK INTER:                  -9.940
REMARK INTRA:                  -1.032
REMARK UNBOUND:                -1.219
REMARK  Name = 
REMARK  6 active torsions:
REMARK  status: ('A' for Active; 'I' for Inactive)
REMARK    1  A    between atoms: C_1  and  C_2
REMARK    2  A    between atoms: C_8  and  C_9
REMARK    3  A    between atoms: C_15  and  N_16
REMARK    4  A    between atoms: N_19  and  C_20
REMARK    5  A    between atoms: C_20  and  C_21
REMARK    6  A    between atoms: C_27  and  C_28
REMARK                            x       y       z     vdW  Elec       q    Type
REMARK                         _______ _______ _______ _____ _____    ______ ____
ROOT
ATOM      1  C   UNL     1       4.900   4.903  18.752  0.00  0.00    -0.017 A 
ATOM      2  C   UNL     1       5.120   3.511  18.662  0.00  0.00    -0.054 A 
ATOM      3  C   UNL     1       4.126   2.590  19.010  0.00  0.00    -0.058 A 
ATOM      4  C   UNL     1       2.914   3.071  19.474  0.00  0.00    -0.042 A 
ATOM      5  C   UNL     1       2.678   4.444  19.578  0.00  0.00    -0.023 A 
ATOM      6  C   UNL     1       3.654   5.361  19.209  0.00  0.00    -0.049 A 
ATOM      7  C   UNL     1       1.278   4.711  20.068  0.00  0.00    +0.050 C 
ATOM      8  C   UNL     1       0.916   3.338  20.668  0.00  0.00    -0.026 C 
ATOM      9  C   UNL     1       1.700   2.289  19.866  0.00  0.00    -0.025 C 
ATOM     10  H   UNL     1       6.077   3.140  18.297  0.00  0.00    +0.062 HD
ATOM     11  H   UNL     1       4.308   1.523  18.915  0.00  0.00    +0.062 HD
ATOM     12  H   UNL     1       3.451   6.427  19.266  0.00  0.00    +0.063 HD
ATOM     13  H   UNL     1       0.628   4.947  19.218  0.00  0.00    +0.055 HD
ATOM     14  H   UNL     1       1.228   3.287  21.722  0.00  0.00    +0.029 HD
ATOM     15  H   UNL     1      -0.163   3.151  20.651  0.00  0.00    +0.029 HD
ATOM     16  H   UNL     1       1.944   1.418  20.481  0.00  0.00    +0.031 HD
ATOM     17  H   UNL     1       1.147   1.976  18.975  0.00  0.00    +0.031 HD
ENDROOT
BRANCH   1  24
ATOM     18  C   UNL     1       5.845   6.754  17.301  0.00  0.00    -0.040 A 
ATOM     19  C   UNL     1       6.883   7.667  17.043  0.00  0.00    -0.023 A 
ATOM     20  C   UNL     1       8.023   7.677  17.836  0.00  0.00    +0.124 A 
ATOM     21  F   UNL     1       9.003   8.550  17.572  0.00  0.00    -0.205 F 
ATOM     22  C   UNL     1       8.160   6.797  18.898  0.00  0.00    -0.026 A 
ATOM     23  C   UNL     1       7.134   5.895  19.175  0.00  0.00    -0.051 A 
ATOM     24  C   UNL     1       5.961   5.859  18.392  0.00  0.00    -0.015 A 
ATOM     25  H   UNL     1       6.811   8.377  16.223  0.00  0.00    +0.065 HD
ATOM     26  H   UNL     1       9.058   6.821  19.506  0.00  0.00    +0.065 HD
ATOM     27  H   UNL     1       7.243   5.215  20.019  0.00  0.00    +0.062 HD
BRANCH  18  28
ATOM     28  C   UNL     1       4.625   6.783  16.418  0.00  0.00    -0.039 C 
ATOM     29  H   UNL     1       4.918   6.787  15.364  0.00  0.00    +0.028 HD
ATOM     30  H   UNL     1       4.008   7.661  16.633  0.00  0.00    +0.028 HD
ATOM     31  H   UNL     1       3.992   5.905  16.590  0.00  0.00    +0.028 HD
ENDBRANCH  18  28
ENDBRANCH   1  24
BRANCH   7  32
ATOM     32  N   UNL     1       1.233   5.756  21.071  0.00  0.00    -0.293 N 
ATOM     33  C   UNL     1       1.343   7.069  20.680  0.00  0.00    +0.300 C 
ATOM     34  O   UNL     1       1.279   7.459  19.525  0.00  0.00    -0.253 OA
ATOM     35  N   UNL     1       1.587   7.878  21.764  0.00  0.00    -0.295 N 
ATOM     36  H   UNL     1       1.737   5.550  21.920  0.00  0.00    +0.151 HD
ATOM     37  H   UNL     1       1.058   7.612  22.581  0.00  0.00    +0.151 HD
BRANCH  35  38
ATOM     38  C   UNL     1       1.785   9.302  21.568  0.00  0.00    +0.039 C 
ATOM     39  H   UNL     1       2.549   9.628  22.281  0.00  0.00    +0.051 HD
ATOM     40  H   UNL     1       2.167   9.425  20.549  0.00  0.00    +0.051 HD
BRANCH  38  41
ATOM     41  C   UNL     1       0.521  10.129  21.715  0.00  0.00    -0.018 A 
ATOM     42  C   UNL     1      -0.241  10.086  22.901  0.00  0.00    -0.054 A 
ATOM     43  C   UNL     1      -1.361  10.903  23.067  0.00  0.00    -0.026 A 
ATOM     44  C   UNL     1      -1.741  11.764  22.049  0.00  0.00    +0.124 A 
ATOM     45  F   UNL     1      -2.811  12.551  22.216  0.00  0.00    -0.205 F 
ATOM     46  C   UNL     1      -1.040  11.805  20.853  0.00  0.00    -0.014 A 
ATOM     47  C   UNL     1       0.072  10.972  20.674  0.00  0.00    +0.044 A 
ATOM     48  H   UNL     1       0.049   9.435  23.724  0.00  0.00    +0.062 HD
ATOM     49  H   UNL     1      -1.928  10.884  23.994  0.00  0.00    +0.065 HD
ATOM     50  H   UNL     1      -1.364  12.479  20.064  0.00  0.00    +0.065 HD
BRANCH  47  51
ATOM     51  C   UNL     1       0.722  11.028  19.344  0.00  0.00    +0.242 C 
ATOM     52  N   UNL     1       0.202  10.212  18.379  0.00  0.00    -0.325 N 
ATOM     53  O   UNL     1       1.615  11.825  19.092  0.00  0.00    -0.270 OA
ATOM     54  H   UNL     1       0.535  10.396  17.441  0.00  0.00    +0.145 HD
ATOM     55  H   UNL     1      -0.734   9.842  18.467  0.00  0.00    +0.145 HD
ENDBRANCH  47  51
ENDBRANCH  38  41
ENDBRANCH  35  38
ENDBRANCH   7  32
TORSDOF 6
ENDMDL
MODEL 13
REMARK VINA RESULT:    -7.269      2.413      2.858
REMARK INTER + INTRA:         -10.824
REMARK INTER:                  -9.707
REMARK INTRA:                  -1.118
REMARK UNBOUND:                -1.219
REMARK  Name = 
REMARK  6 active torsions:
REMARK  status: ('A' for Active; 'I' for Inactive)
REMARK    1  A    between atoms: C_1  and  C_2
REMARK    2  A    between atoms: C_8  and  C_9
REMARK    3  A    between atoms: C_15  and  N_16
REMARK    4  A    between atoms: N_19  and  C_20
REMARK    5  A    between atoms: C_20  and  C_21
REMARK    6  A    between atoms: C_27  and  C_28
REMARK                            x       y       z     vdW  Elec       q    Type
REMARK                         _______ _______ _______ _____ _____    ______ ____
ROOT
ATOM      1  C   UNL     1       4.544   4.752  17.368  0.00  0.00    -0.017 A 
ATOM      2  C   UNL     1       4.554   3.644  18.243  0.00  0.00    -0.054 A 
ATOM      3  C   UNL     1       3.730   3.598  19.374  0.00  0.00    -0.058 A 
ATOM      4  C   UNL     1       2.912   4.682  19.638  0.00  0.00    -0.042 A 
ATOM      5  C   UNL     1       2.892   5.792  18.789  0.00  0.00    -0.023 A 
ATOM      6  C   UNL     1       3.689   5.829  17.653  0.00  0.00    -0.049 A 
ATOM      7  C   UNL     1       1.895   6.816  19.269  0.00  0.00    +0.050 C 
ATOM      8  C   UNL     1       1.699   6.363  20.730  0.00  0.00    -0.026 C 
ATOM      9  C   UNL     1       1.927   4.845  20.753  0.00  0.00    -0.025 C 
ATOM     10  H   UNL     1       5.202   2.795  18.029  0.00  0.00    +0.062 HD
ATOM     11  H   UNL     1       3.738   2.728  20.024  0.00  0.00    +0.062 HD
ATOM     12  H   UNL     1       3.646   6.684  16.983  0.00  0.00    +0.063 HD
ATOM     13  H   UNL     1       0.962   6.717  18.703  0.00  0.00    +0.055 HD
ATOM     14  H   UNL     1       2.442   6.845  21.382  0.00  0.00    +0.029 HD
ATOM     15  H   UNL     1       0.714   6.640  21.119  0.00  0.00    +0.029 HD
ATOM     16  H   UNL     1       2.328   4.517  21.717  0.00  0.00    +0.031 HD
ATOM     17  H   UNL     1       1.005   4.302  20.525  0.00  0.00    +0.031 HD
ENDROOT
BRANCH   1  24
ATOM     18  C   UNL     1       6.691   5.424  16.199  0.00  0.00    -0.040 A 
ATOM     19  C   UNL     1       7.494   5.383  15.046  0.00  0.00    -0.023 A 
ATOM     20  C   UNL     1       7.042   4.746  13.897  0.00  0.00    +0.124 A 
ATOM     21  F   UNL     1       7.818   4.722  12.806  0.00  0.00    -0.205 F 
ATOM     22  C   UNL     1       5.798   4.135  13.863  0.00  0.00    -0.026 A 
ATOM     23  C   UNL     1       4.996   4.155  15.003  0.00  0.00    -0.051 A 
ATOM     24  C   UNL     1       5.425   4.789  16.188  0.00  0.00    -0.015 A 
ATOM     25  H   UNL     1       8.476   5.846  15.033  0.00  0.00    +0.065 HD
ATOM     26  H   UNL     1       5.464   3.642  12.957  0.00  0.00    +0.065 HD
ATOM     27  H   UNL     1       4.026   3.660  14.974  0.00  0.00    +0.062 HD
BRANCH  18  28
ATOM     28  C   UNL     1       7.224   6.121  17.423  0.00  0.00    -0.039 C 
ATOM     29  H   UNL     1       7.562   7.130  17.169  0.00  0.00    +0.028 HD
ATOM     30  H   UNL     1       8.050   5.555  17.866  0.00  0.00    +0.028 HD
ATOM     31  H   UNL     1       6.452   6.207  18.196  0.00  0.00    +0.028 HD
ENDBRANCH  18  28
ENDBRANCH   1  24
BRANCH   7  32
ATOM     32  N   UNL     1       2.413   8.167  19.198  0.00  0.00    -0.293 N 
ATOM     33  C   UNL     1       1.573   9.192  18.832  0.00  0.00    +0.300 C 
ATOM     34  O   UNL     1       0.359   9.099  18.746  0.00  0.00    -0.253 OA
ATOM     35  N   UNL     1       2.293  10.321  18.524  0.00  0.00    -0.295 N 
ATOM     36  H   UNL     1       3.335   8.247  18.798  0.00  0.00    +0.151 HD
ATOM     37  H   UNL     1       3.072  10.473  19.146  0.00  0.00    +0.151 HD
BRANCH  35  38
ATOM     38  C   UNL     1       1.601  11.511  18.065  0.00  0.00    +0.039 C 
ATOM     39  H   UNL     1       2.270  12.032  17.372  0.00  0.00    +0.051 HD
ATOM     40  H   UNL     1       0.716  11.165  17.520  0.00  0.00    +0.051 HD
BRANCH  38  41
ATOM     41  C   UNL     1       1.153  12.436  19.181  0.00  0.00    -0.018 A 
ATOM     42  C   UNL     1       2.086  13.011  20.067  0.00  0.00    -0.054 A 
ATOM     43  C   UNL     1       1.684  13.921  21.048  0.00  0.00    -0.026 A 
ATOM     44  C   UNL     1       0.344  14.260  21.161  0.00  0.00    +0.124 A 
ATOM     45  F   UNL     1      -0.036  15.139  22.096  0.00  0.00    -0.205 F 
ATOM     46  C   UNL     1      -0.609  13.685  20.334  0.00  0.00    -0.014 A 
ATOM     47  C   UNL     1      -0.211  12.756  19.363  0.00  0.00    +0.044 A 
ATOM     48  H   UNL     1       3.146  12.778  19.985  0.00  0.00    +0.062 HD
ATOM     49  H   UNL     1       2.412  14.380  21.710  0.00  0.00    +0.065 HD
ATOM     50  H   UNL     1      -1.654  13.957  20.450  0.00  0.00    +0.065 HD
BRANCH  47  51
ATOM     51  C   UNL     1      -1.298  12.139  18.567  0.00  0.00    +0.242 C 
ATOM     52  N   UNL     1      -1.391  12.530  17.261  0.00  0.00    -0.325 N 
ATOM     53  O   UNL     1      -2.017  11.261  19.023  0.00  0.00    -0.270 OA
ATOM     54  H   UNL     1      -2.014  11.970  16.692  0.00  0.00    +0.145 HD
ATOM     55  H   UNL     1      -0.603  12.955  16.793  0.00  0.00    +0.145 HD
ENDBRANCH  47  51
ENDBRANCH  38  41
ENDBRANCH  35  38
ENDBRANCH   7  32
TORSDOF 6
ENDMDL
MODEL 14
REMARK VINA RESULT:    -7.189      5.778      8.270
REMARK INTER + INTRA:         -10.720
REMARK INTER:                 -10.360
REMARK INTRA:                  -0.360
REMARK UNBOUND:                -1.219
REMARK  Name = 
REMARK  6 active torsions:
REMARK  status: ('A' for Active; 'I' for Inactive)
REMARK    1  A    between atoms: C_1  and  C_2
REMARK    2  A    between atoms: C_8  and  C_9
REMARK    3  A    between atoms: C_15  and  N_16
REMARK    4  A    between atoms: N_19  and  C_20
REMARK    5  A    between atoms: C_20  and  C_21
REMARK    6  A    between atoms: C_27  and  C_28
REMARK                            x       y       z     vdW  Elec       q    Type
REMARK                         _______ _______ _______ _____ _____    ______ ____
ROOT
ATOM      1  C   UNL     1       3.632   5.983  18.617  0.00  0.00    -0.017 A 
ATOM      2  C   UNL     1       3.330   5.451  17.344  0.00  0.00    -0.054 A 
ATOM      3  C   UNL     1       4.321   4.888  16.534  0.00  0.00    -0.058 A 
ATOM      4  C   UNL     1       5.625   4.880  16.996  0.00  0.00    -0.042 A 
ATOM      5  C   UNL     1       5.948   5.407  18.249  0.00  0.00    -0.023 A 
ATOM      6  C   UNL     1       4.962   5.945  19.066  0.00  0.00    -0.049 A 
ATOM      7  C   UNL     1       7.419   5.245  18.537  0.00  0.00    +0.050 C 
ATOM      8  C   UNL     1       7.962   4.992  17.117  0.00  0.00    -0.026 C 
ATOM      9  C   UNL     1       6.836   4.304  16.332  0.00  0.00    -0.025 C 
ATOM     10  H   UNL     1       2.301   5.462  16.988  0.00  0.00    +0.062 HD
ATOM     11  H   UNL     1       4.065   4.466  15.566  0.00  0.00    +0.062 HD
ATOM     12  H   UNL     1       5.217   6.326  20.051  0.00  0.00    +0.063 HD
ATOM     13  H   UNL     1       7.576   4.369  19.176  0.00  0.00    +0.055 HD
ATOM     14  H   UNL     1       8.208   5.945  16.626  0.00  0.00    +0.029 HD
ATOM     15  H   UNL     1       8.883   4.398  17.127  0.00  0.00    +0.029 HD
ATOM     16  H   UNL     1       6.886   4.549  15.266  0.00  0.00    +0.031 HD
ATOM     17  H   UNL     1       6.862   3.218  16.469  0.00  0.00    +0.031 HD
ENDROOT
BRANCH   1  24
ATOM     18  C   UNL     1       1.865   5.847  20.430  0.00  0.00    -0.040 A 
ATOM     19  C   UNL     1       0.901   6.498  21.219  0.00  0.00    -0.023 A 
ATOM     20  C   UNL     1       0.632   7.848  21.029  0.00  0.00    +0.124 A 
ATOM     21  F   UNL     1      -0.293   8.450  21.785  0.00  0.00    -0.205 F 
ATOM     22  C   UNL     1       1.309   8.580  20.066  0.00  0.00    -0.026 A 
ATOM     23  C   UNL     1       2.278   7.951  19.285  0.00  0.00    -0.051 A 
ATOM     24  C   UNL     1       2.578   6.583  19.454  0.00  0.00    -0.015 A 
ATOM     25  H   UNL     1       0.352   5.961  21.987  0.00  0.00    +0.065 HD
ATOM     26  H   UNL     1       1.085   9.633  19.933  0.00  0.00    +0.065 HD
ATOM     27  H   UNL     1       2.815   8.536  18.540  0.00  0.00    +0.062 HD
BRANCH  18  28
ATOM     28  C   UNL     1       2.126   4.384  20.676  0.00  0.00    -0.039 C 
ATOM     29  H   UNL     1       3.119   4.243  21.115  0.00  0.00    +0.028 HD
ATOM     30  H   UNL     1       2.049   3.812  19.745  0.00  0.00    +0.028 HD
ATOM     31  H   UNL     1       1.388   3.961  21.366  0.00  0.00    +0.028 HD
ENDBRANCH  18  28
ENDBRANCH   1  24
BRANCH   7  32
ATOM     32  N   UNL     1       8.001   6.435  19.123  0.00  0.00    -0.293 N 
ATOM     33  C   UNL     1       7.984   7.613  18.415  0.00  0.00    +0.300 C 
ATOM     34  O   UNL     1       7.338   7.802  17.396  0.00  0.00    -0.253 OA
ATOM     35  N   UNL     1       8.835   8.531  18.982  0.00  0.00    -0.295 N 
ATOM     36  H   UNL     1       8.865   6.283  19.620  0.00  0.00    +0.151 HD
ATOM     37  H   UNL     1       8.811   8.520  19.990  0.00  0.00    +0.151 HD
BRANCH  35  38
ATOM     38  C   UNL     1       9.005   9.832  18.361  0.00  0.00    +0.039 C 
ATOM     39  H   UNL     1       9.869   9.765  17.693  0.00  0.00    +0.051 HD
ATOM     40  H   UNL     1       8.103  10.012  17.767  0.00  0.00    +0.051 HD
BRANCH  38  41
ATOM     41  C   UNL     1       9.172  10.972  19.349  0.00  0.00    -0.018 A 
ATOM     42  C   UNL     1       9.392  10.720  20.718  0.00  0.00    -0.054 A 
ATOM     43  C   UNL     1       9.621  11.766  21.615  0.00  0.00    -0.026 A 
ATOM     44  C   UNL     1       9.624  13.075  21.158  0.00  0.00    +0.124 A 
ATOM     45  F   UNL     1       9.853  14.074  22.019  0.00  0.00    -0.205 F 
ATOM     46  C   UNL     1       9.372  13.364  19.825  0.00  0.00    -0.014 A 
ATOM     47  C   UNL     1       9.121  12.319  18.926  0.00  0.00    +0.044 A 
ATOM     48  H   UNL     1       9.416   9.701  21.098  0.00  0.00    +0.062 HD
ATOM     49  H   UNL     1       9.816  11.563  22.664  0.00  0.00    +0.065 HD
ATOM     50  H   UNL     1       9.367  14.399  19.492  0.00  0.00    +0.065 HD
BRANCH  47  51
ATOM     51  C   UNL     1       8.794  12.718  17.537  0.00  0.00    +0.242 C 
ATOM     52  N   UNL     1       9.851  13.052  16.737  0.00  0.00    -0.325 N 
ATOM     53  O   UNL     1       7.654  12.665  17.098  0.00  0.00    -0.270 OA
ATOM     54  H   UNL     1       9.629  13.141  15.754  0.00  0.00    +0.145 HD
ATOM     55  H   UNL     1      10.787  12.750  16.967  0.00  0.00    +0.145 HD
ENDBRANCH  47  51
ENDBRANCH  38  41
ENDBRANCH  35  38
ENDBRANCH   7  32
TORSDOF 6
ENDMDL
MODEL 15
REMARK VINA RESULT:    -7.158      3.391     10.518
REMARK INTER + INTRA:         -10.678
REMARK INTER:                 -10.210
REMARK INTRA:                  -0.468
REMARK UNBOUND:                -1.219
REMARK  Name = 
REMARK  6 active torsions:
REMARK  status: ('A' for Active; 'I' for Inactive)
REMARK    1  A    between atoms: C_1  and  C_2
REMARK    2  A    between atoms: C_8  and  C_9
REMARK    3  A    between atoms: C_15  and  N_16
REMARK    4  A    between atoms: N_19  and  C_20
REMARK    5  A    between atoms: C_20  and  C_21
REMARK    6  A    between atoms: C_27  and  C_28
REMARK                            x       y       z     vdW  Elec       q    Type
REMARK                         _______ _______ _______ _____ _____    ______ ____
ROOT
ATOM      1  C   UNL     1      -1.208  12.597  20.641  0.00  0.00    -0.017 A 
ATOM      2  C   UNL     1      -0.668  13.789  20.109  0.00  0.00    -0.054 A 
ATOM      3  C   UNL     1       0.350  13.765  19.150  0.00  0.00    -0.058 A 
ATOM      4  C   UNL     1       0.845  12.538  18.743  0.00  0.00    -0.042 A 
ATOM      5  C   UNL     1       0.329  11.347  19.261  0.00  0.00    -0.023 A 
ATOM      6  C   UNL     1      -0.699  11.367  20.195  0.00  0.00    -0.049 A 
ATOM      7  C   UNL     1       1.003  10.154  18.634  0.00  0.00    +0.050 C 
ATOM      8  C   UNL     1       2.269  10.812  18.051  0.00  0.00    -0.026 C 
ATOM      9  C   UNL     1       1.894  12.261  17.713  0.00  0.00    -0.025 C 
ATOM     10  H   UNL     1      -1.062  14.750  20.435  0.00  0.00    +0.062 HD
ATOM     11  H   UNL     1       0.739  14.692  18.738  0.00  0.00    +0.062 HD
ATOM     12  H   UNL     1      -1.112  10.436  20.572  0.00  0.00    +0.063 HD
ATOM     13  H   UNL     1       0.371   9.751  17.834  0.00  0.00    +0.055 HD
ATOM     14  H   UNL     1       3.076  10.818  18.800  0.00  0.00    +0.029 HD
ATOM     15  H   UNL     1       2.654  10.269  17.181  0.00  0.00    +0.029 HD
ATOM     16  H   UNL     1       2.757  12.929  17.805  0.00  0.00    +0.031 HD
ATOM     17  H   UNL     1       1.467  12.337  16.708  0.00  0.00    +0.031 HD
ENDROOT
BRANCH   1  24
ATOM     18  C   UNL     1      -3.648  12.680  21.324  0.00  0.00    -0.040 A 
ATOM     19  C   UNL     1      -4.609  12.677  22.350  0.00  0.00    -0.023 A 
ATOM     20  C   UNL     1      -4.215  12.660  23.682  0.00  0.00    +0.124 A 
ATOM     21  F   UNL     1      -5.143  12.664  24.646  0.00  0.00    -0.205 F 
ATOM     22  C   UNL     1      -2.872  12.638  24.027  0.00  0.00    -0.026 A 
ATOM     23  C   UNL     1      -1.908  12.626  23.021  0.00  0.00    -0.051 A 
ATOM     24  C   UNL     1      -2.273  12.640  21.658  0.00  0.00    -0.015 A 
ATOM     25  H   UNL     1      -5.671  12.690  22.121  0.00  0.00    +0.065 HD
ATOM     26  H   UNL     1      -2.585  12.624  25.073  0.00  0.00    +0.065 HD
ATOM     27  H   UNL     1      -0.855  12.595  23.299  0.00  0.00    +0.062 HD
BRANCH  18  28
ATOM     28  C   UNL     1      -4.122  12.694  19.895  0.00  0.00    -0.039 C 
ATOM     29  H   UNL     1      -3.416  13.243  19.264  0.00  0.00    +0.028 HD
ATOM     30  H   UNL     1      -5.116  13.147  19.817  0.00  0.00    +0.028 HD
ATOM     31  H   UNL     1      -4.210  11.676  19.497  0.00  0.00    +0.028 HD
ENDBRANCH  18  28
ENDBRANCH   1  24
BRANCH   7  32
ATOM     32  N   UNL     1       1.336   9.132  19.606  0.00  0.00    -0.293 N 
ATOM     33  C   UNL     1       2.265   8.172  19.283  0.00  0.00    +0.300 C 
ATOM     34  O   UNL     1       2.995   8.212  18.305  0.00  0.00    -0.253 OA
ATOM     35  N   UNL     1       2.222   7.135  20.183  0.00  0.00    -0.295 N 
ATOM     36  H   UNL     1       0.550   8.767  20.122  0.00  0.00    +0.151 HD
ATOM     37  H   UNL     1       2.091   7.444  21.134  0.00  0.00    +0.151 HD
BRANCH  35  38
ATOM     38  C   UNL     1       3.093   5.988  19.999  0.00  0.00    +0.039 C 
ATOM     39  H   UNL     1       3.845   6.265  19.253  0.00  0.00    +0.051 HD
ATOM     40  H   UNL     1       3.586   5.815  20.962  0.00  0.00    +0.051 HD
BRANCH  38  41
ATOM     41  C   UNL     1       2.368   4.720  19.590  0.00  0.00    -0.018 A 
ATOM     42  C   UNL     1       1.249   4.257  20.312  0.00  0.00    -0.054 A 
ATOM     43  C   UNL     1       0.535   3.132  19.893  0.00  0.00    -0.026 A 
ATOM     44  C   UNL     1       0.935   2.450  18.754  0.00  0.00    +0.124 A 
ATOM     45  F   UNL     1       0.244   1.378  18.351  0.00  0.00    -0.205 F 
ATOM     46  C   UNL     1       2.055   2.851  18.040  0.00  0.00    -0.014 A 
ATOM     47  C   UNL     1       2.786   3.967  18.470  0.00  0.00    +0.044 A 
ATOM     48  H   UNL     1       0.901   4.788  21.197  0.00  0.00    +0.062 HD
ATOM     49  H   UNL     1      -0.342   2.798  20.439  0.00  0.00    +0.065 HD
ATOM     50  H   UNL     1       2.357   2.293  17.158  0.00  0.00    +0.065 HD
BRANCH  47  51
ATOM     51  C   UNL     1       4.005   4.287  17.692  0.00  0.00    +0.242 C 
ATOM     52  N   UNL     1       5.061   3.432  17.840  0.00  0.00    -0.325 N 
ATOM     53  O   UNL     1       4.039   5.209  16.890  0.00  0.00    -0.270 OA
ATOM     54  H   UNL     1       5.810   3.560  17.170  0.00  0.00    +0.145 HD
ATOM     55  H   UNL     1       4.922   2.497  18.195  0.00  0.00    +0.145 HD
ENDBRANCH  47  51
ENDBRANCH  38  41
ENDBRANCH  35  38
ENDBRANCH   7  32
TORSDOF 6
ENDMDL
MODEL 16
REMARK VINA RESULT:    -7.078      3.693     10.592
REMARK INTER + INTRA:         -10.573
REMARK INTER:                 -10.356
REMARK INTRA:                  -0.217
REMARK UNBOUND:                -1.219
REMARK  Name = 
REMARK  6 active torsions:
REMARK  status: ('A' for Active; 'I' for Inactive)
REMARK    1  A    between atoms: C_1  and  C_2
REMARK    2  A    between atoms: C_8  and  C_9
REMARK    3  A    between atoms: C_15  and  N_16
REMARK    4  A    between atoms: N_19  and  C_20
REMARK    5  A    between atoms: C_20  and  C_21
REMARK    6  A    between atoms: C_27  and  C_28
REMARK                            x       y       z     vdW  Elec       q    Type
REMARK                         _______ _______ _______ _____ _____    ______ ____
ROOT
ATOM      1  C   UNL     1      -0.892  13.013  20.881  0.00  0.00    -0.017 A 
ATOM      2  C   UNL     1      -0.254  14.256  20.678  0.00  0.00    -0.054 A 
ATOM      3  C   UNL     1       0.803  14.397  19.772  0.00  0.00    -0.058 A 
ATOM      4  C   UNL     1       1.235  13.276  19.084  0.00  0.00    -0.042 A 
ATOM      5  C   UNL     1       0.622  12.035  19.274  0.00  0.00    -0.023 A 
ATOM      6  C   UNL     1      -0.443  11.898  20.155  0.00  0.00    -0.049 A 
ATOM      7  C   UNL     1       1.245  10.988  18.386  0.00  0.00    +0.050 C 
ATOM      8  C   UNL     1       2.575  11.676  18.021  0.00  0.00    -0.026 C 
ATOM      9  C   UNL     1       2.309  13.187  18.046  0.00  0.00    -0.025 C 
ATOM     10  H   UNL     1      -0.599  15.133  21.224  0.00  0.00    +0.062 HD
ATOM     11  H   UNL     1       1.267  15.366  19.615  0.00  0.00    +0.062 HD
ATOM     12  H   UNL     1      -0.931  10.935  20.276  0.00  0.00    +0.063 HD
ATOM     13  H   UNL     1       0.625  10.843  17.495  0.00  0.00    +0.055 HD
ATOM     14  H   UNL     1       3.347  11.438  18.768  0.00  0.00    +0.029 HD
ATOM     15  H   UNL     1       2.963  11.339  17.053  0.00  0.00    +0.029 HD
ATOM     16  H   UNL     1       3.208  13.746  18.325  0.00  0.00    +0.031 HD
ATOM     17  H   UNL     1       1.932  13.540  17.081  0.00  0.00    +0.031 HD
ENDROOT
BRANCH   1  24
ATOM     18  C   UNL     1      -2.007  11.893  22.863  0.00  0.00    -0.040 A 
ATOM     19  C   UNL     1      -3.076  11.854  23.775  0.00  0.00    -0.023 A 
ATOM     20  C   UNL     1      -4.125  12.758  23.668  0.00  0.00    +0.124 A 
ATOM     21  F   UNL     1      -5.138  12.702  24.542  0.00  0.00    -0.205 F 
ATOM     22  C   UNL     1      -4.138  13.719  22.670  0.00  0.00    -0.026 A 
ATOM     23  C   UNL     1      -3.078  13.781  21.766  0.00  0.00    -0.051 A 
ATOM     24  C   UNL     1      -1.995  12.880  21.847  0.00  0.00    -0.015 A 
ATOM     25  H   UNL     1      -3.101  11.119  24.575  0.00  0.00    +0.065 HD
ATOM     26  H   UNL     1      -4.966  14.417  22.604  0.00  0.00    +0.065 HD
ATOM     27  H   UNL     1      -3.088  14.547  20.992  0.00  0.00    +0.062 HD
BRANCH  18  28
ATOM     28  C   UNL     1      -0.890  10.896  23.021  0.00  0.00    -0.039 C 
ATOM     29  H   UNL     1       0.072  11.412  23.106  0.00  0.00    +0.028 HD
ATOM     30  H   UNL     1      -0.863  10.202  22.174  0.00  0.00    +0.028 HD
ATOM     31  H   UNL     1      -1.027  10.287  23.921  0.00  0.00    +0.028 HD
ENDBRANCH  18  28
ENDBRANCH   1  24
BRANCH   7  32
ATOM     32  N   UNL     1       1.469   9.736  19.080  0.00  0.00    -0.293 N 
ATOM     33  C   UNL     1       2.126   8.716  18.434  0.00  0.00    +0.300 C 
ATOM     34  O   UNL     1       2.723   8.834  17.376  0.00  0.00    -0.253 OA
ATOM     35  N   UNL     1       1.973   7.533  19.117  0.00  0.00    -0.295 N 
ATOM     36  H   UNL     1       0.693   9.417  19.639  0.00  0.00    +0.151 HD
ATOM     37  H   UNL     1       2.028   7.646  20.118  0.00  0.00    +0.151 HD
BRANCH  35  38
ATOM     38  C   UNL     1       2.551   6.315  18.581  0.00  0.00    +0.039 C 
ATOM     39  H   UNL     1       2.042   6.100  17.636  0.00  0.00    +0.051 HD
ATOM     40  H   UNL     1       3.605   6.533  18.381  0.00  0.00    +0.051 HD
BRANCH  38  41
ATOM     41  C   UNL     1       2.471   5.126  19.520  0.00  0.00    -0.018 A 
ATOM     42  C   UNL     1       1.338   4.917  20.333  0.00  0.00    -0.054 A 
ATOM     43  C   UNL     1       1.230   3.783  21.141  0.00  0.00    -0.026 A 
ATOM     44  C   UNL     1       2.256   2.850  21.156  0.00  0.00    +0.124 A 
ATOM     45  F   UNL     1       2.145   1.760  21.925  0.00  0.00    -0.205 F 
ATOM     46  C   UNL     1       3.403   3.040  20.400  0.00  0.00    -0.014 A 
ATOM     47  C   UNL     1       3.523   4.187  19.604  0.00  0.00    +0.044 A 
ATOM     48  H   UNL     1       0.510   5.623  20.323  0.00  0.00    +0.062 HD
ATOM     49  H   UNL     1       0.343   3.615  21.744  0.00  0.00    +0.065 HD
ATOM     50  H   UNL     1       4.199   2.302  20.438  0.00  0.00    +0.065 HD
BRANCH  47  51
ATOM     51  C   UNL     1       4.808   4.348  18.882  0.00  0.00    +0.242 C 
ATOM     52  N   UNL     1       4.942   3.643  17.719  0.00  0.00    -0.325 N 
ATOM     53  O   UNL     1       5.666   5.136  19.254  0.00  0.00    -0.270 OA
ATOM     54  H   UNL     1       5.740   3.904  17.153  0.00  0.00    +0.145 HD
ATOM     55  H   UNL     1       4.129   3.297  17.229  0.00  0.00    +0.145 HD
ENDBRANCH  47  51
ENDBRANCH  38  41
ENDBRANCH  35  38
ENDBRANCH   7  32
TORSDOF 6
ENDMDL
MODEL 17
REMARK VINA RESULT:    -7.006      3.850      9.024
REMARK INTER + INTRA:         -10.478
REMARK INTER:                  -9.302
REMARK INTRA:                  -1.176
REMARK UNBOUND:                -1.219
REMARK  Name = 
REMARK  6 active torsions:
REMARK  status: ('A' for Active; 'I' for Inactive)
REMARK    1  A    between atoms: C_1  and  C_2
REMARK    2  A    between atoms: C_8  and  C_9
REMARK    3  A    between atoms: C_15  and  N_16
REMARK    4  A    between atoms: N_19  and  C_20
REMARK    5  A    between atoms: C_20  and  C_21
REMARK    6  A    between atoms: C_27  and  C_28
REMARK                            x       y       z     vdW  Elec       q    Type
REMARK                         _______ _______ _______ _____ _____    ______ ____
ROOT
ATOM      1  C   UNL     1       1.018  13.945  20.716  0.00  0.00    -0.017 A 
ATOM      2  C   UNL     1       0.020  14.907  20.983  0.00  0.00    -0.054 A 
ATOM      3  C   UNL     1      -1.097  14.602  21.768  0.00  0.00    -0.058 A 
ATOM      4  C   UNL     1      -1.223  13.317  22.265  0.00  0.00    -0.042 A 
ATOM      5  C   UNL     1      -0.250  12.348  22.008  0.00  0.00    -0.023 A 
ATOM      6  C   UNL     1       0.872  12.654  21.249  0.00  0.00    -0.049 A 
ATOM      7  C   UNL     1      -0.595  11.048  22.688  0.00  0.00    +0.050 C 
ATOM      8  C   UNL     1      -2.096  11.261  22.970  0.00  0.00    -0.026 C 
ATOM      9  C   UNL     1      -2.298  12.771  23.151  0.00  0.00    -0.025 C 
ATOM     10  H   UNL     1       0.126  15.916  20.586  0.00  0.00    +0.062 HD
ATOM     11  H   UNL     1      -1.844  15.362  21.978  0.00  0.00    +0.062 HD
ATOM     12  H   UNL     1       1.637  11.902  21.078  0.00  0.00    +0.063 HD
ATOM     13  H   UNL     1      -0.033  10.961  23.625  0.00  0.00    +0.055 HD
ATOM     14  H   UNL     1      -2.698  10.921  22.114  0.00  0.00    +0.029 HD
ATOM     15  H   UNL     1      -2.438  10.690  23.840  0.00  0.00    +0.029 HD
ATOM     16  H   UNL     1      -3.299  13.081  22.833  0.00  0.00    +0.031 HD
ATOM     17  H   UNL     1      -2.124  13.074  24.188  0.00  0.00    +0.031 HD
ENDROOT
BRANCH   1  24
ATOM     18  C   UNL     1       3.422  14.695  20.423  0.00  0.00    -0.040 A 
ATOM     19  C   UNL     1       4.502  14.957  19.561  0.00  0.00    -0.023 A 
ATOM     20  C   UNL     1       4.351  14.833  18.186  0.00  0.00    +0.124 A 
ATOM     21  F   UNL     1       5.389  15.092  17.382  0.00  0.00    -0.205 F 
ATOM     22  C   UNL     1       3.140  14.443  17.635  0.00  0.00    -0.026 A 
ATOM     23  C   UNL     1       2.064  14.165  18.477  0.00  0.00    -0.051 A 
ATOM     24  C   UNL     1       2.183  14.279  19.878  0.00  0.00    -0.015 A 
ATOM     25  H   UNL     1       5.469  15.261  19.954  0.00  0.00    +0.065 HD
ATOM     26  H   UNL     1       3.043  14.350  16.559  0.00  0.00    +0.065 HD
ATOM     27  H   UNL     1       1.120  13.846  18.038  0.00  0.00    +0.062 HD
BRANCH  18  28
ATOM     28  C   UNL     1       3.634  14.839  21.907  0.00  0.00    -0.039 C 
ATOM     29  H   UNL     1       4.347  14.089  22.264  0.00  0.00    +0.028 HD
ATOM     30  H   UNL     1       2.688  14.736  22.448  0.00  0.00    +0.028 HD
ATOM     31  H   UNL     1       4.032  15.829  22.155  0.00  0.00    +0.028 HD
ENDBRANCH  18  28
ENDBRANCH   1  24
BRANCH   7  32
ATOM     32  N   UNL     1      -0.374   9.899  21.833  0.00  0.00    -0.293 N 
ATOM     33  C   UNL     1       0.775   9.160  21.983  0.00  0.00    +0.300 C 
ATOM     34  O   UNL     1       1.554   9.267  22.918  0.00  0.00    -0.253 OA
ATOM     35  N   UNL     1       0.955   8.323  20.908  0.00  0.00    -0.295 N 
ATOM     36  H   UNL     1      -0.639  10.032  20.870  0.00  0.00    +0.151 HD
ATOM     37  H   UNL     1       0.095   7.904  20.588  0.00  0.00    +0.151 HD
BRANCH  35  38
ATOM     38  C   UNL     1       2.137   7.483  20.842  0.00  0.00    +0.039 C 
ATOM     39  H   UNL     1       2.937   8.080  20.392  0.00  0.00    +0.051 HD
ATOM     40  H   UNL     1       2.405   7.242  21.876  0.00  0.00    +0.051 HD
BRANCH  38  41
ATOM     41  C   UNL     1       1.935   6.188  20.079  0.00  0.00    -0.018 A 
ATOM     42  C   UNL     1       1.387   5.051  20.708  0.00  0.00    -0.054 A 
ATOM     43  C   UNL     1       1.130   3.883  19.987  0.00  0.00    -0.026 A 
ATOM     44  C   UNL     1       1.426   3.831  18.634  0.00  0.00    +0.124 A 
ATOM     45  F   UNL     1       1.170   2.712  17.946  0.00  0.00    -0.205 F 
ATOM     46  C   UNL     1       2.002   4.915  17.989  0.00  0.00    -0.014 A 
ATOM     47  C   UNL     1       2.281   6.082  18.713  0.00  0.00    +0.044 A 
ATOM     48  H   UNL     1       1.126   5.074  21.764  0.00  0.00    +0.062 HD
ATOM     49  H   UNL     1       0.683   3.020  20.473  0.00  0.00    +0.065 HD
ATOM     50  H   UNL     1       2.237   4.846  16.930  0.00  0.00    +0.065 HD
BRANCH  47  51
ATOM     51  C   UNL     1       2.958   7.167  17.965  0.00  0.00    +0.242 C 
ATOM     52  N   UNL     1       4.141   6.841  17.361  0.00  0.00    -0.325 N 
ATOM     53  O   UNL     1       2.448   8.268  17.816  0.00  0.00    -0.270 OA
ATOM     54  H   UNL     1       4.491   7.533  16.710  0.00  0.00    +0.145 HD
ATOM     55  H   UNL     1       4.373   5.877  17.170  0.00  0.00    +0.145 HD
ENDBRANCH  47  51
ENDBRANCH  38  41
ENDBRANCH  35  38
ENDBRANCH   7  32
TORSDOF 6
ENDMDL
MODEL 18
REMARK VINA RESULT:    -6.940      3.238      9.177
REMARK INTER + INTRA:         -10.389
REMARK INTER:                 -10.281
REMARK INTRA:                  -0.109
REMARK UNBOUND:                -1.219
REMARK  Name = 
REMARK  6 active torsions:
REMARK  status: ('A' for Active; 'I' for Inactive)
REMARK    1  A    between atoms: C_1  and  C_2
REMARK    2  A    between atoms: C_8  and  C_9
REMARK    3  A    between atoms: C_15  and  N_16
REMARK    4  A    between atoms: N_19  and  C_20
REMARK    5  A    between atoms: C_20  and  C_21
REMARK    6  A    between atoms: C_27  and  C_28
REMARK                            x       y       z     vdW  Elec       q    Type
REMARK                         _______ _______ _______ _____ _____    ______ ____
ROOT
ATOM      1  C   UNL     1      -2.703  11.317  18.682  0.00  0.00    -0.017 A 
ATOM      2  C   UNL     1      -3.491  12.301  19.318  0.00  0.00    -0.054 A 
ATOM      3  C   UNL     1      -3.245  12.694  20.638  0.00  0.00    -0.058 A 
ATOM      4  C   UNL     1      -2.218  12.076  21.330  0.00  0.00    -0.042 A 
ATOM      5  C   UNL     1      -1.430  11.094  20.722  0.00  0.00    -0.023 A 
ATOM      6  C   UNL     1      -1.657  10.720  19.404  0.00  0.00    -0.049 A 
ATOM      7  C   UNL     1      -0.360  10.606  21.664  0.00  0.00    +0.050 C 
ATOM      8  C   UNL     1      -0.926  11.087  23.015  0.00  0.00    -0.026 C 
ATOM      9  C   UNL     1      -1.745  12.351  22.722  0.00  0.00    -0.025 C 
ATOM     10  H   UNL     1      -4.298  12.782  18.768  0.00  0.00    +0.062 HD
ATOM     11  H   UNL     1      -3.849  13.467  21.103  0.00  0.00    +0.062 HD
ATOM     12  H   UNL     1      -1.021   9.977  18.930  0.00  0.00    +0.063 HD
ATOM     13  H   UNL     1       0.588  11.108  21.439  0.00  0.00    +0.055 HD
ATOM     14  H   UNL     1      -1.591  10.323  23.445  0.00  0.00    +0.029 HD
ATOM     15  H   UNL     1      -0.137  11.266  23.753  0.00  0.00    +0.029 HD
ATOM     16  H   UNL     1      -2.573  12.463  23.430  0.00  0.00    +0.031 HD
ATOM     17  H   UNL     1      -1.115  13.246  22.738  0.00  0.00    +0.031 HD
ENDROOT
BRANCH   1  24
ATOM     18  C   UNL     1      -4.124  11.347  16.583  0.00  0.00    -0.040 A 
ATOM     19  C   UNL     1      -4.302  10.947  15.247  0.00  0.00    -0.023 A 
ATOM     20  C   UNL     1      -3.380  10.106  14.636  0.00  0.00    +0.124 A 
ATOM     21  F   UNL     1      -3.569   9.730  13.366  0.00  0.00    -0.205 F 
ATOM     22  C   UNL     1      -2.266   9.652  15.324  0.00  0.00    -0.026 A 
ATOM     23  C   UNL     1      -2.067  10.052  16.645  0.00  0.00    -0.051 A 
ATOM     24  C   UNL     1      -2.982  10.907  17.295  0.00  0.00    -0.015 A 
ATOM     25  H   UNL     1      -5.160  11.284  14.672  0.00  0.00    +0.065 HD
ATOM     26  H   UNL     1      -1.556   8.997  14.829  0.00  0.00    +0.065 HD
ATOM     27  H   UNL     1      -1.183   9.702  17.175  0.00  0.00    +0.062 HD
BRANCH  18  28
ATOM     28  C   UNL     1      -5.147  12.263  17.202  0.00  0.00    -0.039 C 
ATOM     29  H   UNL     1      -5.161  13.226  16.682  0.00  0.00    +0.028 HD
ATOM     30  H   UNL     1      -4.938  12.421  18.265  0.00  0.00    +0.028 HD
ATOM     31  H   UNL     1      -6.152  11.831  17.141  0.00  0.00    +0.028 HD
ENDBRANCH  18  28
ENDBRANCH   1  24
BRANCH   7  32
ATOM     32  N   UNL     1      -0.211   9.165  21.634  0.00  0.00    -0.293 N 
ATOM     33  C   UNL     1       1.032   8.621  21.422  0.00  0.00    +0.300 C 
ATOM     34  O   UNL     1       2.080   9.248  21.450  0.00  0.00    -0.253 OA
ATOM     35  N   UNL     1       0.930   7.283  21.122  0.00  0.00    -0.295 N 
ATOM     36  H   UNL     1      -0.948   8.674  21.152  0.00  0.00    +0.151 HD
ATOM     37  H   UNL     1       0.233   6.808  21.674  0.00  0.00    +0.151 HD
BRANCH  35  38
ATOM     38  C   UNL     1       2.128   6.523  20.814  0.00  0.00    +0.039 C 
ATOM     39  H   UNL     1       2.780   7.168  20.215  0.00  0.00    +0.051 HD
ATOM     40  H   UNL     1       2.614   6.309  21.772  0.00  0.00    +0.051 HD
BRANCH  38  41
ATOM     41  C   UNL     1       1.862   5.211  20.101  0.00  0.00    -0.018 A 
ATOM     42  C   UNL     1       1.246   4.133  20.768  0.00  0.00    -0.054 A 
ATOM     43  C   UNL     1       0.933   2.951  20.092  0.00  0.00    -0.026 A 
ATOM     44  C   UNL     1       1.239   2.829  18.745  0.00  0.00    +0.124 A 
ATOM     45  F   UNL     1       0.929   1.698  18.099  0.00  0.00    -0.205 F 
ATOM     46  C   UNL     1       1.880   3.852  18.064  0.00  0.00    -0.014 A 
ATOM     47  C   UNL     1       2.216   5.031  18.745  0.00  0.00    +0.044 A 
ATOM     48  H   UNL     1       0.976   4.212  21.819  0.00  0.00    +0.062 HD
ATOM     49  H   UNL     1       0.434   2.135  20.606  0.00  0.00    +0.065 HD
ATOM     50  H   UNL     1       2.122   3.728  17.012  0.00  0.00    +0.065 HD
BRANCH  47  51
ATOM     51  C   UNL     1       2.959   6.046  17.962  0.00  0.00    +0.242 C 
ATOM     52  N   UNL     1       4.143   5.640  17.411  0.00  0.00    -0.325 N 
ATOM     53  O   UNL     1       2.501   7.158  17.742  0.00  0.00    -0.270 OA
ATOM     54  H   UNL     1       4.540   6.282  16.737  0.00  0.00    +0.145 HD
ATOM     55  H   UNL     1       4.339   4.658  17.278  0.00  0.00    +0.145 HD
ENDBRANCH  47  51
ENDBRANCH  38  41
ENDBRANCH  35  38
ENDBRANCH   7  32
TORSDOF 6
ENDMDL
MODEL 19
REMARK VINA RESULT:    -6.907      3.038      9.161
REMARK INTER + INTRA:         -10.347
REMARK INTER:                 -10.188
REMARK INTRA:                  -0.159
REMARK UNBOUND:                -1.219
REMARK  Name = 
REMARK  6 active torsions:
REMARK  status: ('A' for Active; 'I' for Inactive)
REMARK    1  A    between atoms: C_1  and  C_2
REMARK    2  A    between atoms: C_8  and  C_9
REMARK    3  A    between atoms: C_15  and  N_16
REMARK    4  A    between atoms: N_19  and  C_20
REMARK    5  A    between atoms: C_20  and  C_21
REMARK    6  A    between atoms: C_27  and  C_28
REMARK                            x       y       z     vdW  Elec       q    Type
REMARK                         _______ _______ _______ _____ _____    ______ ____
ROOT
ATOM      1  C   UNL     1      -2.810  11.519  18.794  0.00  0.00    -0.017 A 
ATOM      2  C   UNL     1      -3.772  12.319  19.449  0.00  0.00    -0.054 A 
ATOM      3  C   UNL     1      -3.595  12.737  20.773  0.00  0.00    -0.058 A 
ATOM      4  C   UNL     1      -2.458  12.328  21.447  0.00  0.00    -0.042 A 
ATOM      5  C   UNL     1      -1.497  11.530  20.820  0.00  0.00    -0.023 A 
ATOM      6  C   UNL     1      -1.658  11.135  19.499  0.00  0.00    -0.049 A 
ATOM      7  C   UNL     1      -0.341  11.254  21.747  0.00  0.00    +0.050 C 
ATOM      8  C   UNL     1      -0.977  11.597  23.109  0.00  0.00    -0.026 C 
ATOM      9  C   UNL     1      -2.035  12.676  22.840  0.00  0.00    -0.025 C 
ATOM     10  H   UNL     1      -4.664  12.636  18.912  0.00  0.00    +0.062 HD
ATOM     11  H   UNL     1      -4.336  13.369  21.253  0.00  0.00    +0.062 HD
ATOM     12  H   UNL     1      -0.893  10.538  19.010  0.00  0.00    +0.063 HD
ATOM     13  H   UNL     1       0.485  11.938  21.521  0.00  0.00    +0.055 HD
ATOM     14  H   UNL     1      -1.472  10.710  23.533  0.00  0.00    +0.029 HD
ATOM     15  H   UNL     1      -0.232  11.921  23.843  0.00  0.00    +0.029 HD
ATOM     16  H   UNL     1      -2.861  12.612  23.556  0.00  0.00    +0.031 HD
ATOM     17  H   UNL     1      -1.596  13.678  22.863  0.00  0.00    +0.031 HD
ENDROOT
BRANCH   1  24
ATOM     18  C   UNL     1      -2.136  10.186  16.745  0.00  0.00    -0.040 A 
ATOM     19  C   UNL     1      -2.422   9.778  15.430  0.00  0.00    -0.023 A 
ATOM     20  C   UNL     1      -3.545  10.263  14.772  0.00  0.00    +0.124 A 
ATOM     21  F   UNL     1      -3.797   9.868  13.518  0.00  0.00    -0.205 F 
ATOM     22  C   UNL     1      -4.408  11.150  15.395  0.00  0.00    -0.026 A 
ATOM     23  C   UNL     1      -4.147  11.553  16.704  0.00  0.00    -0.051 A 
ATOM     24  C   UNL     1      -3.017  11.078  17.403  0.00  0.00    -0.015 A 
ATOM     25  H   UNL     1      -1.771   9.081  14.909  0.00  0.00    +0.065 HD
ATOM     26  H   UNL     1      -5.280  11.516  14.865  0.00  0.00    +0.065 HD
ATOM     27  H   UNL     1      -4.837  12.239  17.192  0.00  0.00    +0.062 HD
BRANCH  18  28
ATOM     28  C   UNL     1      -0.910   9.631  17.421  0.00  0.00    -0.039 C 
ATOM     29  H   UNL     1      -1.150   8.696  17.937  0.00  0.00    +0.028 HD
ATOM     30  H   UNL     1      -0.498  10.351  18.135  0.00  0.00    +0.028 HD
ATOM     31  H   UNL     1      -0.118   9.422  16.693  0.00  0.00    +0.028 HD
ENDBRANCH  18  28
ENDBRANCH   1  24
BRANCH   7  32
ATOM     32  N   UNL     1       0.091   9.872  21.696  0.00  0.00    -0.293 N 
ATOM     33  C   UNL     1       1.073   9.506  20.807  0.00  0.00    +0.300 C 
ATOM     34  O   UNL     1       1.768  10.288  20.178  0.00  0.00    -0.253 OA
ATOM     35  N   UNL     1       1.129   8.139  20.685  0.00  0.00    -0.295 N 
ATOM     36  H   UNL     1      -0.651   9.194  21.770  0.00  0.00    +0.151 HD
ATOM     37  H   UNL     1       1.007   7.659  21.564  0.00  0.00    +0.151 HD
BRANCH  35  38
ATOM     38  C   UNL     1       2.071   7.539  19.757  0.00  0.00    +0.039 C 
ATOM     39  H   UNL     1       1.820   7.904  18.755  0.00  0.00    +0.051 HD
ATOM     40  H   UNL     1       3.062   7.909  20.038  0.00  0.00    +0.051 HD
BRANCH  38  41
ATOM     41  C   UNL     1       2.091   6.022  19.789  0.00  0.00    -0.018 A 
ATOM     42  C   UNL     1       1.151   5.299  20.551  0.00  0.00    -0.054 A 
ATOM     43  C   UNL     1       1.121   3.903  20.522  0.00  0.00    -0.026 A 
ATOM     44  C   UNL     1       2.034   3.212  19.740  0.00  0.00    +0.124 A 
ATOM     45  F   UNL     1       1.996   1.875  19.708  0.00  0.00    -0.205 F 
ATOM     46  C   UNL     1       2.999   3.888  19.007  0.00  0.00    -0.014 A 
ATOM     47  C   UNL     1       3.045   5.287  19.051  0.00  0.00    +0.044 A 
ATOM     48  H   UNL     1       0.410   5.818  21.156  0.00  0.00    +0.062 HD
ATOM     49  H   UNL     1       0.377   3.353  21.091  0.00  0.00    +0.065 HD
ATOM     50  H   UNL     1       3.712   3.324  18.412  0.00  0.00    +0.065 HD
BRANCH  47  51
ATOM     51  C   UNL     1       4.148   5.927  18.294  0.00  0.00    +0.242 C 
ATOM     52  N   UNL     1       5.409   5.740  18.787  0.00  0.00    -0.325 N 
ATOM     53  O   UNL     1       3.955   6.512  17.238  0.00  0.00    -0.270 OA
ATOM     54  H   UNL     1       6.155   6.024  18.164  0.00  0.00    +0.145 HD
ATOM     55  H   UNL     1       5.609   4.978  19.419  0.00  0.00    +0.145 HD
ENDBRANCH  47  51
ENDBRANCH  38  41
ENDBRANCH  35  38
ENDBRANCH   7  32
TORSDOF 6
ENDMDL
MODEL 20
REMARK VINA RESULT:    -6.850      3.295      3.802
REMARK INTER + INTRA:         -10.271
REMARK INTER:                  -9.249
REMARK INTRA:                  -1.022
REMARK UNBOUND:                -1.219
REMARK  Name = 
REMARK  6 active torsions:
REMARK  status: ('A' for Active; 'I' for Inactive)
REMARK    1  A    between atoms: C_1  and  C_2
REMARK    2  A    between atoms: C_8  and  C_9
REMARK    3  A    between atoms: C_15  and  N_16
REMARK    4  A    between atoms: N_19  and  C_20
REMARK    5  A    between atoms: C_20  and  C_21
REMARK    6  A    between atoms: C_27  and  C_28
REMARK                            x       y       z     vdW  Elec       q    Type
REMARK                         _______ _______ _______ _____ _____    ______ ____
ROOT
ATOM      1  C   UNL     1       4.575   5.069  17.256  0.00  0.00    -0.017 A 
ATOM      2  C   UNL     1       4.649   4.108  18.288  0.00  0.00    -0.054 A 
ATOM      3  C   UNL     1       3.855   4.206  19.436  0.00  0.00    -0.058 A 
ATOM      4  C   UNL     1       3.002   5.289  19.557  0.00  0.00    -0.042 A 
ATOM      5  C   UNL     1       2.918   6.255  18.551  0.00  0.00    -0.023 A 
ATOM      6  C   UNL     1       3.687   6.147  17.400  0.00  0.00    -0.049 A 
ATOM      7  C   UNL     1       1.895   7.305  18.900  0.00  0.00    +0.050 C 
ATOM      8  C   UNL     1       1.751   7.073  20.417  0.00  0.00    -0.026 C 
ATOM      9  C   UNL     1       2.038   5.586  20.663  0.00  0.00    -0.025 C 
ATOM     10  H   UNL     1       5.324   3.260  18.185  0.00  0.00    +0.062 HD
ATOM     11  H   UNL     1       3.912   3.446  20.210  0.00  0.00    +0.062 HD
ATOM     12  H   UNL     1       3.594   6.887  16.610  0.00  0.00    +0.063 HD
ATOM     13  H   UNL     1       0.953   7.089  18.383  0.00  0.00    +0.055 HD
ATOM     14  H   UNL     1       2.491   7.674  20.968  0.00  0.00    +0.029 HD
ATOM     15  H   UNL     1       0.765   7.372  20.790  0.00  0.00    +0.029 HD
ATOM     16  H   UNL     1       2.475   5.422  21.653  0.00  0.00    +0.031 HD
ATOM     17  H   UNL     1       1.133   4.982  20.548  0.00  0.00    +0.031 HD
ENDROOT
BRANCH   1  24
ATOM     18  C   UNL     1       6.701   5.566  15.966  0.00  0.00    -0.040 A 
ATOM     19  C   UNL     1       7.473   5.380  14.806  0.00  0.00    -0.023 A 
ATOM     20  C   UNL     1       6.981   4.626  13.748  0.00  0.00    +0.124 A 
ATOM     21  F   UNL     1       7.728   4.465  12.649  0.00  0.00    -0.205 F 
ATOM     22  C   UNL     1       5.728   4.037  13.814  0.00  0.00    -0.026 A 
ATOM     23  C   UNL     1       4.956   4.200  14.964  0.00  0.00    -0.051 A 
ATOM     24  C   UNL     1       5.426   4.957  16.058  0.00  0.00    -0.015 A 
ATOM     25  H   UNL     1       8.462   5.822  14.717  0.00  0.00    +0.065 HD
ATOM     26  H   UNL     1       5.363   3.452  12.978  0.00  0.00    +0.065 HD
ATOM     27  H   UNL     1       3.979   3.723  15.014  0.00  0.00    +0.062 HD
BRANCH  18  28
ATOM     28  C   UNL     1       7.276   6.387  17.090  0.00  0.00    -0.039 C 
ATOM     29  H   UNL     1       6.508   6.595  17.842  0.00  0.00    +0.028 HD
ATOM     30  H   UNL     1       7.690   7.328  16.714  0.00  0.00    +0.028 HD
ATOM     31  H   UNL     1       8.099   5.858  17.585  0.00  0.00    +0.028 HD
ENDBRANCH  18  28
ENDBRANCH   1  24
BRANCH   7  32
ATOM     32  N   UNL     1       2.358   8.647  18.610  0.00  0.00    -0.293 N 
ATOM     33  C   UNL     1       1.480   9.700  18.715  0.00  0.00    +0.300 C 
ATOM     34  O   UNL     1       0.374   9.634  19.229  0.00  0.00    -0.253 OA
ATOM     35  N   UNL     1       1.998  10.823  18.116  0.00  0.00    -0.295 N 
ATOM     36  H   UNL     1       2.972   8.720  17.814  0.00  0.00    +0.151 HD
ATOM     37  H   UNL     1       2.986  10.939  18.285  0.00  0.00    +0.151 HD
BRANCH  35  38
ATOM     38  C   UNL     1       1.210  12.041  18.072  0.00  0.00    +0.039 C 
ATOM     39  H   UNL     1       1.464  12.562  17.143  0.00  0.00    +0.051 HD
ATOM     40  H   UNL     1       0.161  11.731  18.036  0.00  0.00    +0.051 HD
BRANCH  38  41
ATOM     41  C   UNL     1       1.407  12.949  19.271  0.00  0.00    -0.018 A 
ATOM     42  C   UNL     1       0.519  12.910  20.366  0.00  0.00    -0.054 A 
ATOM     43  C   UNL     1       0.742  13.691  21.502  0.00  0.00    -0.026 A 
ATOM     44  C   UNL     1       1.846  14.527  21.556  0.00  0.00    +0.124 A 
ATOM     45  F   UNL     1       2.060  15.267  22.650  0.00  0.00    -0.205 F 
ATOM     46  C   UNL     1       2.720  14.622  20.483  0.00  0.00    -0.014 A 
ATOM     47  C   UNL     1       2.488  13.856  19.333  0.00  0.00    +0.044 A 
ATOM     48  H   UNL     1      -0.343  12.247  20.357  0.00  0.00    +0.062 HD
ATOM     49  H   UNL     1       0.068  13.636  22.352  0.00  0.00    +0.065 HD
ATOM     50  H   UNL     1       3.572  15.294  20.543  0.00  0.00    +0.065 HD
BRANCH  47  51
ATOM     51  C   UNL     1       3.430  14.067  18.208  0.00  0.00    +0.242 C 
ATOM     52  N   UNL     1       3.137  15.095  17.357  0.00  0.00    -0.325 N 
ATOM     53  O   UNL     1       4.462  13.421  18.096  0.00  0.00    -0.270 OA
ATOM     54  H   UNL     1       3.879  15.338  16.712  0.00  0.00    +0.145 HD
ATOM     55  H   UNL     1       2.519  15.842  17.643  0.00  0.00    +0.145 HD
ENDBRANCH  47  51
ENDBRANCH  38  41
ENDBRANCH  35  38
ENDBRANCH   7  32
TORSDOF 6
ENDMDL
MODEL 21
REMARK VINA RESULT:    -6.820      4.735      9.274
REMARK INTER + INTRA:         -10.232
REMARK INTER:                  -9.250
REMARK INTRA:                  -0.982
REMARK UNBOUND:                -1.219
REMARK  Name = 
REMARK  6 active torsions:
REMARK  status: ('A' for Active; 'I' for Inactive)
REMARK    1  A    between atoms: C_1  and  C_2
REMARK    2  A    between atoms: C_8  and  C_9
REMARK    3  A    between atoms: C_15  and  N_16
REMARK    4  A    between atoms: N_19  and  C_20
REMARK    5  A    between atoms: C_20  and  C_21
REMARK    6  A    between atoms: C_27  and  C_28
REMARK                            x       y       z     vdW  Elec       q    Type
REMARK                         _______ _______ _______ _____ _____    ______ ____
ROOT
ATOM      1  C   UNL     1       3.097  14.207  18.846  0.00  0.00    -0.017 A 
ATOM      2  C   UNL     1       2.138  15.237  18.725  0.00  0.00    -0.054 A 
ATOM      3  C   UNL     1       0.770  14.954  18.641  0.00  0.00    -0.058 A 
ATOM      4  C   UNL     1       0.367  13.631  18.653  0.00  0.00    -0.042 A 
ATOM      5  C   UNL     1       1.300  12.596  18.765  0.00  0.00    -0.023 A 
ATOM      6  C   UNL     1       2.656  12.874  18.874  0.00  0.00    -0.049 A 
ATOM      7  C   UNL     1       0.613  11.255  18.795  0.00  0.00    +0.050 C 
ATOM      8  C   UNL     1      -0.769  11.627  18.222  0.00  0.00    -0.026 C 
ATOM      9  C   UNL     1      -1.027  13.089  18.614  0.00  0.00    -0.025 C 
ATOM     10  H   UNL     1       2.463  16.276  18.715  0.00  0.00    +0.062 HD
ATOM     11  H   UNL     1       0.046  15.761  18.568  0.00  0.00    +0.062 HD
ATOM     12  H   UNL     1       3.372  12.065  18.989  0.00  0.00    +0.063 HD
ATOM     13  H   UNL     1       0.523  10.909  19.832  0.00  0.00    +0.055 HD
ATOM     14  H   UNL     1      -0.761  11.549  17.125  0.00  0.00    +0.029 HD
ATOM     15  H   UNL     1      -1.558  10.957  18.578  0.00  0.00    +0.029 HD
ATOM     16  H   UNL     1      -1.652  13.597  17.873  0.00  0.00    +0.031 HD
ATOM     17  H   UNL     1      -1.488  13.159  19.605  0.00  0.00    +0.031 HD
ENDROOT
BRANCH   1  24
ATOM     18  C   UNL     1       5.150  14.999  20.104  0.00  0.00    -0.040 A 
ATOM     19  C   UNL     1       6.536  15.237  20.113  0.00  0.00    -0.023 A 
ATOM     20  C   UNL     1       7.292  15.029  18.967  0.00  0.00    +0.124 A 
ATOM     21  F   UNL     1       8.609  15.267  18.992  0.00  0.00    -0.205 F 
ATOM     22  C   UNL     1       6.703  14.577  17.797  0.00  0.00    -0.026 A 
ATOM     23  C   UNL     1       5.332  14.323  17.776  0.00  0.00    -0.051 A 
ATOM     24  C   UNL     1       4.534  14.521  18.923  0.00  0.00    -0.015 A 
ATOM     25  H   UNL     1       7.037  15.588  21.011  0.00  0.00    +0.065 HD
ATOM     26  H   UNL     1       7.311  14.419  16.912  0.00  0.00    +0.065 HD
ATOM     27  H   UNL     1       4.878  13.954  16.857  0.00  0.00    +0.062 HD
BRANCH  18  28
ATOM     28  C   UNL     1       4.372  15.235  21.371  0.00  0.00    -0.039 C 
ATOM     29  H   UNL     1       4.947  15.858  22.062  0.00  0.00    +0.028 HD
ATOM     30  H   UNL     1       4.117  14.286  21.855  0.00  0.00    +0.028 HD
ATOM     31  H   UNL     1       3.424  15.746  21.164  0.00  0.00    +0.028 HD
ENDBRANCH  18  28
ENDBRANCH   1  24
BRANCH   7  32
ATOM     32  N   UNL     1       1.282  10.271  17.969  0.00  0.00    -0.293 N 
ATOM     33  C   UNL     1       1.320   8.960  18.379  0.00  0.00    +0.300 C 
ATOM     34  O   UNL     1       0.661   8.500  19.299  0.00  0.00    -0.253 OA
ATOM     35  N   UNL     1       2.240   8.250  17.646  0.00  0.00    -0.295 N 
ATOM     36  H   UNL     1       2.148  10.584  17.556  0.00  0.00    +0.151 HD
ATOM     37  H   UNL     1       2.241   8.498  16.669  0.00  0.00    +0.151 HD
BRANCH  35  38
ATOM     38  C   UNL     1       2.473   6.850  17.950  0.00  0.00    +0.039 C 
ATOM     39  H   UNL     1       1.959   6.629  18.890  0.00  0.00    +0.051 HD
ATOM     40  H   UNL     1       2.010   6.276  17.141  0.00  0.00    +0.051 HD
BRANCH  38  41
ATOM     41  C   UNL     1       3.940   6.471  18.035  0.00  0.00    -0.018 A 
ATOM     42  C   UNL     1       4.906   7.123  17.242  0.00  0.00    -0.054 A 
ATOM     43  C   UNL     1       6.265   6.828  17.374  0.00  0.00    -0.026 A 
ATOM     44  C   UNL     1       6.675   5.873  18.291  0.00  0.00    +0.124 A 
ATOM     45  F   UNL     1       7.978   5.600  18.421  0.00  0.00    -0.205 F 
ATOM     46  C   UNL     1       5.751   5.182  19.061  0.00  0.00    -0.014 A 
ATOM     47  C   UNL     1       4.385   5.460  18.916  0.00  0.00    +0.044 A 
ATOM     48  H   UNL     1       4.613   7.892  16.530  0.00  0.00    +0.062 HD
ATOM     49  H   UNL     1       7.006   7.354  16.779  0.00  0.00    +0.065 HD
ATOM     50  H   UNL     1       6.095   4.428  19.764  0.00  0.00    +0.065 HD
BRANCH  47  51
ATOM     51  C   UNL     1       3.461   4.631  19.725  0.00  0.00    +0.242 C 
ATOM     52  N   UNL     1       2.918   5.228  20.828  0.00  0.00    -0.325 N 
ATOM     53  O   UNL     1       3.129   3.506  19.380  0.00  0.00    -0.270 OA
ATOM     54  H   UNL     1       2.158   4.715  21.258  0.00  0.00    +0.145 HD
ATOM     55  H   UNL     1       2.893   6.235  20.910  0.00  0.00    +0.145 HD
ENDBRANCH  47  51
ENDBRANCH  38  41
ENDBRANCH  35  38
ENDBRANCH   7  32
TORSDOF 6
ENDMDL
MODEL 22
REMARK VINA RESULT:    -6.800      2.687      9.153
REMARK INTER + INTRA:         -10.205
REMARK INTER:                  -9.951
REMARK INTRA:                  -0.254
REMARK UNBOUND:                -1.219
REMARK  Name = 
REMARK  6 active torsions:
REMARK  status: ('A' for Active; 'I' for Inactive)
REMARK    1  A    between atoms: C_1  and  C_2
REMARK    2  A    between atoms: C_8  and  C_9
REMARK    3  A    between atoms: C_15  and  N_16
REMARK    4  A    between atoms: N_19  and  C_20
REMARK    5  A    between atoms: C_20  and  C_21
REMARK    6  A    between atoms: C_27  and  C_28
REMARK                            x       y       z     vdW  Elec       q    Type
REMARK                         _______ _______ _______ _____ _____    ______ ____
ROOT
ATOM      1  C   UNL     1      -2.565  11.254  18.558  0.00  0.00    -0.017 A 
ATOM      2  C   UNL     1      -3.228  12.283  19.262  0.00  0.00    -0.054 A 
ATOM      3  C   UNL     1      -2.863  12.628  20.568  0.00  0.00    -0.058 A 
ATOM      4  C   UNL     1      -1.844  11.918  21.177  0.00  0.00    -0.042 A 
ATOM      5  C   UNL     1      -1.178  10.892  20.501  0.00  0.00    -0.023 A 
ATOM      6  C   UNL     1      -1.522  10.564  19.196  0.00  0.00    -0.049 A 
ATOM      7  C   UNL     1      -0.088  10.303  21.360  0.00  0.00    +0.050 C 
ATOM      8  C   UNL     1      -0.522  10.797  22.754  0.00  0.00    -0.026 C 
ATOM      9  C   UNL     1      -1.258  12.127  22.538  0.00  0.00    -0.025 C 
ATOM     10  H   UNL     1      -4.031  12.836  18.776  0.00  0.00    +0.062 HD
ATOM     11  H   UNL     1      -3.372  13.435  21.086  0.00  0.00    +0.062 HD
ATOM     12  H   UNL     1      -0.980   9.784  18.668  0.00  0.00    +0.063 HD
ATOM     13  H   UNL     1       0.878  10.735  21.077  0.00  0.00    +0.055 HD
ATOM     14  H   UNL     1      -1.214  10.078  23.216  0.00  0.00    +0.029 HD
ATOM     15  H   UNL     1       0.327  10.900  23.438  0.00  0.00    +0.029 HD
ATOM     16  H   UNL     1      -2.024  12.287  23.303  0.00  0.00    +0.031 HD
ATOM     17  H   UNL     1      -0.560  12.970  22.524  0.00  0.00    +0.031 HD
ENDROOT
BRANCH   1  24
ATOM     18  C   UNL     1      -4.177  11.348  16.603  0.00  0.00    -0.040 A 
ATOM     19  C   UNL     1      -4.475  10.999  15.275  0.00  0.00    -0.023 A 
ATOM     20  C   UNL     1      -3.605  10.197  14.546  0.00  0.00    +0.124 A 
ATOM     21  F   UNL     1      -3.909   9.870  13.285  0.00  0.00    -0.205 F 
ATOM     22  C   UNL     1      -2.427   9.732  15.108  0.00  0.00    -0.026 A 
ATOM     23  C   UNL     1      -2.110  10.081  16.420  0.00  0.00    -0.051 A 
ATOM     24  C   UNL     1      -2.969  10.896  17.187  0.00  0.00    -0.015 A 
ATOM     25  H   UNL     1      -5.387  11.347  14.797  0.00  0.00    +0.065 HD
ATOM     26  H   UNL     1      -1.760   9.108  14.523  0.00  0.00    +0.065 HD
ATOM     27  H   UNL     1      -1.175   9.724  16.850  0.00  0.00    +0.062 HD
BRANCH  18  28
ATOM     28  C   UNL     1      -5.147  12.223  17.353  0.00  0.00    -0.039 C 
ATOM     29  H   UNL     1      -5.672  11.642  18.117  0.00  0.00    +0.028 HD
ATOM     30  H   UNL     1      -5.873  12.676  16.669  0.00  0.00    +0.028 HD
ATOM     31  H   UNL     1      -4.629  13.050  17.853  0.00  0.00    +0.028 HD
ENDBRANCH  18  28
ENDBRANCH   1  24
BRANCH   7  32
ATOM     32  N   UNL     1      -0.055   8.855  21.297  0.00  0.00    -0.293 N 
ATOM     33  C   UNL     1       1.139   8.200  21.480  0.00  0.00    +0.300 C 
ATOM     34  O   UNL     1       2.163   8.723  21.892  0.00  0.00    -0.253 OA
ATOM     35  N   UNL     1       1.036   6.888  21.086  0.00  0.00    -0.295 N 
ATOM     36  H   UNL     1      -0.623   8.451  20.569  0.00  0.00    +0.151 HD
ATOM     37  H   UNL     1       0.157   6.467  21.345  0.00  0.00    +0.151 HD
BRANCH  35  38
ATOM     38  C   UNL     1       2.202   6.025  21.151  0.00  0.00    +0.039 C 
ATOM     39  H   UNL     1       3.007   6.599  21.622  0.00  0.00    +0.051 HD
ATOM     40  H   UNL     1       1.930   5.186  21.800  0.00  0.00    +0.051 HD
BRANCH  38  41
ATOM     41  C   UNL     1       2.643   5.477  19.807  0.00  0.00    -0.018 A 
ATOM     42  C   UNL     1       3.225   6.317  18.835  0.00  0.00    -0.054 A 
ATOM     43  C   UNL     1       3.700   5.800  17.628  0.00  0.00    -0.026 A 
ATOM     44  C   UNL     1       3.591   4.442  17.372  0.00  0.00    +0.124 A 
ATOM     45  F   UNL     1       4.056   3.949  16.218  0.00  0.00    -0.205 F 
ATOM     46  C   UNL     1       2.989   3.590  18.287  0.00  0.00    -0.014 A 
ATOM     47  C   UNL     1       2.492   4.109  19.490  0.00  0.00    +0.044 A 
ATOM     48  H   UNL     1       3.341   7.383  19.021  0.00  0.00    +0.062 HD
ATOM     49  H   UNL     1       4.171   6.449  16.895  0.00  0.00    +0.065 HD
ATOM     50  H   UNL     1       2.904   2.531  18.058  0.00  0.00    +0.065 HD
BRANCH  47  51
ATOM     51  C   UNL     1       1.804   3.145  20.380  0.00  0.00    +0.242 C 
ATOM     52  N   UNL     1       0.467   2.963  20.160  0.00  0.00    -0.325 N 
ATOM     53  O   UNL     1       2.411   2.478  21.206  0.00  0.00    -0.270 OA
ATOM     54  H   UNL     1       0.059   2.176  20.648  0.00  0.00    +0.145 HD
ATOM     55  H   UNL     1       0.051   3.216  19.274  0.00  0.00    +0.145 HD
ENDBRANCH  47  51
ENDBRANCH  38  41
ENDBRANCH  35  38
ENDBRANCH   7  32
TORSDOF 6
ENDMDL
MODEL 23
REMARK VINA RESULT:    -6.788      1.740      2.205
REMARK INTER + INTRA:         -10.190
REMARK INTER:                  -9.268
REMARK INTRA:                  -0.922
REMARK UNBOUND:                -1.219
REMARK  Name = 
REMARK  6 active torsions:
REMARK  status: ('A' for Active; 'I' for Inactive)
REMARK    1  A    between atoms: C_1  and  C_2
REMARK    2  A    between atoms: C_8  and  C_9
REMARK    3  A    between atoms: C_15  and  N_16
REMARK    4  A    between atoms: N_19  and  C_20
REMARK    5  A    between atoms: C_20  and  C_21
REMARK    6  A    between atoms: C_27  and  C_28
REMARK                            x       y       z     vdW  Elec       q    Type
REMARK                         _______ _______ _______ _____ _____    ______ ____
ROOT
ATOM      1  C   UNL     1       4.241   3.563  17.623  0.00  0.00    -0.017 A 
ATOM      2  C   UNL     1       4.177   2.175  17.877  0.00  0.00    -0.054 A 
ATOM      3  C   UNL     1       3.278   1.644  18.809  0.00  0.00    -0.058 A 
ATOM      4  C   UNL     1       2.458   2.515  19.505  0.00  0.00    -0.042 A 
ATOM      5  C   UNL     1       2.510   3.892  19.273  0.00  0.00    -0.023 A 
ATOM      6  C   UNL     1       3.384   4.420  18.331  0.00  0.00    -0.049 A 
ATOM      7  C   UNL     1       1.497   4.618  20.122  0.00  0.00    +0.050 C 
ATOM      8  C   UNL     1       1.196   3.546  21.188  0.00  0.00    -0.026 C 
ATOM      9  C   UNL     1       1.402   2.184  20.512  0.00  0.00    -0.025 C 
ATOM     10  H   UNL     1       4.826   1.497  17.327  0.00  0.00    +0.062 HD
ATOM     11  H   UNL     1       3.229   0.573  18.977  0.00  0.00    +0.062 HD
ATOM     12  H   UNL     1       3.398   5.489  18.137  0.00  0.00    +0.063 HD
ATOM     13  H   UNL     1       0.604   4.834  19.526  0.00  0.00    +0.055 HD
ATOM     14  H   UNL     1       1.900   3.636  22.030  0.00  0.00    +0.029 HD
ATOM     15  H   UNL     1       0.190   3.652  21.609  0.00  0.00    +0.029 HD
ATOM     16  H   UNL     1       1.732   1.427  21.230  0.00  0.00    +0.031 HD
ATOM     17  H   UNL     1       0.490   1.849  20.007  0.00  0.00    +0.031 HD
ENDROOT
BRANCH   1  24
ATOM     18  C   UNL     1       6.374   4.799  17.032  0.00  0.00    -0.040 A 
ATOM     19  C   UNL     1       7.265   5.253  16.043  0.00  0.00    -0.023 A 
ATOM     20  C   UNL     1       6.986   5.048  14.698  0.00  0.00    +0.124 A 
ATOM     21  F   UNL     1       7.842   5.493  13.771  0.00  0.00    -0.205 F 
ATOM     22  C   UNL     1       5.833   4.387  14.303  0.00  0.00    -0.026 A 
ATOM     23  C   UNL     1       4.947   3.918  15.271  0.00  0.00    -0.051 A 
ATOM     24  C   UNL     1       5.201   4.107  16.647  0.00  0.00    -0.015 A 
ATOM     25  H   UNL     1       8.181   5.772  16.313  0.00  0.00    +0.065 HD
ATOM     26  H   UNL     1       5.634   4.236  13.247  0.00  0.00    +0.065 HD
ATOM     27  H   UNL     1       4.051   3.388  14.954  0.00  0.00    +0.062 HD
BRANCH  18  28
ATOM     28  C   UNL     1       6.720   5.040  18.478  0.00  0.00    -0.039 C 
ATOM     29  H   UNL     1       5.907   5.571  18.981  0.00  0.00    +0.028 HD
ATOM     30  H   UNL     1       7.648   5.615  18.567  0.00  0.00    +0.028 HD
ATOM     31  H   UNL     1       6.885   4.095  19.008  0.00  0.00    +0.028 HD
ENDBRANCH  18  28
ENDBRANCH   1  24
BRANCH   7  32
ATOM     32  N   UNL     1       2.037   5.823  20.719  0.00  0.00    -0.293 N 
ATOM     33  C   UNL     1       1.487   7.040  20.393  0.00  0.00    +0.300 C 
ATOM     34  O   UNL     1       0.438   7.189  19.785  0.00  0.00    -0.253 OA
ATOM     35  N   UNL     1       2.306   8.065  20.800  0.00  0.00    -0.295 N 
ATOM     36  H   UNL     1       3.042   5.847  20.789  0.00  0.00    +0.151 HD
ATOM     37  H   UNL     1       2.726   7.899  21.702  0.00  0.00    +0.151 HD
BRANCH  35  38
ATOM     38  C   UNL     1       1.935   9.438  20.512  0.00  0.00    +0.039 C 
ATOM     39  H   UNL     1       2.822  10.058  20.676  0.00  0.00    +0.051 HD
ATOM     40  H   UNL     1       1.663   9.470  19.452  0.00  0.00    +0.051 HD
BRANCH  38  41
ATOM     41  C   UNL     1       0.762   9.947  21.329  0.00  0.00    -0.018 A 
ATOM     42  C   UNL     1       0.508   9.450  22.624  0.00  0.00    -0.054 A 
ATOM     43  C   UNL     1      -0.525   9.971  23.406  0.00  0.00    -0.026 A 
ATOM     44  C   UNL     1      -1.323  10.987  22.902  0.00  0.00    +0.124 A 
ATOM     45  F   UNL     1      -2.306  11.489  23.659  0.00  0.00    -0.205 F 
ATOM     46  C   UNL     1      -1.129  11.474  21.618  0.00  0.00    -0.014 A 
ATOM     47  C   UNL     1      -0.107  10.939  20.823  0.00  0.00    +0.044 A 
ATOM     48  H   UNL     1       1.134   8.669  23.051  0.00  0.00    +0.062 HD
ATOM     49  H   UNL     1      -0.697   9.602  24.413  0.00  0.00    +0.065 HD
ATOM     50  H   UNL     1      -1.776  12.262  21.241  0.00  0.00    +0.065 HD
BRANCH  47  51
ATOM     51  C   UNL     1      -0.012  11.467  19.442  0.00  0.00    +0.242 C 
ATOM     52  N   UNL     1      -0.675  10.763  18.476  0.00  0.00    -0.325 N 
ATOM     53  O   UNL     1       0.550  12.524  19.189  0.00  0.00    -0.270 OA
ATOM     54  H   UNL     1      -0.751  11.234  17.583  0.00  0.00    +0.145 HD
ATOM     55  H   UNL     1      -1.422  10.128  18.722  0.00  0.00    +0.145 HD
ENDBRANCH  47  51
ENDBRANCH  38  41
ENDBRANCH  35  38
ENDBRANCH   7  32
TORSDOF 6
ENDMDL
MODEL 24
REMARK VINA RESULT:    -6.720      2.823     10.334
REMARK INTER + INTRA:         -10.100
REMARK INTER:                  -9.851
REMARK INTRA:                  -0.249
REMARK UNBOUND:                -1.219
REMARK  Name = 
REMARK  6 active torsions:
REMARK  status: ('A' for Active; 'I' for Inactive)
REMARK    1  A    between atoms: C_1  and  C_2
REMARK    2  A    between atoms: C_8  and  C_9
REMARK    3  A    between atoms: C_15  and  N_16
REMARK    4  A    between atoms: N_19  and  C_20
REMARK    5  A    between atoms: C_20  and  C_21
REMARK    6  A    between atoms: C_27  and  C_28
REMARK                            x       y       z     vdW  Elec       q    Type
REMARK                         _______ _______ _______ _____ _____    ______ ____
ROOT
ATOM      1  C   UNL     1      -1.029  12.293  20.585  0.00  0.00    -0.017 A 
ATOM      2  C   UNL     1      -0.519  13.450  19.956  0.00  0.00    -0.054 A 
ATOM      3  C   UNL     1       0.487  13.372  18.987  0.00  0.00    -0.058 A 
ATOM      4  C   UNL     1       0.999  12.128  18.667  0.00  0.00    -0.042 A 
ATOM      5  C   UNL     1       0.514  10.970  19.281  0.00  0.00    -0.023 A 
ATOM      6  C   UNL     1      -0.502  11.042  20.226  0.00  0.00    -0.049 A 
ATOM      7  C   UNL     1       1.202   9.745  18.736  0.00  0.00    +0.050 C 
ATOM      8  C   UNL     1       2.447  10.380  18.087  0.00  0.00    -0.026 C 
ATOM      9  C   UNL     1       2.040  11.792  17.645  0.00  0.00    -0.025 C 
ATOM     10  H   UNL     1      -0.927  14.426  20.215  0.00  0.00    +0.062 HD
ATOM     11  H   UNL     1       0.852  14.272  18.500  0.00  0.00    +0.062 HD
ATOM     12  H   UNL     1      -0.892  10.135  20.678  0.00  0.00    +0.063 HD
ATOM     13  H   UNL     1       0.567   9.271  17.978  0.00  0.00    +0.055 HD
ATOM     14  H   UNL     1       3.264  10.458  18.820  0.00  0.00    +0.029 HD
ATOM     15  H   UNL     1       2.831   9.780  17.254  0.00  0.00    +0.029 HD
ATOM     16  H   UNL     1       2.891  12.481  17.674  0.00  0.00    +0.031 HD
ATOM     17  H   UNL     1       1.598  11.784  16.644  0.00  0.00    +0.031 HD
ENDROOT
BRANCH   1  24
ATOM     18  C   UNL     1      -3.452  12.532  21.290  0.00  0.00    -0.040 A 
ATOM     19  C   UNL     1      -4.403  12.580  22.324  0.00  0.00    -0.023 A 
ATOM     20  C   UNL     1      -4.001  12.516  23.652  0.00  0.00    +0.124 A 
ATOM     21  F   UNL     1      -4.920  12.570  24.624  0.00  0.00    -0.205 F 
ATOM     22  C   UNL     1      -2.661  12.398  23.985  0.00  0.00    -0.026 A 
ATOM     23  C   UNL     1      -1.707  12.334  22.971  0.00  0.00    -0.051 A 
ATOM     24  C   UNL     1      -2.081  12.393  21.611  0.00  0.00    -0.015 A 
ATOM     25  H   UNL     1      -5.464  12.668  22.104  0.00  0.00    +0.065 HD
ATOM     26  H   UNL     1      -2.367  12.348  25.028  0.00  0.00    +0.065 HD
ATOM     27  H   UNL     1      -0.657  12.227  23.240  0.00  0.00    +0.062 HD
BRANCH  18  28
ATOM     28  C   UNL     1      -3.935  12.599  19.865  0.00  0.00    -0.039 C 
ATOM     29  H   UNL     1      -3.140  12.970  19.210  0.00  0.00    +0.028 HD
ATOM     30  H   UNL     1      -4.815  13.246  19.780  0.00  0.00    +0.028 HD
ATOM     31  H   UNL     1      -4.237  11.610  19.502  0.00  0.00    +0.028 HD
ENDBRANCH  18  28
ENDBRANCH   1  24
BRANCH   7  32
ATOM     32  N   UNL     1       1.567   8.806  19.777  0.00  0.00    -0.293 N 
ATOM     33  C   UNL     1       1.895   7.516  19.436  0.00  0.00    +0.300 C 
ATOM     34  O   UNL     1       2.100   7.128  18.296  0.00  0.00    -0.253 OA
ATOM     35  N   UNL     1       1.909   6.710  20.549  0.00  0.00    -0.295 N 
ATOM     36  H   UNL     1       1.011   8.866  20.616  0.00  0.00    +0.151 HD
ATOM     37  H   UNL     1       2.310   7.160  21.357  0.00  0.00    +0.151 HD
BRANCH  35  38
ATOM     38  C   UNL     1       2.187   5.292  20.405  0.00  0.00    +0.039 C 
ATOM     39  H   UNL     1       2.413   4.900  21.402  0.00  0.00    +0.051 HD
ATOM     40  H   UNL     1       1.264   4.831  20.037  0.00  0.00    +0.051 HD
BRANCH  38  41
ATOM     41  C   UNL     1       3.308   4.976  19.433  0.00  0.00    -0.018 A 
ATOM     42  C   UNL     1       4.583   5.559  19.582  0.00  0.00    -0.054 A 
ATOM     43  C   UNL     1       5.637   5.212  18.733  0.00  0.00    -0.026 A 
ATOM     44  C   UNL     1       5.429   4.286  17.722  0.00  0.00    +0.124 A 
ATOM     45  F   UNL     1       6.444   3.950  16.917  0.00  0.00    -0.205 F 
ATOM     46  C   UNL     1       4.179   3.721  17.521  0.00  0.00    -0.014 A 
ATOM     47  C   UNL     1       3.113   4.084  18.356  0.00  0.00    +0.044 A 
ATOM     48  H   UNL     1       4.779   6.272  20.381  0.00  0.00    +0.062 HD
ATOM     49  H   UNL     1       6.624   5.645  18.870  0.00  0.00    +0.065 HD
ATOM     50  H   UNL     1       4.036   3.008  16.713  0.00  0.00    +0.065 HD
BRANCH  47  51
ATOM     51  C   UNL     1       1.797   3.486  18.030  0.00  0.00    +0.242 C 
ATOM     52  N   UNL     1       0.987   4.215  17.205  0.00  0.00    -0.325 N 
ATOM     53  O   UNL     1       1.485   2.363  18.401  0.00  0.00    -0.270 OA
ATOM     54  H   UNL     1       0.181   3.716  16.850  0.00  0.00    +0.145 HD
ATOM     55  H   UNL     1       1.371   4.941  16.616  0.00  0.00    +0.145 HD
ENDBRANCH  47  51
ENDBRANCH  38  41
ENDBRANCH  35  38
ENDBRANCH   7  32
TORSDOF 6
ENDMDL
MODEL 25
REMARK VINA RESULT:    -6.555      2.822      9.173
REMARK INTER + INTRA:          -9.882
REMARK INTER:                  -9.631
REMARK INTRA:                  -0.250
REMARK UNBOUND:                -1.219
REMARK  Name = 
REMARK  6 active torsions:
REMARK  status: ('A' for Active; 'I' for Inactive)
REMARK    1  A    between atoms: C_1  and  C_2
REMARK    2  A    between atoms: C_8  and  C_9
REMARK    3  A    between atoms: C_15  and  N_16
REMARK    4  A    between atoms: N_19  and  C_20
REMARK    5  A    between atoms: C_20  and  C_21
REMARK    6  A    between atoms: C_27  and  C_28
REMARK                            x       y       z     vdW  Elec       q    Type
REMARK                         _______ _______ _______ _____ _____    ______ ____
ROOT
ATOM      1  C   UNL     1      -2.181  11.003  18.291  0.00  0.00    -0.017 A 
ATOM      2  C   UNL     1      -2.850  11.839  19.213  0.00  0.00    -0.054 A 
ATOM      3  C   UNL     1      -2.293  12.143  20.460  0.00  0.00    -0.058 A 
ATOM      4  C   UNL     1      -1.070  11.586  20.790  0.00  0.00    -0.042 A 
ATOM      5  C   UNL     1      -0.394  10.752  19.895  0.00  0.00    -0.023 A 
ATOM      6  C   UNL     1      -0.934  10.467  18.648  0.00  0.00    -0.049 A 
ATOM      7  C   UNL     1       0.926  10.307  20.470  0.00  0.00    +0.050 C 
ATOM      8  C   UNL     1       0.705  10.608  21.965  0.00  0.00    -0.026 C 
ATOM      9  C   UNL     1      -0.266  11.794  22.035  0.00  0.00    -0.025 C 
ATOM     10  H   UNL     1      -3.812  12.272  18.946  0.00  0.00    +0.062 HD
ATOM     11  H   UNL     1      -2.813  12.804  21.147  0.00  0.00    +0.062 HD
ATOM     12  H   UNL     1      -0.388   9.840  17.947  0.00  0.00    +0.063 HD
ATOM     13  H   UNL     1       1.733  10.928  20.064  0.00  0.00    +0.055 HD
ATOM     14  H   UNL     1       0.246   9.742  22.466  0.00  0.00    +0.029 HD
ATOM     15  H   UNL     1       1.645  10.811  22.490  0.00  0.00    +0.029 HD
ATOM     16  H   UNL     1      -0.881  11.755  22.940  0.00  0.00    +0.031 HD
ATOM     17  H   UNL     1       0.268  12.749  21.986  0.00  0.00    +0.031 HD
ENDROOT
BRANCH   1  24
ATOM     18  C   UNL     1      -4.088  11.106  16.623  0.00  0.00    -0.040 A 
ATOM     19  C   UNL     1      -4.583  10.797  15.344  0.00  0.00    -0.023 A 
ATOM     20  C   UNL     1      -3.813  10.062  14.452  0.00  0.00    +0.124 A 
ATOM     21  F   UNL     1      -4.304   9.772  13.240  0.00  0.00    -0.205 F 
ATOM     22  C   UNL     1      -2.544   9.625  14.797  0.00  0.00    -0.026 A 
ATOM     23  C   UNL     1      -2.033   9.936  16.057  0.00  0.00    -0.051 A 
ATOM     24  C   UNL     1      -2.787  10.683  16.987  0.00  0.00    -0.015 A 
ATOM     25  H   UNL     1      -5.571  11.125  15.034  0.00  0.00    +0.065 HD
ATOM     26  H   UNL     1      -1.958   9.053  14.086  0.00  0.00    +0.065 HD
ATOM     27  H   UNL     1      -1.030   9.601  16.316  0.00  0.00    +0.062 HD
BRANCH  18  28
ATOM     28  C   UNL     1      -4.956  11.910  17.556  0.00  0.00    -0.039 C 
ATOM     29  H   UNL     1      -4.397  12.761  17.958  0.00  0.00    +0.028 HD
ATOM     30  H   UNL     1      -5.325  11.288  18.379  0.00  0.00    +0.028 HD
ATOM     31  H   UNL     1      -5.839  12.300  17.037  0.00  0.00    +0.028 HD
ENDBRANCH  18  28
ENDBRANCH   1  24
BRANCH   7  32
ATOM     32  N   UNL     1       1.182   8.899  20.244  0.00  0.00    -0.293 N 
ATOM     33  C   UNL     1       1.879   8.512  19.125  0.00  0.00    +0.300 C 
ATOM     34  O   UNL     1       2.486   9.272  18.386  0.00  0.00    -0.253 OA
ATOM     35  N   UNL     1       1.757   7.159  18.922  0.00  0.00    -0.295 N 
ATOM     36  H   UNL     1       0.409   8.288  20.462  0.00  0.00    +0.151 HD
ATOM     37  H   UNL     1       1.795   6.627  19.779  0.00  0.00    +0.151 HD
BRANCH  35  38
ATOM     38  C   UNL     1       2.380   6.547  17.763  0.00  0.00    +0.039 C 
ATOM     39  H   UNL     1       1.790   5.662  17.503  0.00  0.00    +0.051 HD
ATOM     40  H   UNL     1       2.311   7.278  16.951  0.00  0.00    +0.051 HD
BRANCH  38  41
ATOM     41  C   UNL     1       3.839   6.182  17.965  0.00  0.00    -0.018 A 
ATOM     42  C   UNL     1       4.857   6.825  17.230  0.00  0.00    -0.054 A 
ATOM     43  C   UNL     1       6.204   6.544  17.469  0.00  0.00    -0.026 A 
ATOM     44  C   UNL     1       6.552   5.613  18.436  0.00  0.00    +0.124 A 
ATOM     45  F   UNL     1       7.844   5.354  18.667  0.00  0.00    -0.205 F 
ATOM     46  C   UNL     1       5.578   4.932  19.151  0.00  0.00    -0.014 A 
ATOM     47  C   UNL     1       4.225   5.196  18.900  0.00  0.00    +0.044 A 
ATOM     48  H   UNL     1       4.612   7.575  16.481  0.00  0.00    +0.062 HD
ATOM     49  H   UNL     1       6.984   7.062  16.918  0.00  0.00    +0.065 HD
ATOM     50  H   UNL     1       5.874   4.198  19.895  0.00  0.00    +0.065 HD
BRANCH  47  51
ATOM     51  C   UNL     1       3.249   4.377  19.657  0.00  0.00    +0.242 C 
ATOM     52  N   UNL     1       3.046   3.103  19.206  0.00  0.00    -0.325 N 
ATOM     53  O   UNL     1       2.722   4.781  20.684  0.00  0.00    -0.270 OA
ATOM     54  H   UNL     1       2.523   2.507  19.836  0.00  0.00    +0.145 HD
ATOM     55  H   UNL     1       3.726   2.652  18.610  0.00  0.00    +0.145 HD
ENDBRANCH  47  51
ENDBRANCH  38  41
ENDBRANCH  35  38
ENDBRANCH   7  32
TORSDOF 6
ENDMDL
MODEL 26
REMARK VINA RESULT:    -6.553      3.230     10.573
REMARK INTER + INTRA:          -9.879
REMARK INTER:                  -9.313
REMARK INTRA:                  -0.566
REMARK UNBOUND:                -1.219
REMARK  Name = 
REMARK  6 active torsions:
REMARK  status: ('A' for Active; 'I' for Inactive)
REMARK    1  A    between atoms: C_1  and  C_2
REMARK    2  A    between atoms: C_8  and  C_9
REMARK    3  A    between atoms: C_15  and  N_16
REMARK    4  A    between atoms: N_19  and  C_20
REMARK    5  A    between atoms: C_20  and  C_21
REMARK    6  A    between atoms: C_27  and  C_28
REMARK                            x       y       z     vdW  Elec       q    Type
REMARK                         _______ _______ _______ _____ _____    ______ ____
ROOT
ATOM      1  C   UNL     1      -0.853  13.348  21.035  0.00  0.00    -0.017 A 
ATOM      2  C   UNL     1      -0.261  14.626  20.937  0.00  0.00    -0.054 A 
ATOM      3  C   UNL     1       0.805  14.872  20.065  0.00  0.00    -0.058 A 
ATOM      4  C   UNL     1       1.293  13.823  19.307  0.00  0.00    -0.042 A 
ATOM      5  C   UNL     1       0.726  12.548  19.393  0.00  0.00    -0.023 A 
ATOM      6  C   UNL     1      -0.348  12.307  20.240  0.00  0.00    -0.049 A 
ATOM      7  C   UNL     1       1.405  11.593  18.445  0.00  0.00    +0.050 C 
ATOM      8  C   UNL     1       2.714  12.356  18.158  0.00  0.00    -0.026 C 
ATOM      9  C   UNL     1       2.388  13.850  18.287  0.00  0.00    -0.025 C 
ATOM     10  H   UNL     1      -0.650  15.447  21.538  0.00  0.00    +0.062 HD
ATOM     11  H   UNL     1       1.234  15.867  19.989  0.00  0.00    +0.062 HD
ATOM     12  H   UNL     1      -0.801  11.320  20.280  0.00  0.00    +0.063 HD
ATOM     13  H   UNL     1       0.807  11.491  17.533  0.00  0.00    +0.055 HD
ATOM     14  H   UNL     1       3.481  12.093  18.902  0.00  0.00    +0.029 HD
ATOM     15  H   UNL     1       3.131  12.106  17.177  0.00  0.00    +0.029 HD
ATOM     16  H   UNL     1       3.259  14.421  18.625  0.00  0.00    +0.031 HD
ATOM     17  H   UNL     1       2.015  14.259  17.343  0.00  0.00    +0.031 HD
ENDROOT
BRANCH   1  24
ATOM     18  C   UNL     1      -1.969  12.033  22.893  0.00  0.00    -0.040 A 
ATOM     19  C   UNL     1      -3.051  11.886  23.779  0.00  0.00    -0.023 A 
ATOM     20  C   UNL     1      -4.122  12.769  23.731  0.00  0.00    +0.124 A 
ATOM     21  F   UNL     1      -5.146  12.610  24.579  0.00  0.00    -0.205 F 
ATOM     22  C   UNL     1      -4.146  13.812  22.819  0.00  0.00    -0.026 A 
ATOM     23  C   UNL     1      -3.074  13.979  21.943  0.00  0.00    -0.051 A 
ATOM     24  C   UNL     1      -1.968  13.103  21.966  0.00  0.00    -0.015 A 
ATOM     25  H   UNL     1      -3.068  11.084  24.512  0.00  0.00    +0.065 HD
ATOM     26  H   UNL     1      -4.992  14.491  22.798  0.00  0.00    +0.065 HD
ATOM     27  H   UNL     1      -3.093  14.809  21.238  0.00  0.00    +0.062 HD
BRANCH  18  28
ATOM     28  C   UNL     1      -0.827  11.055  22.985  0.00  0.00    -0.039 C 
ATOM     29  H   UNL     1      -1.075  10.128  22.459  0.00  0.00    +0.028 HD
ATOM     30  H   UNL     1      -0.584  10.834  24.030  0.00  0.00    +0.028 HD
ATOM     31  H   UNL     1       0.083  11.467  22.533  0.00  0.00    +0.028 HD
ENDBRANCH  18  28
ENDBRANCH   1  24
BRANCH   7  32
ATOM     32  N   UNL     1       1.665  10.303  19.051  0.00  0.00    -0.293 N 
ATOM     33  C   UNL     1       1.943   9.225  18.245  0.00  0.00    +0.300 C 
ATOM     34  O   UNL     1       2.188   9.294  17.051  0.00  0.00    -0.253 OA
ATOM     35  N   UNL     1       1.855   8.053  18.958  0.00  0.00    -0.295 N 
ATOM     36  H   UNL     1       1.068  10.074  19.830  0.00  0.00    +0.151 HD
ATOM     37  H   UNL     1       2.236   8.129  19.889  0.00  0.00    +0.151 HD
BRANCH  35  38
ATOM     38  C   UNL     1       2.067   6.785  18.284  0.00  0.00    +0.039 C 
ATOM     39  H   UNL     1       1.386   6.057  18.736  0.00  0.00    +0.051 HD
ATOM     40  H   UNL     1       1.785   6.940  17.237  0.00  0.00    +0.051 HD
BRANCH  38  41
ATOM     41  C   UNL     1       3.499   6.289  18.333  0.00  0.00    -0.018 A 
ATOM     42  C   UNL     1       4.492   6.850  17.504  0.00  0.00    -0.054 A 
ATOM     43  C   UNL     1       5.826   6.446  17.603  0.00  0.00    -0.026 A 
ATOM     44  C   UNL     1       6.182   5.472  18.522  0.00  0.00    +0.124 A 
ATOM     45  F   UNL     1       7.463   5.094  18.619  0.00  0.00    -0.205 F 
ATOM     46  C   UNL     1       5.228   4.869  19.327  0.00  0.00    -0.014 A 
ATOM     47  C   UNL     1       3.886   5.256  19.216  0.00  0.00    +0.044 A 
ATOM     48  H   UNL     1       4.242   7.631  16.790  0.00  0.00    +0.062 HD
ATOM     49  H   UNL     1       6.589   6.901  16.979  0.00  0.00    +0.065 HD
ATOM     50  H   UNL     1       5.529   4.098  20.032  0.00  0.00    +0.065 HD
BRANCH  47  51
ATOM     51  C   UNL     1       2.921   4.515  20.063  0.00  0.00    +0.242 C 
ATOM     52  N   UNL     1       2.530   5.132  21.219  0.00  0.00    -0.325 N 
ATOM     53  O   UNL     1       2.430   3.453  19.709  0.00  0.00    -0.270 OA
ATOM     54  H   UNL     1       1.742   4.699  21.685  0.00  0.00    +0.145 HD
ATOM     55  H   UNL     1       2.635   6.130  21.332  0.00  0.00    +0.145 HD
ENDBRANCH  47  51
ENDBRANCH  38  41
ENDBRANCH  35  38
ENDBRANCH   7  32
TORSDOF 6
ENDMDL
MODEL 27
REMARK VINA RESULT:    -6.321      3.368      8.850
REMARK INTER + INTRA:          -9.572
REMARK INTER:                  -8.567
REMARK INTRA:                  -1.005
REMARK UNBOUND:                -1.219
REMARK  Name = 
REMARK  6 active torsions:
REMARK  status: ('A' for Active; 'I' for Inactive)
REMARK    1  A    between atoms: C_1  and  C_2
REMARK    2  A    between atoms: C_8  and  C_9
REMARK    3  A    between atoms: C_15  and  N_16
REMARK    4  A    between atoms: N_19  and  C_20
REMARK    5  A    between atoms: C_20  and  C_21
REMARK    6  A    between atoms: C_27  and  C_28
REMARK                            x       y       z     vdW  Elec       q    Type
REMARK                         _______ _______ _______ _____ _____    ______ ____
ROOT
ATOM      1  C   UNL     1       1.528  12.513  20.520  0.00  0.00    -0.017 A 
ATOM      2  C   UNL     1       0.467  13.164  21.188  0.00  0.00    -0.054 A 
ATOM      3  C   UNL     1      -0.439  12.456  21.985  0.00  0.00    -0.058 A 
ATOM      4  C   UNL     1      -0.292  11.084  22.091  0.00  0.00    -0.042 A 
ATOM      5  C   UNL     1       0.746  10.419  21.433  0.00  0.00    -0.023 A 
ATOM      6  C   UNL     1       1.662  11.123  20.662  0.00  0.00    -0.049 A 
ATOM      7  C   UNL     1       0.714   8.943  21.737  0.00  0.00    +0.050 C 
ATOM      8  C   UNL     1      -0.727   8.788  22.261  0.00  0.00    -0.026 C 
ATOM      9  C   UNL     1      -1.105  10.129  22.906  0.00  0.00    -0.025 C 
ATOM     10  H   UNL     1       0.358  14.244  21.098  0.00  0.00    +0.062 HD
ATOM     11  H   UNL     1      -1.236  12.978  22.506  0.00  0.00    +0.062 HD
ATOM     12  H   UNL     1       2.483  10.601  20.177  0.00  0.00    +0.063 HD
ATOM     13  H   UNL     1       1.441   8.712  22.524  0.00  0.00    +0.055 HD
ATOM     14  H   UNL     1      -1.417   8.587  21.428  0.00  0.00    +0.029 HD
ATOM     15  H   UNL     1      -0.825   7.950  22.959  0.00  0.00    +0.029 HD
ATOM     16  H   UNL     1      -2.180  10.321  22.827  0.00  0.00    +0.031 HD
ATOM     17  H   UNL     1      -0.794  10.167  23.955  0.00  0.00    +0.031 HD
ENDROOT
BRANCH   1  24
ATOM     18  C   UNL     1       3.465  14.120  20.214  0.00  0.00    -0.040 A 
ATOM     19  C   UNL     1       4.352  14.780  19.346  0.00  0.00    -0.023 A 
ATOM     20  C   UNL     1       4.237  14.623  17.971  0.00  0.00    +0.124 A 
ATOM     21  F   UNL     1       5.087  15.264  17.160  0.00  0.00    -0.205 F 
ATOM     22  C   UNL     1       3.255  13.810  17.426  0.00  0.00    -0.026 A 
ATOM     23  C   UNL     1       2.377  13.137  18.274  0.00  0.00    -0.051 A 
ATOM     24  C   UNL     1       2.467  13.272  19.676  0.00  0.00    -0.015 A 
ATOM     25  H   UNL     1       5.138  15.423  19.734  0.00  0.00    +0.065 HD
ATOM     26  H   UNL     1       3.183  13.699  16.350  0.00  0.00    +0.065 HD
ATOM     27  H   UNL     1       1.617  12.489  17.840  0.00  0.00    +0.062 HD
BRANCH  18  28
ATOM     28  C   UNL     1       3.630  14.317  21.698  0.00  0.00    -0.039 C 
ATOM     29  H   UNL     1       4.606  13.946  22.025  0.00  0.00    +0.028 HD
ATOM     30  H   UNL     1       2.836  13.804  22.251  0.00  0.00    +0.028 HD
ATOM     31  H   UNL     1       3.564  15.378  21.966  0.00  0.00    +0.028 HD
ENDBRANCH  18  28
ENDBRANCH   1  24
BRANCH   7  32
ATOM     32  N   UNL     1       0.941   8.131  20.558  0.00  0.00    -0.293 N 
ATOM     33  C   UNL     1       1.720   7.003  20.657  0.00  0.00    +0.300 C 
ATOM     34  O   UNL     1       2.090   6.503  21.708  0.00  0.00    -0.253 OA
ATOM     35  N   UNL     1       2.070   6.546  19.409  0.00  0.00    -0.295 N 
ATOM     36  H   UNL     1       1.100   8.651  19.710  0.00  0.00    +0.151 HD
ATOM     37  H   UNL     1       1.318   6.612  18.741  0.00  0.00    +0.151 HD
BRANCH  35  38
ATOM     38  C   UNL     1       2.935   5.387  19.286  0.00  0.00    +0.039 C 
ATOM     39  H   UNL     1       3.614   5.393  20.145  0.00  0.00    +0.051 HD
ATOM     40  H   UNL     1       2.285   4.508  19.345  0.00  0.00    +0.051 HD
BRANCH  38  41
ATOM     41  C   UNL     1       3.712   5.331  17.984  0.00  0.00    -0.018 A 
ATOM     42  C   UNL     1       4.243   6.500  17.403  0.00  0.00    -0.054 A 
ATOM     43  C   UNL     1       5.022   6.440  16.245  0.00  0.00    -0.026 A 
ATOM     44  C   UNL     1       5.272   5.214  15.648  0.00  0.00    +0.124 A 
ATOM     45  F   UNL     1       6.026   5.160  14.544  0.00  0.00    -0.205 F 
ATOM     46  C   UNL     1       4.734   4.046  16.168  0.00  0.00    -0.014 A 
ATOM     47  C   UNL     1       3.934   4.105  17.317  0.00  0.00    +0.044 A 
ATOM     48  H   UNL     1       4.079   7.472  17.864  0.00  0.00    +0.062 HD
ATOM     49  H   UNL     1       5.449   7.343  15.818  0.00  0.00    +0.065 HD
ATOM     50  H   UNL     1       4.933   3.098  15.675  0.00  0.00    +0.065 HD
BRANCH  47  51
ATOM     51  C   UNL     1       3.344   2.823  17.767  0.00  0.00    +0.242 C 
ATOM     52  N   UNL     1       4.177   1.974  18.440  0.00  0.00    -0.325 N 
ATOM     53  O   UNL     1       2.155   2.572  17.626  0.00  0.00    -0.270 OA
ATOM     54  H   UNL     1       3.715   1.196  18.894  0.00  0.00    +0.145 HD
ATOM     55  H   UNL     1       5.023   2.317  18.873  0.00  0.00    +0.145 HD
ENDBRANCH  47  51
ENDBRANCH  38  41
ENDBRANCH  35  38
ENDBRANCH   7  32
TORSDOF 6
ENDMDL
MODEL 28
REMARK VINA RESULT:    -6.192      5.802      8.852
REMARK INTER + INTRA:          -9.401
REMARK INTER:                  -9.019
REMARK INTRA:                  -0.383
REMARK UNBOUND:                -1.219
REMARK  Name = 
REMARK  6 active torsions:
REMARK  status: ('A' for Active; 'I' for Inactive)
REMARK    1  A    between atoms: C_1  and  C_2
REMARK    2  A    between atoms: C_8  and  C_9
REMARK    3  A    between atoms: C_15  and  N_16
REMARK    4  A    between atoms: N_19  and  C_20
REMARK    5  A    between atoms: C_20  and  C_21
REMARK    6  A    between atoms: C_27  and  C_28
REMARK                            x       y       z     vdW  Elec       q    Type
REMARK                         _______ _______ _______ _____ _____    ______ ____
ROOT
ATOM      1  C   UNL     1       1.075  10.556  19.001  0.00  0.00    -0.017 A 
ATOM      2  C   UNL     1      -0.225  10.855  19.466  0.00  0.00    -0.054 A 
ATOM      3  C   UNL     1      -0.712  12.166  19.480  0.00  0.00    -0.058 A 
ATOM      4  C   UNL     1       0.120  13.184  19.047  0.00  0.00    -0.042 A 
ATOM      5  C   UNL     1       1.412  12.911  18.589  0.00  0.00    -0.023 A 
ATOM      6  C   UNL     1       1.889  11.608  18.551  0.00  0.00    -0.049 A 
ATOM      7  C   UNL     1       2.099  14.175  18.140  0.00  0.00    +0.050 C 
ATOM      8  C   UNL     1       1.222  15.239  18.829  0.00  0.00    -0.026 C 
ATOM      9  C   UNL     1      -0.189  14.643  18.935  0.00  0.00    -0.025 C 
ATOM     10  H   UNL     1      -0.872  10.048  19.806  0.00  0.00    +0.062 HD
ATOM     11  H   UNL     1      -1.722  12.373  19.823  0.00  0.00    +0.062 HD
ATOM     12  H   UNL     1       2.885  11.402  18.167  0.00  0.00    +0.063 HD
ATOM     13  H   UNL     1       2.033  14.263  17.050  0.00  0.00    +0.055 HD
ATOM     14  H   UNL     1       1.598  15.447  19.842  0.00  0.00    +0.029 HD
ATOM     15  H   UNL     1       1.229  16.193  18.290  0.00  0.00    +0.029 HD
ATOM     16  H   UNL     1      -0.719  15.027  19.812  0.00  0.00    +0.031 HD
ATOM     17  H   UNL     1      -0.772  14.838  18.029  0.00  0.00    +0.031 HD
ENDROOT
BRANCH   1  24
ATOM     18  C   UNL     1       1.610   8.371  20.171  0.00  0.00    -0.040 A 
ATOM     19  C   UNL     1       2.065   7.044  20.086  0.00  0.00    -0.023 A 
ATOM     20  C   UNL     1       2.502   6.526  18.874  0.00  0.00    +0.124 A 
ATOM     21  F   UNL     1       2.937   5.262  18.814  0.00  0.00    -0.205 F 
ATOM     22  C   UNL     1       2.492   7.300  17.724  0.00  0.00    -0.026 A 
ATOM     23  C   UNL     1       2.031   8.614  17.788  0.00  0.00    -0.051 A 
ATOM     24  C   UNL     1       1.577   9.171  19.003  0.00  0.00    -0.015 A 
ATOM     25  H   UNL     1       2.085   6.403  20.964  0.00  0.00    +0.065 HD
ATOM     26  H   UNL     1       2.836   6.877  16.786  0.00  0.00    +0.065 HD
ATOM     27  H   UNL     1       2.013   9.212  16.878  0.00  0.00    +0.062 HD
BRANCH  18  28
ATOM     28  C   UNL     1       1.142   8.888  21.505  0.00  0.00    -0.039 C 
ATOM     29  H   UNL     1       1.131   8.081  22.244  0.00  0.00    +0.028 HD
ATOM     30  H   UNL     1       0.143   9.329  21.425  0.00  0.00    +0.028 HD
ATOM     31  H   UNL     1       1.805   9.678  21.878  0.00  0.00    +0.028 HD
ENDBRANCH  18  28
ENDBRANCH   1  24
BRANCH   7  32
ATOM     32  N   UNL     1       3.474  14.248  18.592  0.00  0.00    -0.293 N 
ATOM     33  C   UNL     1       3.735  14.502  19.917  0.00  0.00    +0.300 C 
ATOM     34  O   UNL     1       2.899  14.480  20.807  0.00  0.00    -0.253 OA
ATOM     35  N   UNL     1       5.056  14.836  20.094  0.00  0.00    -0.295 N 
ATOM     36  H   UNL     1       4.101  14.727  17.964  0.00  0.00    +0.151 HD
ATOM     37  H   UNL     1       5.681  14.282  19.529  0.00  0.00    +0.151 HD
BRANCH  35  38
ATOM     38  C   UNL     1       5.536  15.189  21.418  0.00  0.00    +0.039 C 
ATOM     39  H   UNL     1       6.150  16.090  21.313  0.00  0.00    +0.051 HD
ATOM     40  H   UNL     1       4.649  15.424  22.016  0.00  0.00    +0.051 HD
BRANCH  38  41
ATOM     41  C   UNL     1       6.311  14.085  22.111  0.00  0.00    -0.018 A 
ATOM     42  C   UNL     1       5.782  13.422  23.238  0.00  0.00    -0.054 A 
ATOM     43  C   UNL     1       6.461  12.355  23.830  0.00  0.00    -0.026 A 
ATOM     44  C   UNL     1       7.679  11.943  23.312  0.00  0.00    +0.124 A 
ATOM     45  F   UNL     1       8.321  10.914  23.878  0.00  0.00    -0.205 F 
ATOM     46  C   UNL     1       8.249  12.594  22.229  0.00  0.00    -0.014 A 
ATOM     47  C   UNL     1       7.582  13.679  21.645  0.00  0.00    +0.044 A 
ATOM     48  H   UNL     1       4.818  13.713  23.650  0.00  0.00    +0.062 HD
ATOM     49  H   UNL     1       6.035  11.833  24.682  0.00  0.00    +0.065 HD
ATOM     50  H   UNL     1       9.211  12.261  21.849  0.00  0.00    +0.065 HD
BRANCH  47  51
ATOM     51  C   UNL     1       8.291  14.362  20.538  0.00  0.00    +0.242 C 
ATOM     52  N   UNL     1       9.299  15.213  20.897  0.00  0.00    -0.325 N 
ATOM     53  O   UNL     1       8.055  14.112  19.364  0.00  0.00    -0.270 OA
ATOM     54  H   UNL     1       9.885  15.524  20.132  0.00  0.00    +0.145 HD
ATOM     55  H   UNL     1       9.733  15.144  21.806  0.00  0.00    +0.145 HD
ENDBRANCH  47  51
ENDBRANCH  38  41
ENDBRANCH  35  38
ENDBRANCH   7  32
TORSDOF 6
ENDMDL
MODEL 29
REMARK VINA RESULT:    -6.095      3.809     10.211
REMARK INTER + INTRA:          -9.274
REMARK INTER:                  -8.563
REMARK INTRA:                  -0.711
REMARK UNBOUND:                -1.219
REMARK  Name = 
REMARK  6 active torsions:
REMARK  status: ('A' for Active; 'I' for Inactive)
REMARK    1  A    between atoms: C_1  and  C_2
REMARK    2  A    between atoms: C_8  and  C_9
REMARK    3  A    between atoms: C_15  and  N_16
REMARK    4  A    between atoms: N_19  and  C_20
REMARK    5  A    between atoms: C_20  and  C_21
REMARK    6  A    between atoms: C_27  and  C_28
REMARK                            x       y       z     vdW  Elec       q    Type
REMARK                         _______ _______ _______ _____ _____    ______ ____
ROOT
ATOM      1  C   UNL     1      -3.328  13.064  20.494  0.00  0.00    -0.017 A 
ATOM      2  C   UNL     1      -4.525  13.650  20.027  0.00  0.00    -0.054 A 
ATOM      3  C   UNL     1      -5.146  13.207  18.854  0.00  0.00    -0.058 A 
ATOM      4  C   UNL     1      -4.548  12.187  18.135  0.00  0.00    -0.042 A 
ATOM      5  C   UNL     1      -3.359  11.598  18.575  0.00  0.00    -0.023 A 
ATOM      6  C   UNL     1      -2.754  12.020  19.752  0.00  0.00    -0.049 A 
ATOM      7  C   UNL     1      -2.933  10.492  17.645  0.00  0.00    +0.050 C 
ATOM      8  C   UNL     1      -3.761  10.835  16.391  0.00  0.00    -0.026 C 
ATOM      9  C   UNL     1      -5.039  11.527  16.886  0.00  0.00    -0.025 C 
ATOM     10  H   UNL     1      -4.989  14.452  20.598  0.00  0.00    +0.062 HD
ATOM     11  H   UNL     1      -6.078  13.656  18.522  0.00  0.00    +0.062 HD
ATOM     12  H   UNL     1      -1.845  11.537  20.101  0.00  0.00    +0.063 HD
ATOM     13  H   UNL     1      -3.237   9.524  18.059  0.00  0.00    +0.055 HD
ATOM     14  H   UNL     1      -3.206  11.532  15.745  0.00  0.00    +0.029 HD
ATOM     15  H   UNL     1      -3.978   9.950  15.784  0.00  0.00    +0.029 HD
ATOM     16  H   UNL     1      -5.413  12.247  16.151  0.00  0.00    +0.031 HD
ATOM     17  H   UNL     1      -5.819  10.797  17.125  0.00  0.00    +0.031 HD
ENDROOT
BRANCH   1  24
ATOM     18  C   UNL     1      -1.568  14.426  21.709  0.00  0.00    -0.040 A 
ATOM     19  C   UNL     1      -1.029  14.880  22.926  0.00  0.00    -0.023 A 
ATOM     20  C   UNL     1      -1.566  14.455  24.134  0.00  0.00    +0.124 A 
ATOM     21  F   UNL     1      -1.035  14.893  25.283  0.00  0.00    -0.205 F 
ATOM     22  C   UNL     1      -2.643  13.584  24.168  0.00  0.00    -0.026 A 
ATOM     23  C   UNL     1      -3.198  13.136  22.970  0.00  0.00    -0.051 A 
ATOM     24  C   UNL     1      -2.680  13.550  21.724  0.00  0.00    -0.015 A 
ATOM     25  H   UNL     1      -0.187  15.567  22.942  0.00  0.00    +0.065 HD
ATOM     26  H   UNL     1      -3.049  13.264  25.122  0.00  0.00    +0.065 HD
ATOM     27  H   UNL     1      -4.053  12.462  23.004  0.00  0.00    +0.062 HD
BRANCH  18  28
ATOM     28  C   UNL     1      -0.957  14.918  20.423  0.00  0.00    -0.039 C 
ATOM     29  H   UNL     1       0.130  14.996  20.523  0.00  0.00    +0.028 HD
ATOM     30  H   UNL     1      -1.373  15.891  20.140  0.00  0.00    +0.028 HD
ATOM     31  H   UNL     1      -1.172  14.232  19.596  0.00  0.00    +0.028 HD
ENDBRANCH  18  28
ENDBRANCH   1  24
BRANCH   7  32
ATOM     32  N   UNL     1      -1.511  10.521  17.366  0.00  0.00    -0.293 N 
ATOM     33  C   UNL     1      -0.630  10.052  18.311  0.00  0.00    +0.300 C 
ATOM     34  O   UNL     1      -0.948   9.421  19.307  0.00  0.00    -0.253 OA
ATOM     35  N   UNL     1       0.654  10.437  18.008  0.00  0.00    -0.295 N 
ATOM     36  H   UNL     1      -1.188  11.354  16.900  0.00  0.00    +0.151 HD
ATOM     37  H   UNL     1       0.859  10.384  17.022  0.00  0.00    +0.151 HD
BRANCH  35  38
ATOM     38  C   UNL     1       1.740  10.086  18.905  0.00  0.00    +0.039 C 
ATOM     39  H   UNL     1       2.637  10.605  18.552  0.00  0.00    +0.051 HD
ATOM     40  H   UNL     1       1.464  10.473  19.892  0.00  0.00    +0.051 HD
BRANCH  38  41
ATOM     41  C   UNL     1       1.989   8.594  19.021  0.00  0.00    -0.018 A 
ATOM     42  C   UNL     1       2.469   7.850  17.923  0.00  0.00    -0.054 A 
ATOM     43  C   UNL     1       2.771   6.492  18.050  0.00  0.00    -0.026 A 
ATOM     44  C   UNL     1       2.588   5.859  19.270  0.00  0.00    +0.124 A 
ATOM     45  F   UNL     1       2.887   4.560  19.389  0.00  0.00    -0.205 F 
ATOM     46  C   UNL     1       2.081   6.548  20.361  0.00  0.00    -0.014 A 
ATOM     47  C   UNL     1       1.757   7.905  20.232  0.00  0.00    +0.044 A 
ATOM     48  H   UNL     1       2.641   8.329  16.962  0.00  0.00    +0.062 HD
ATOM     49  H   UNL     1       3.165   5.932  17.207  0.00  0.00    +0.065 HD
ATOM     50  H   UNL     1       1.935   6.027  21.303  0.00  0.00    +0.065 HD
BRANCH  47  51
ATOM     51  C   UNL     1       1.158   8.548  21.425  0.00  0.00    +0.242 C 
ATOM     52  N   UNL     1      -0.137   8.215  21.708  0.00  0.00    -0.325 N 
ATOM     53  O   UNL     1       1.809   9.267  22.170  0.00  0.00    -0.270 OA
ATOM     54  H   UNL     1      -0.465   8.516  22.617  0.00  0.00    +0.145 HD
ATOM     55  H   UNL     1      -0.546   7.370  21.332  0.00  0.00    +0.145 HD
ENDBRANCH  47  51
ENDBRANCH  38  41
ENDBRANCH  35  38
ENDBRANCH   7  32
TORSDOF 6
ENDMDL
MODEL 30
REMARK VINA RESULT:    -6.025      2.979      4.969
REMARK INTER + INTRA:          -9.180
REMARK INTER:                  -8.715
REMARK INTRA:                  -0.465
REMARK UNBOUND:                -1.219
REMARK  Name = 
REMARK  6 active torsions:
REMARK  status: ('A' for Active; 'I' for Inactive)
REMARK    1  A    between atoms: C_1  and  C_2
REMARK    2  A    between atoms: C_8  and  C_9
REMARK    3  A    between atoms: C_15  and  N_16
REMARK    4  A    between atoms: N_19  and  C_20
REMARK    5  A    between atoms: C_20  and  C_21
REMARK    6  A    between atoms: C_27  and  C_28
REMARK                            x       y       z     vdW  Elec       q    Type
REMARK                         _______ _______ _______ _____ _____    ______ ____
ROOT
ATOM      1  C   UNL     1       3.588   3.939  18.389  0.00  0.00    -0.017 A 
ATOM      2  C   UNL     1       4.307   3.064  17.546  0.00  0.00    -0.054 A 
ATOM      3  C   UNL     1       5.033   3.539  16.448  0.00  0.00    -0.058 A 
ATOM      4  C   UNL     1       5.015   4.897  16.183  0.00  0.00    -0.042 A 
ATOM      5  C   UNL     1       4.304   5.780  17.001  0.00  0.00    -0.023 A 
ATOM      6  C   UNL     1       3.603   5.314  18.105  0.00  0.00    -0.049 A 
ATOM      7  C   UNL     1       4.473   7.202  16.528  0.00  0.00    +0.050 C 
ATOM      8  C   UNL     1       4.975   6.968  15.089  0.00  0.00    -0.026 C 
ATOM      9  C   UNL     1       5.737   5.636  15.101  0.00  0.00    -0.025 C 
ATOM     10  H   UNL     1       4.315   1.997  17.761  0.00  0.00    +0.062 HD
ATOM     11  H   UNL     1       5.596   2.852  15.824  0.00  0.00    +0.062 HD
ATOM     12  H   UNL     1       3.077   6.011  18.751  0.00  0.00    +0.063 HD
ATOM     13  H   UNL     1       5.239   7.702  17.131  0.00  0.00    +0.055 HD
ATOM     14  H   UNL     1       4.124   6.885  14.396  0.00  0.00    +0.029 HD
ATOM     15  H   UNL     1       5.594   7.797  14.728  0.00  0.00    +0.029 HD
ATOM     16  H   UNL     1       5.671   5.130  14.133  0.00  0.00    +0.031 HD
ATOM     17  H   UNL     1       6.787   5.781  15.378  0.00  0.00    +0.031 HD
ENDROOT
BRANCH   1  24
ATOM     18  C   UNL     1       3.387   2.572  20.515  0.00  0.00    -0.040 A 
ATOM     19  C   UNL     1       2.602   2.151  21.603  0.00  0.00    -0.023 A 
ATOM     20  C   UNL     1       1.274   2.545  21.705  0.00  0.00    +0.124 A 
ATOM     21  F   UNL     1       0.540   2.130  22.745  0.00  0.00    -0.205 F 
ATOM     22  C   UNL     1       0.698   3.363  20.746  0.00  0.00    -0.026 A 
ATOM     23  C   UNL     1       1.467   3.800  19.668  0.00  0.00    -0.051 A 
ATOM     24  C   UNL     1       2.820   3.422  19.535  0.00  0.00    -0.015 A 
ATOM     25  H   UNL     1       3.018   1.513  22.377  0.00  0.00    +0.065 HD
ATOM     26  H   UNL     1      -0.341   3.661  20.844  0.00  0.00    +0.065 HD
ATOM     27  H   UNL     1       1.011   4.454  18.926  0.00  0.00    +0.062 HD
BRANCH  18  28
ATOM     28  C   UNL     1       4.823   2.124  20.448  0.00  0.00    -0.039 C 
ATOM     29  H   UNL     1       5.450   2.757  21.084  0.00  0.00    +0.028 HD
ATOM     30  H   UNL     1       5.194   2.153  19.418  0.00  0.00    +0.028 HD
ATOM     31  H   UNL     1       4.931   1.089  20.790  0.00  0.00    +0.028 HD
ENDBRANCH  18  28
ENDBRANCH   1  24
BRANCH   7  32
ATOM     32  N   UNL     1       3.227   7.941  16.542  0.00  0.00    -0.293 N 
ATOM     33  C   UNL     1       2.766   8.461  17.727  0.00  0.00    +0.300 C 
ATOM     34  O   UNL     1       3.418   8.528  18.758  0.00  0.00    -0.253 OA
ATOM     35  N   UNL     1       1.453   8.848  17.608  0.00  0.00    -0.295 N 
ATOM     36  H   UNL     1       2.496   7.548  15.969  0.00  0.00    +0.151 HD
ATOM     37  H   UNL     1       1.251   9.289  16.723  0.00  0.00    +0.151 HD
BRANCH  35  38
ATOM     38  C   UNL     1       0.754   9.384  18.762  0.00  0.00    +0.039 C 
ATOM     39  H   UNL     1       0.560   8.550  19.443  0.00  0.00    +0.051 HD
ATOM     40  H   UNL     1       1.442  10.089  19.241  0.00  0.00    +0.051 HD
BRANCH  38  41
ATOM     41  C   UNL     1      -0.531  10.116  18.423  0.00  0.00    -0.018 A 
ATOM     42  C   UNL     1      -1.330   9.714  17.332  0.00  0.00    -0.054 A 
ATOM     43  C   UNL     1      -2.551  10.338  17.065  0.00  0.00    -0.026 A 
ATOM     44  C   UNL     1      -2.984  11.375  17.876  0.00  0.00    +0.124 A 
ATOM     45  F   UNL     1      -4.158  11.965  17.621  0.00  0.00    -0.205 F 
ATOM     46  C   UNL     1      -2.207  11.825  18.934  0.00  0.00    -0.014 A 
ATOM     47  C   UNL     1      -0.972  11.215  19.192  0.00  0.00    +0.044 A 
ATOM     48  H   UNL     1      -1.023   8.888  16.694  0.00  0.00    +0.062 HD
ATOM     49  H   UNL     1      -3.173  10.005  16.239  0.00  0.00    +0.065 HD
ATOM     50  H   UNL     1      -2.562  12.648  19.547  0.00  0.00    +0.065 HD
BRANCH  47  51
ATOM     51  C   UNL     1      -0.175  11.799  20.296  0.00  0.00    +0.242 C 
ATOM     52  N   UNL     1      -0.409  11.296  21.545  0.00  0.00    -0.325 N 
ATOM     53  O   UNL     1       0.708  12.620  20.094  0.00  0.00    -0.270 OA
ATOM     54  H   UNL     1       0.265  11.573  22.249  0.00  0.00    +0.145 HD
ATOM     55  H   UNL     1      -0.849  10.394  21.664  0.00  0.00    +0.145 HD
ENDBRANCH  47  51
ENDBRANCH  38  41
ENDBRANCH  35  38
ENDBRANCH   7  32
TORSDOF 6
ENDMDL
MODEL 31
REMARK VINA RESULT:    -5.886      6.779     10.645
REMARK INTER + INTRA:          -8.997
REMARK INTER:                  -7.778
REMARK INTRA:                  -1.219
REMARK UNBOUND:                -1.219
REMARK  Name = 
REMARK  6 active torsions:
REMARK  status: ('A' for Active; 'I' for Inactive)
REMARK    1  A    between atoms: C_1  and  C_2
REMARK    2  A    between atoms: C_8  and  C_9
REMARK    3  A    between atoms: C_15  and  N_16
REMARK    4  A    between atoms: N_19  and  C_20
REMARK    5  A    between atoms: C_20  and  C_21
REMARK    6  A    between atoms: C_27  and  C_28
REMARK                            x       y       z     vdW  Elec       q    Type
REMARK                         _______ _______ _______ _____ _____    ______ ____
ROOT
ATOM      1  C   UNL     1       8.510  12.611  21.454  0.00  0.00    -0.017 A 
ATOM      2  C   UNL     1       9.285  13.646  20.886  0.00  0.00    -0.054 A 
ATOM      3  C   UNL     1       9.765  13.563  19.574  0.00  0.00    -0.058 A 
ATOM      4  C   UNL     1       9.485  12.425  18.840  0.00  0.00    -0.042 A 
ATOM      5  C   UNL     1       8.725  11.386  19.385  0.00  0.00    -0.023 A 
ATOM      6  C   UNL     1       8.227  11.476  20.678  0.00  0.00    -0.049 A 
ATOM      7  C   UNL     1       8.527  10.281  18.379  0.00  0.00    +0.050 C 
ATOM      8  C   UNL     1       9.647  10.607  17.370  0.00  0.00    -0.026 C 
ATOM      9  C   UNL     1       9.853  12.127  17.420  0.00  0.00    -0.025 C 
ATOM     10  H   UNL     1       9.502  14.538  21.471  0.00  0.00    +0.062 HD
ATOM     11  H   UNL     1      10.342  14.378  19.148  0.00  0.00    +0.062 HD
ATOM     12  H   UNL     1       7.614  10.676  21.084  0.00  0.00    +0.063 HD
ATOM     13  H   UNL     1       7.541  10.381  17.911  0.00  0.00    +0.055 HD
ATOM     14  H   UNL     1      10.583  10.111  17.665  0.00  0.00    +0.029 HD
ATOM     15  H   UNL     1       9.409  10.254  16.361  0.00  0.00    +0.029 HD
ATOM     16  H   UNL     1      10.889  12.397  17.192  0.00  0.00    +0.031 HD
ATOM     17  H   UNL     1       9.171  12.644  16.737  0.00  0.00    +0.031 HD
ENDROOT
BRANCH   1  24
ATOM     18  C   UNL     1       6.971  13.578  23.222  0.00  0.00    -0.040 A 
ATOM     19  C   UNL     1       6.531  13.587  24.557  0.00  0.00    -0.023 A 
ATOM     20  C   UNL     1       7.137  12.767  25.502  0.00  0.00    +0.124 A 
ATOM     21  F   UNL     1       6.708  12.793  26.770  0.00  0.00    -0.205 F 
ATOM     22  C   UNL     1       8.177  11.922  25.149  0.00  0.00    -0.026 A 
ATOM     23  C   UNL     1       8.616  11.892  23.826  0.00  0.00    -0.051 A 
ATOM     24  C   UNL     1       8.022  12.709  22.841  0.00  0.00    -0.015 A 
ATOM     25  H   UNL     1       5.716  14.231  24.872  0.00  0.00    +0.065 HD
ATOM     26  H   UNL     1       8.636  11.289  25.901  0.00  0.00    +0.065 HD
ATOM     27  H   UNL     1       9.425  11.216  23.554  0.00  0.00    +0.062 HD
BRANCH  18  28
ATOM     28  C   UNL     1       6.283  14.480  22.232  0.00  0.00    -0.039 C 
ATOM     29  H   UNL     1       5.667  15.219  22.754  0.00  0.00    +0.028 HD
ATOM     30  H   UNL     1       5.659  13.900  21.543  0.00  0.00    +0.028 HD
ATOM     31  H   UNL     1       7.011  15.021  21.617  0.00  0.00    +0.028 HD
ENDBRANCH  18  28
ENDBRANCH   1  24
BRANCH   7  32
ATOM     32  N   UNL     1       8.704   8.965  18.960  0.00  0.00    -0.293 N 
ATOM     33  C   UNL     1       8.284   7.859  18.261  0.00  0.00    +0.300 C 
ATOM     34  O   UNL     1       7.946   7.865  17.087  0.00  0.00    -0.253 OA
ATOM     35  N   UNL     1       8.247   6.755  19.079  0.00  0.00    -0.295 N 
ATOM     36  H   UNL     1       8.509   8.909  19.947  0.00  0.00    +0.151 HD
ATOM     37  H   UNL     1       9.027   6.713  19.717  0.00  0.00    +0.151 HD
BRANCH  35  38
ATOM     38  C   UNL     1       7.785   5.485  18.550  0.00  0.00    +0.039 C 
ATOM     39  H   UNL     1       8.244   5.354  17.564  0.00  0.00    +0.051 HD
ATOM     40  H   UNL     1       8.161   4.711  19.228  0.00  0.00    +0.051 HD
BRANCH  38  41
ATOM     41  C   UNL     1       6.275   5.363  18.463  0.00  0.00    -0.018 A 
ATOM     42  C   UNL     1       5.467   5.513  19.609  0.00  0.00    -0.054 A 
ATOM     43  C   UNL     1       4.074   5.477  19.518  0.00  0.00    -0.026 A 
ATOM     44  C   UNL     1       3.471   5.280  18.285  0.00  0.00    +0.124 A 
ATOM     45  F   UNL     1       2.136   5.255  18.201  0.00  0.00    -0.205 F 
ATOM     46  C   UNL     1       4.233   5.090  17.142  0.00  0.00    -0.014 A 
ATOM     47  C   UNL     1       5.631   5.104  17.233  0.00  0.00    +0.044 A 
ATOM     48  H   UNL     1       5.915   5.690  20.585  0.00  0.00    +0.062 HD
ATOM     49  H   UNL     1       3.457   5.619  20.401  0.00  0.00    +0.065 HD
ATOM     50  H   UNL     1       3.738   4.924  16.189  0.00  0.00    +0.065 HD
BRANCH  47  51
ATOM     51  C   UNL     1       6.369   4.825  15.979  0.00  0.00    +0.242 C 
ATOM     52  N   UNL     1       6.616   5.897  15.168  0.00  0.00    -0.325 N 
ATOM     53  O   UNL     1       6.815   3.715  15.722  0.00  0.00    -0.270 OA
ATOM     54  H   UNL     1       7.272   5.721  14.417  0.00  0.00    +0.145 HD
ATOM     55  H   UNL     1       6.583   6.838  15.534  0.00  0.00    +0.145 HD
ENDBRANCH  47  51
ENDBRANCH  38  41
ENDBRANCH  35  38
ENDBRANCH   7  32
TORSDOF 6
ENDMDL
MODEL 32
REMARK VINA RESULT:    -5.708      6.916      9.581
REMARK INTER + INTRA:          -8.762
REMARK INTER:                  -7.678
REMARK INTRA:                  -1.084
REMARK UNBOUND:                -1.219
REMARK  Name = 
REMARK  6 active torsions:
REMARK  status: ('A' for Active; 'I' for Inactive)
REMARK    1  A    between atoms: C_1  and  C_2
REMARK    2  A    between atoms: C_8  and  C_9
REMARK    3  A    between atoms: C_15  and  N_16
REMARK    4  A    between atoms: N_19  and  C_20
REMARK    5  A    between atoms: C_20  and  C_21
REMARK    6  A    between atoms: C_27  and  C_28
REMARK                            x       y       z     vdW  Elec       q    Type
REMARK                         _______ _______ _______ _____ _____    ______ ____
ROOT
ATOM      1  C   UNL     1       6.684  14.551  21.648  0.00  0.00    -0.017 A 
ATOM      2  C   UNL     1       7.512  14.984  20.589  0.00  0.00    -0.054 A 
ATOM      3  C   UNL     1       6.995  15.236  19.314  0.00  0.00    -0.058 A 
ATOM      4  C   UNL     1       5.644  15.030  19.097  0.00  0.00    -0.042 A 
ATOM      5  C   UNL     1       4.808  14.596  20.129  0.00  0.00    -0.023 A 
ATOM      6  C   UNL     1       5.314  14.368  21.402  0.00  0.00    -0.049 A 
ATOM      7  C   UNL     1       3.382  14.484  19.653  0.00  0.00    +0.050 C 
ATOM      8  C   UNL     1       3.590  14.457  18.126  0.00  0.00    -0.026 C 
ATOM      9  C   UNL     1       4.864  15.267  17.843  0.00  0.00    -0.025 C 
ATOM     10  H   UNL     1       8.575  15.142  20.768  0.00  0.00    +0.062 HD
ATOM     11  H   UNL     1       7.645  15.588  18.518  0.00  0.00    +0.062 HD
ATOM     12  H   UNL     1       4.652  14.057  22.206  0.00  0.00    +0.063 HD
ATOM     13  H   UNL     1       2.822  15.377  19.953  0.00  0.00    +0.055 HD
ATOM     14  H   UNL     1       3.740  13.424  17.779  0.00  0.00    +0.029 HD
ATOM     15  H   UNL     1       2.722  14.847  17.584  0.00  0.00    +0.029 HD
ATOM     16  H   UNL     1       5.382  14.897  16.952  0.00  0.00    +0.031 HD
ATOM     17  H   UNL     1       4.641  16.332  17.731  0.00  0.00    +0.031 HD
ENDROOT
BRANCH   1  24
ATOM     18  C   UNL     1       7.924  13.075  23.296  0.00  0.00    -0.040 A 
ATOM     19  C   UNL     1       8.469  12.904  24.580  0.00  0.00    -0.023 A 
ATOM     20  C   UNL     1       8.326  13.895  25.543  0.00  0.00    +0.124 A 
ATOM     21  F   UNL     1       8.848  13.711  26.762  0.00  0.00    -0.205 F 
ATOM     22  C   UNL     1       7.652  15.072  25.258  0.00  0.00    -0.026 A 
ATOM     23  C   UNL     1       7.117  15.263  23.985  0.00  0.00    -0.051 A 
ATOM     24  C   UNL     1       7.246  14.278  22.982  0.00  0.00    -0.015 A 
ATOM     25  H   UNL     1       9.009  11.997  24.841  0.00  0.00    +0.065 HD
ATOM     26  H   UNL     1       7.552  15.834  26.023  0.00  0.00    +0.065 HD
ATOM     27  H   UNL     1       6.601  16.196  23.765  0.00  0.00    +0.062 HD
BRANCH  18  28
ATOM     28  C   UNL     1       8.107  11.976  22.283  0.00  0.00    -0.039 C 
ATOM     29  H   UNL     1       8.963  12.192  21.637  0.00  0.00    +0.028 HD
ATOM     30  H   UNL     1       7.206  11.851  21.673  0.00  0.00    +0.028 HD
ATOM     31  H   UNL     1       8.290  11.013  22.774  0.00  0.00    +0.028 HD
ENDBRANCH  18  28
ENDBRANCH   1  24
BRANCH   7  32
ATOM     32  N   UNL     1       2.735  13.276  20.122  0.00  0.00    -0.293 N 
ATOM     33  C   UNL     1       1.363  13.218  20.160  0.00  0.00    +0.300 C 
ATOM     34  O   UNL     1       0.618  14.036  19.643  0.00  0.00    -0.253 OA
ATOM     35  N   UNL     1       0.944  12.142  20.905  0.00  0.00    -0.295 N 
ATOM     36  H   UNL     1       3.174  12.843  20.920  0.00  0.00    +0.151 HD
ATOM     37  H   UNL     1       1.503  11.317  20.754  0.00  0.00    +0.151 HD
BRANCH  35  38
ATOM     38  C   UNL     1      -0.475  11.922  21.114  0.00  0.00    +0.039 C 
ATOM     39  H   UNL     1      -0.578  11.195  21.927  0.00  0.00    +0.051 HD
ATOM     40  H   UNL     1      -0.895  12.882  21.433  0.00  0.00    +0.051 HD
BRANCH  38  41
ATOM     41  C   UNL     1      -1.218  11.455  19.876  0.00  0.00    -0.018 A 
ATOM     42  C   UNL     1      -0.669  10.472  19.027  0.00  0.00    -0.054 A 
ATOM     43  C   UNL     1      -1.384   9.987  17.930  0.00  0.00    -0.026 A 
ATOM     44  C   UNL     1      -2.650  10.484  17.661  0.00  0.00    +0.124 A 
ATOM     45  F   UNL     1      -3.335  10.010  16.613  0.00  0.00    -0.205 F 
ATOM     46  C   UNL     1      -3.207  11.479  18.450  0.00  0.00    -0.014 A 
ATOM     47  C   UNL     1      -2.484  11.983  19.539  0.00  0.00    +0.044 A 
ATOM     48  H   UNL     1       0.313  10.050  19.229  0.00  0.00    +0.062 HD
ATOM     49  H   UNL     1      -0.966   9.210  17.295  0.00  0.00    +0.065 HD
ATOM     50  H   UNL     1      -4.196  11.862  18.211  0.00  0.00    +0.065 HD
BRANCH  47  51
ATOM     51  C   UNL     1      -3.121  13.091  20.288  0.00  0.00    +0.242 C 
ATOM     52  N   UNL     1      -2.564  14.329  20.132  0.00  0.00    -0.325 N 
ATOM     53  O   UNL     1      -4.145  12.930  20.938  0.00  0.00    -0.270 OA
ATOM     54  H   UNL     1      -3.116  15.094  20.499  0.00  0.00    +0.145 HD
ATOM     55  H   UNL     1      -1.974  14.533  19.337  0.00  0.00    +0.145 HD
ENDBRANCH  47  51
ENDBRANCH  38  41
ENDBRANCH  35  38
ENDBRANCH   7  32
TORSDOF 6
ENDMDL
