MODEL 1
REMARK VINA RESULT:    -8.859      0.000      0.000
REMARK INTER + INTRA:         -11.526
REMARK INTER:                 -11.313
REMARK INTRA:                  -0.212
REMARK UNBOUND:                 0.182
REMARK  Name = 
REMARK  6 active torsions:
REMARK  status: ('A' for Active; 'I' for Inactive)
REMARK    1  A    between atoms: C_1  and  N_2
REMARK    2  A    between atoms: C_6  and  C_7
REMARK    3  A    between atoms: C_9  and  C_10
REMARK    4  A    between atoms: C_12  and  N_16
REMARK    5  A    between atoms: C_17  and  C_19
REMARK    6  A    between atoms: C_22  and  C_28
REMARK                            x       y       z     vdW  Elec       q    Type
REMARK                         _______ _______ _______ _____ _____    ______ ____
ROOT
ATOM      1  C   UNL     1      -0.447  10.451  20.416  0.00  0.00    -0.042 A 
ATOM      2  C   UNL     1       0.401   9.554  19.752  0.00  0.00    -0.037 A 
ATOM      3  C   UNL     1       1.275   8.701  20.439  0.00  0.00    +0.034 A 
ATOM      4  C   UNL     1       1.319   8.740  21.832  0.00  0.00    -0.040 A 
ATOM      5  C   UNL     1       0.453   9.572  22.521  0.00  0.00    -0.060 A 
ATOM      6  C   UNL     1      -0.423  10.412  21.817  0.00  0.00    -0.058 A 
ATOM      7  H   UNL     1       0.398   9.579  18.664  0.00  0.00    +0.064 HD
ATOM      8  H   UNL     1       2.007   8.109  22.398  0.00  0.00    +0.064 HD
ATOM      9  H   UNL     1       0.477   9.590  23.623  0.00  0.00    +0.062 HD
ATOM     10  H   UNL     1      -1.066  11.075  22.410  0.00  0.00    +0.062 HD
ENDROOT
BRANCH   1  13
ATOM     11  C   UNL     1      -2.801  11.404  19.642  0.00  0.00    +0.026 C 
ATOM     12  C   UNL     1      -2.038  12.550  20.277  0.00  0.00    -0.035 C 
ATOM     13  C   UNL     1      -1.280  11.425  19.601  0.00  0.00    -0.005 C 
ATOM     14  H   UNL     1      -3.280  10.705  20.341  0.00  0.00    +0.039 HD
ATOM     15  H   UNL     1      -2.083  12.623  21.349  0.00  0.00    +0.028 HD
ATOM     16  H   UNL     1      -1.987  13.527  19.820  0.00  0.00    +0.028 HD
ATOM     17  H   UNL     1      -0.843  11.677  18.631  0.00  0.00    +0.036 HD
BRANCH  11  22
ATOM     18  N   UNL     1      -3.319  10.905  17.078  0.00  0.00    -0.320 N 
ATOM     19  C   UNL     1      -4.336  11.272  16.255  0.00  0.00    +0.120 A 
ATOM     20  N   UNL     1      -5.147  12.078  16.893  0.00  0.00    -0.138 NA
ATOM     21  N   UNL     1      -4.658  12.231  18.164  0.00  0.00    -0.134 NA
ATOM     22  C   UNL     1      -3.562  11.506  18.279  0.00  0.00    +0.137 A 
ATOM     23  H   UNL     1      -4.441  10.937  15.238  0.00  0.00    +0.105 HD
BRANCH  18  24
ATOM     24  C   UNL     1      -2.252  10.022  16.691  0.00  0.00    +0.014 C 
ATOM     25  H   UNL     1      -1.393  10.612  16.373  0.00  0.00    +0.046 HD
ATOM     26  H   UNL     1      -1.965   9.407  17.547  0.00  0.00    +0.046 HD
ATOM     27  H   UNL     1      -2.600   9.362  15.898  0.00  0.00    +0.046 HD
ENDBRANCH  18  24
ENDBRANCH  11  22
ENDBRANCH   1  13
BRANCH   3  28
ATOM     28  N   UNL     1       2.154   7.823  19.792  0.00  0.00    -0.279 N 
ATOM     29  C   UNL     1       2.196   6.451  19.939  0.00  0.00    +0.284 C 
ATOM     30  O   UNL     1       1.517   5.798  20.714  0.00  0.00    -0.267 OA
ATOM     31  H   UNL     1       2.864   8.192  19.197  0.00  0.00    +0.155 HD
BRANCH  29  32
ATOM     32  C   UNL     1       3.203   5.829  19.109  0.00  0.00    +0.195 A 
ATOM     33  N   UNL     1       4.498   5.864  19.312  0.00  0.00    -0.223 NA
ATOM     34  C   UNL     1       5.077   5.231  18.235  0.00  0.00    +0.100 A 
ATOM     35  C   UNL     1       6.437   5.038  17.931  0.00  0.00    +0.064 A 
ATOM     36  C   UNL     1       6.732   4.356  16.724  0.00  0.00    -0.049 A 
ATOM     37  C   UNL     1       5.722   3.847  15.890  0.00  0.00    -0.059 A 
ATOM     38  C   UNL     1       4.376   4.025  16.208  0.00  0.00    -0.036 A 
ATOM     39  C   UNL     1       4.096   4.742  17.377  0.00  0.00    +0.067 A 
ATOM     40  N   UNL     1       2.916   5.168  17.934  0.00  0.00    -0.334 N 
ATOM     41  H   UNL     1       7.775   4.212  16.429  0.00  0.00    +0.062 HD
ATOM     42  H   UNL     1       5.994   3.328  14.966  0.00  0.00    +0.062 HD
ATOM     43  H   UNL     1       3.588   3.651  15.550  0.00  0.00    +0.064 HD
ATOM     44  H   UNL     1       1.987   5.027  17.563  0.00  0.00    +0.168 HD
BRANCH  35  45
ATOM     45  C   UNL     1       7.537   5.591  18.788  0.00  0.00    +0.351 C 
ATOM     46  F   UNL     1       8.656   4.815  18.778  0.00  0.00    -0.182 F 
ATOM     47  F   UNL     1       7.183   5.666  20.093  0.00  0.00    -0.182 F 
ATOM     48 CL   UNL     1       7.986   7.245  18.302  0.00  0.00    -0.042 Cl
ENDBRANCH  35  45
ENDBRANCH  29  32
ENDBRANCH   3  28
TORSDOF 6
ENDMDL
MODEL 2
REMARK VINA RESULT:    -8.607      4.072      9.621
REMARK INTER + INTRA:         -11.193
REMARK INTER:                 -11.385
REMARK INTRA:                   0.192
REMARK UNBOUND:                 0.182
REMARK  Name = 
REMARK  6 active torsions:
REMARK  status: ('A' for Active; 'I' for Inactive)
REMARK    1  A    between atoms: C_1  and  N_2
REMARK    2  A    between atoms: C_6  and  C_7
REMARK    3  A    between atoms: C_9  and  C_10
REMARK    4  A    between atoms: C_12  and  N_16
REMARK    5  A    between atoms: C_17  and  C_19
REMARK    6  A    between atoms: C_22  and  C_28
REMARK                            x       y       z     vdW  Elec       q    Type
REMARK                         _______ _______ _______ _____ _____    ______ ____
ROOT
ATOM      1  C   UNL     1       4.446   3.723  17.179  0.00  0.00    -0.042 A 
ATOM      2  C   UNL     1       3.922   4.976  17.524  0.00  0.00    -0.037 A 
ATOM      3  C   UNL     1       2.779   5.116  18.323  0.00  0.00    +0.034 A 
ATOM      4  C   UNL     1       2.126   3.977  18.793  0.00  0.00    -0.040 A 
ATOM      5  C   UNL     1       2.652   2.725  18.519  0.00  0.00    -0.060 A 
ATOM      6  C   UNL     1       3.801   2.604  17.726  0.00  0.00    -0.058 A 
ATOM      7  H   UNL     1       4.408   5.852  17.100  0.00  0.00    +0.064 HD
ATOM      8  H   UNL     1       1.218   4.048  19.395  0.00  0.00    +0.064 HD
ATOM      9  H   UNL     1       2.143   1.826  18.905  0.00  0.00    +0.062 HD
ATOM     10  H   UNL     1       4.158   1.589  17.512  0.00  0.00    +0.062 HD
ENDROOT
BRANCH   1  13
ATOM     11  C   UNL     1       5.828   4.699  15.133  0.00  0.00    +0.026 C 
ATOM     12  C   UNL     1       6.769   4.626  16.319  0.00  0.00    -0.035 C 
ATOM     13  C   UNL     1       5.616   3.649  16.213  0.00  0.00    -0.005 C 
ATOM     14  H   UNL     1       5.143   5.559  15.120  0.00  0.00    +0.039 HD
ATOM     15  H   UNL     1       6.737   5.449  17.010  0.00  0.00    +0.028 HD
ATOM     16  H   UNL     1       7.768   4.226  16.232  0.00  0.00    +0.028 HD
ATOM     17  H   UNL     1       5.895   2.630  15.934  0.00  0.00    +0.036 HD
BRANCH  11  22
ATOM     18  N   UNL     1       7.208   4.546  12.861  0.00  0.00    -0.320 N 
ATOM     19  C   UNL     1       7.102   3.744  11.770  0.00  0.00    +0.120 A 
ATOM     20  N   UNL     1       6.058   2.963  11.900  0.00  0.00    -0.138 NA
ATOM     21  N   UNL     1       5.478   3.251  13.108  0.00  0.00    -0.134 NA
ATOM     22  C   UNL     1       6.186   4.197  13.695  0.00  0.00    +0.137 A 
ATOM     23  H   UNL     1       7.783   3.761  10.938  0.00  0.00    +0.105 HD
BRANCH  18  24
ATOM     24  C   UNL     1       8.248   5.524  13.040  0.00  0.00    +0.014 C 
ATOM     25  H   UNL     1       9.097   5.058  13.540  0.00  0.00    +0.046 HD
ATOM     26  H   UNL     1       8.567   5.893  12.063  0.00  0.00    +0.046 HD
ATOM     27  H   UNL     1       7.858   6.364  13.612  0.00  0.00    +0.046 HD
ENDBRANCH  18  24
ENDBRANCH  11  22
ENDBRANCH   1  13
BRANCH   3  28
ATOM     28  N   UNL     1       2.221   6.358  18.651  0.00  0.00    -0.279 N 
ATOM     29  C   UNL     1       2.601   7.586  18.145  0.00  0.00    +0.284 C 
ATOM     30  O   UNL     1       3.534   7.783  17.385  0.00  0.00    -0.267 OA
ATOM     31  H   UNL     1       1.512   6.406  19.349  0.00  0.00    +0.155 HD
BRANCH  29  32
ATOM     32  C   UNL     1       1.808   8.676  18.665  0.00  0.00    +0.195 A 
ATOM     33  N   UNL     1       1.343   8.776  19.887  0.00  0.00    -0.223 NA
ATOM     34  C   UNL     1       0.568   9.914  19.915  0.00  0.00    +0.100 A 
ATOM     35  C   UNL     1      -0.198  10.453  20.965  0.00  0.00    +0.064 A 
ATOM     36  C   UNL     1      -0.915  11.644  20.687  0.00  0.00    -0.049 A 
ATOM     37  C   UNL     1      -0.830  12.291  19.444  0.00  0.00    -0.059 A 
ATOM     38  C   UNL     1      -0.053  11.761  18.414  0.00  0.00    -0.036 A 
ATOM     39  C   UNL     1       0.612  10.560  18.683  0.00  0.00    +0.067 A 
ATOM     40  N   UNL     1       1.374   9.734  17.895  0.00  0.00    -0.334 N 
ATOM     41  H   UNL     1      -1.551  12.081  21.462  0.00  0.00    +0.062 HD
ATOM     42  H   UNL     1      -1.402  13.208  19.270  0.00  0.00    +0.062 HD
ATOM     43  H   UNL     1      -0.003  12.250  17.438  0.00  0.00    +0.064 HD
ATOM     44  H   UNL     1       1.594   9.865  16.918  0.00  0.00    +0.168 HD
BRANCH  35  45
ATOM     45  C   UNL     1      -0.328   9.772  22.296  0.00  0.00    +0.351 C 
ATOM     46  F   UNL     1       0.870   9.594  22.917  0.00  0.00    -0.182 F 
ATOM     47  F   UNL     1      -0.847   8.526  22.187  0.00  0.00    -0.182 F 
ATOM     48 CL   UNL     1      -1.413  10.665  23.392  0.00  0.00    -0.042 Cl
ENDBRANCH  35  45
ENDBRANCH  29  32
ENDBRANCH   3  28
TORSDOF 6
ENDMDL
MODEL 3
REMARK VINA RESULT:    -8.572      3.508      4.701
REMARK INTER + INTRA:         -11.147
REMARK INTER:                 -10.401
REMARK INTRA:                  -0.746
REMARK UNBOUND:                 0.182
REMARK  Name = 
REMARK  6 active torsions:
REMARK  status: ('A' for Active; 'I' for Inactive)
REMARK    1  A    between atoms: C_1  and  N_2
REMARK    2  A    between atoms: C_6  and  C_7
REMARK    3  A    between atoms: C_9  and  C_10
REMARK    4  A    between atoms: C_12  and  N_16
REMARK    5  A    between atoms: C_17  and  C_19
REMARK    6  A    between atoms: C_22  and  C_28
REMARK                            x       y       z     vdW  Elec       q    Type
REMARK                         _______ _______ _______ _____ _____    ______ ____
ROOT
ATOM      1  C   UNL     1      -1.266  11.838  20.388  0.00  0.00    -0.042 A 
ATOM      2  C   UNL     1      -0.351  10.786  20.241  0.00  0.00    -0.037 A 
ATOM      3  C   UNL     1      -0.230  10.061  19.047  0.00  0.00    +0.034 A 
ATOM      4  C   UNL     1      -1.044  10.382  17.963  0.00  0.00    -0.040 A 
ATOM      5  C   UNL     1      -1.916  11.454  18.056  0.00  0.00    -0.060 A 
ATOM      6  C   UNL     1      -2.018  12.174  19.255  0.00  0.00    -0.058 A 
ATOM      7  H   UNL     1       0.234  10.509  21.116  0.00  0.00    +0.064 HD
ATOM      8  H   UNL     1      -0.995   9.822  17.027  0.00  0.00    +0.064 HD
ATOM      9  H   UNL     1      -2.549  11.717  17.192  0.00  0.00    +0.062 HD
ATOM     10  H   UNL     1      -2.748  12.994  19.286  0.00  0.00    +0.062 HD
ENDROOT
BRANCH   1  13
ATOM     11  C   UNL     1      -2.672  12.297  22.594  0.00  0.00    +0.026 C 
ATOM     12  C   UNL     1      -1.355  11.677  23.019  0.00  0.00    -0.035 C 
ATOM     13  C   UNL     1      -1.423  12.498  21.748  0.00  0.00    -0.005 C 
ATOM     14  H   UNL     1      -3.430  11.595  22.220  0.00  0.00    +0.039 HD
ATOM     15  H   UNL     1      -1.295  10.604  22.984  0.00  0.00    +0.028 HD
ATOM     16  H   UNL     1      -0.773  12.076  23.836  0.00  0.00    +0.028 HD
ATOM     17  H   UNL     1      -0.971  13.491  21.811  0.00  0.00    +0.036 HD
BRANCH  11  22
ATOM     18  N   UNL     1      -4.328  14.366  22.854  0.00  0.00    -0.320 N 
ATOM     19  C   UNL     1      -4.526  15.267  23.851  0.00  0.00    +0.120 A 
ATOM     20  N   UNL     1      -3.658  15.059  24.810  0.00  0.00    -0.138 NA
ATOM     21  N   UNL     1      -2.885  13.990  24.438  0.00  0.00    -0.134 NA
ATOM     22  C   UNL     1      -3.303  13.562  23.263  0.00  0.00    +0.137 A 
ATOM     23  H   UNL     1      -5.288  16.026  23.836  0.00  0.00    +0.105 HD
BRANCH  18  24
ATOM     24  C   UNL     1      -5.112  14.314  21.650  0.00  0.00    +0.014 C 
ATOM     25  H   UNL     1      -5.492  13.303  21.511  0.00  0.00    +0.046 HD
ATOM     26  H   UNL     1      -5.955  15.004  21.740  0.00  0.00    +0.046 HD
ATOM     27  H   UNL     1      -4.500  14.631  20.807  0.00  0.00    +0.046 HD
ENDBRANCH  18  24
ENDBRANCH  11  22
ENDBRANCH   1  13
BRANCH   3  28
ATOM     28  N   UNL     1       0.654   8.985  18.892  0.00  0.00    -0.279 N 
ATOM     29  C   UNL     1       1.896   9.026  18.290  0.00  0.00    +0.284 C 
ATOM     30  O   UNL     1       2.386   9.995  17.735  0.00  0.00    -0.267 OA
ATOM     31  H   UNL     1       0.373   8.076  19.188  0.00  0.00    +0.155 HD
BRANCH  29  32
ATOM     32  C   UNL     1       2.572   7.749  18.314  0.00  0.00    +0.195 A 
ATOM     33  N   UNL     1       2.268   6.730  19.082  0.00  0.00    -0.223 NA
ATOM     34  C   UNL     1       3.224   5.767  18.845  0.00  0.00    +0.100 A 
ATOM     35  C   UNL     1       3.393   4.504  19.442  0.00  0.00    +0.064 A 
ATOM     36  C   UNL     1       4.496   3.731  19.000  0.00  0.00    -0.049 A 
ATOM     37  C   UNL     1       5.354   4.173  17.979  0.00  0.00    -0.059 A 
ATOM     38  C   UNL     1       5.169   5.418  17.379  0.00  0.00    -0.036 A 
ATOM     39  C   UNL     1       4.106   6.193  17.857  0.00  0.00    +0.067 A 
ATOM     40  N   UNL     1       3.694   7.469  17.563  0.00  0.00    -0.334 N 
ATOM     41  H   UNL     1       4.688   2.757  19.459  0.00  0.00    +0.062 HD
ATOM     42  H   UNL     1       6.195   3.545  17.670  0.00  0.00    +0.062 HD
ATOM     43  H   UNL     1       5.847   5.774  16.601  0.00  0.00    +0.064 HD
ATOM     44  H   UNL     1       4.124   8.107  16.908  0.00  0.00    +0.168 HD
BRANCH  35  45
ATOM     45  C   UNL     1       2.509   4.015  20.551  0.00  0.00    +0.351 C 
ATOM     46  F   UNL     1       2.378   4.919  21.560  0.00  0.00    -0.182 F 
ATOM     47  F   UNL     1       3.000   2.902  21.148  0.00  0.00    -0.182 F 
ATOM     48 CL   UNL     1       0.885   3.582  19.958  0.00  0.00    -0.042 Cl
ENDBRANCH  35  45
ENDBRANCH  29  32
ENDBRANCH   3  28
TORSDOF 6
ENDMDL
MODEL 4
REMARK VINA RESULT:    -8.442      4.446      5.967
REMARK INTER + INTRA:         -10.974
REMARK INTER:                 -10.666
REMARK INTRA:                  -0.309
REMARK UNBOUND:                 0.182
REMARK  Name = 
REMARK  6 active torsions:
REMARK  status: ('A' for Active; 'I' for Inactive)
REMARK    1  A    between atoms: C_1  and  N_2
REMARK    2  A    between atoms: C_6  and  C_7
REMARK    3  A    between atoms: C_9  and  C_10
REMARK    4  A    between atoms: C_12  and  N_16
REMARK    5  A    between atoms: C_17  and  C_19
REMARK    6  A    between atoms: C_22  and  C_28
REMARK                            x       y       z     vdW  Elec       q    Type
REMARK                         _______ _______ _______ _____ _____    ______ ____
ROOT
ATOM      1  C   UNL     1       1.042  12.653  19.009  0.00  0.00    -0.042 A 
ATOM      2  C   UNL     1       1.501  11.344  19.212  0.00  0.00    -0.037 A 
ATOM      3  C   UNL     1       0.676  10.225  19.034  0.00  0.00    +0.034 A 
ATOM      4  C   UNL     1      -0.651  10.406  18.648  0.00  0.00    -0.040 A 
ATOM      5  C   UNL     1      -1.120  11.682  18.382  0.00  0.00    -0.060 A 
ATOM      6  C   UNL     1      -0.277  12.789  18.557  0.00  0.00    -0.058 A 
ATOM      7  H   UNL     1       2.521  11.224  19.571  0.00  0.00    +0.064 HD
ATOM      8  H   UNL     1      -1.330   9.559  18.526  0.00  0.00    +0.064 HD
ATOM      9  H   UNL     1      -2.165  11.822  18.061  0.00  0.00    +0.062 HD
ATOM     10  H   UNL     1      -0.707  13.781  18.364  0.00  0.00    +0.062 HD
ENDROOT
BRANCH   1  13
ATOM     11  C   UNL     1       2.763  14.530  18.257  0.00  0.00    +0.026 C 
ATOM     12  C   UNL     1       1.595  15.230  18.925  0.00  0.00    -0.035 C 
ATOM     13  C   UNL     1       1.960  13.819  19.336  0.00  0.00    -0.005 C 
ATOM     14  H   UNL     1       2.600  14.220  17.216  0.00  0.00    +0.039 HD
ATOM     15  H   UNL     1       0.734  15.424  18.310  0.00  0.00    +0.028 HD
ATOM     16  H   UNL     1       1.739  16.012  19.655  0.00  0.00    +0.028 HD
ATOM     17  H   UNL     1       2.457  13.731  20.306  0.00  0.00    +0.036 HD
BRANCH  11  22
ATOM     18  N   UNL     1       4.892  15.129  19.740  0.00  0.00    -0.320 N 
ATOM     19  C   UNL     1       6.215  15.234  19.452  0.00  0.00    +0.120 A 
ATOM     20  N   UNL     1       6.399  15.059  18.167  0.00  0.00    -0.138 NA
ATOM     21  N   UNL     1       5.173  14.820  17.605  0.00  0.00    -0.134 NA
ATOM     22  C   UNL     1       4.265  14.845  18.562  0.00  0.00    +0.137 A 
ATOM     23  H   UNL     1       6.979  15.430  20.184  0.00  0.00    +0.105 HD
BRANCH  18  24
ATOM     24  C   UNL     1       4.345  15.267  21.063  0.00  0.00    +0.014 C 
ATOM     25  H   UNL     1       3.994  14.296  21.410  0.00  0.00    +0.046 HD
ATOM     26  H   UNL     1       5.124  15.628  21.739  0.00  0.00    +0.046 HD
ATOM     27  H   UNL     1       3.541  16.001  21.046  0.00  0.00    +0.046 HD
ENDBRANCH  18  24
ENDBRANCH  11  22
ENDBRANCH   1  13
BRANCH   3  28
ATOM     28  N   UNL     1       1.106   8.913  19.264  0.00  0.00    -0.279 N 
ATOM     29  C   UNL     1       2.093   8.240  18.571  0.00  0.00    +0.284 C 
ATOM     30  O   UNL     1       2.696   8.667  17.600  0.00  0.00    -0.267 OA
ATOM     31  H   UNL     1       0.645   8.362  19.955  0.00  0.00    +0.155 HD
BRANCH  29  32
ATOM     32  C   UNL     1       2.319   6.904  19.072  0.00  0.00    +0.195 A 
ATOM     33  N   UNL     1       2.759   5.883  18.376  0.00  0.00    -0.223 NA
ATOM     34  C   UNL     1       2.729   4.796  19.220  0.00  0.00    +0.100 A 
ATOM     35  C   UNL     1       3.048   3.449  18.962  0.00  0.00    +0.064 A 
ATOM     36  C   UNL     1       2.901   2.541  20.039  0.00  0.00    -0.049 A 
ATOM     37  C   UNL     1       2.507   2.961  21.320  0.00  0.00    -0.059 A 
ATOM     38  C   UNL     1       2.210   4.300  21.573  0.00  0.00    -0.036 A 
ATOM     39  C   UNL     1       2.312   5.181  20.491  0.00  0.00    +0.067 A 
ATOM     40  N   UNL     1       2.021   6.516  20.361  0.00  0.00    -0.334 N 
ATOM     41  H   UNL     1       3.104   1.478  19.877  0.00  0.00    +0.062 HD
ATOM     42  H   UNL     1       2.403   2.225  22.124  0.00  0.00    +0.062 HD
ATOM     43  H   UNL     1       1.882   4.627  22.562  0.00  0.00    +0.064 HD
ATOM     44  H   UNL     1       1.655   7.127  21.078  0.00  0.00    +0.168 HD
BRANCH  35  45
ATOM     45  C   UNL     1       3.448   2.967  17.599  0.00  0.00    +0.351 C 
ATOM     46  F   UNL     1       2.456   3.106  16.677  0.00  0.00    -0.182 F 
ATOM     47  F   UNL     1       3.743   1.644  17.589  0.00  0.00    -0.182 F 
ATOM     48 CL   UNL     1       4.904   3.803  17.003  0.00  0.00    -0.042 Cl
ENDBRANCH  35  45
ENDBRANCH  29  32
ENDBRANCH   3  28
TORSDOF 6
ENDMDL
MODEL 5
REMARK VINA RESULT:    -8.430      3.164      4.298
REMARK INTER + INTRA:         -10.959
REMARK INTER:                 -10.351
REMARK INTRA:                  -0.608
REMARK UNBOUND:                 0.182
REMARK  Name = 
REMARK  6 active torsions:
REMARK  status: ('A' for Active; 'I' for Inactive)
REMARK    1  A    between atoms: C_1  and  N_2
REMARK    2  A    between atoms: C_6  and  C_7
REMARK    3  A    between atoms: C_9  and  C_10
REMARK    4  A    between atoms: C_12  and  N_16
REMARK    5  A    between atoms: C_17  and  C_19
REMARK    6  A    between atoms: C_22  and  C_28
REMARK                            x       y       z     vdW  Elec       q    Type
REMARK                         _______ _______ _______ _____ _____    ______ ____
ROOT
ATOM      1  C   UNL     1      -1.400  11.880  20.020  0.00  0.00    -0.042 A 
ATOM      2  C   UNL     1      -0.419  10.884  19.919  0.00  0.00    -0.037 A 
ATOM      3  C   UNL     1      -0.328  10.032  18.810  0.00  0.00    +0.034 A 
ATOM      4  C   UNL     1      -1.242  10.164  17.766  0.00  0.00    -0.040 A 
ATOM      5  C   UNL     1      -2.187  11.176  17.807  0.00  0.00    -0.060 A 
ATOM      6  C   UNL     1      -2.258  12.026  18.921  0.00  0.00    -0.058 A 
ATOM      7  H   UNL     1       0.248  10.755  20.769  0.00  0.00    +0.064 HD
ATOM      8  H   UNL     1      -1.218   9.501  16.899  0.00  0.00    +0.064 HD
ATOM      9  H   UNL     1      -2.900  11.290  16.973  0.00  0.00    +0.062 HD
ATOM     10  H   UNL     1      -3.045  12.791  18.919  0.00  0.00    +0.062 HD
ENDROOT
BRANCH   1  13
ATOM     11  C   UNL     1      -2.514  12.326  22.389  0.00  0.00    +0.026 C 
ATOM     12  C   UNL     1      -1.032  12.109  22.621  0.00  0.00    -0.035 C 
ATOM     13  C   UNL     1      -1.509  12.685  21.304  0.00  0.00    -0.005 C 
ATOM     14  H   UNL     1      -3.112  11.416  22.245  0.00  0.00    +0.039 HD
ATOM     15  H   UNL     1      -0.700  11.089  22.693  0.00  0.00    +0.028 HD
ATOM     16  H   UNL     1      -0.453  12.756  23.264  0.00  0.00    +0.028 HD
ATOM     17  H   UNL     1      -1.328  13.755  21.171  0.00  0.00    +0.036 HD
BRANCH  11  22
ATOM     18  N   UNL     1      -4.433  14.165  22.556  0.00  0.00    -0.320 N 
ATOM     19  C   UNL     1      -4.803  15.023  23.543  0.00  0.00    +0.120 A 
ATOM     20  N   UNL     1      -3.974  14.915  24.551  0.00  0.00    -0.138 NA
ATOM     21  N   UNL     1      -3.050  13.958  24.224  0.00  0.00    -0.134 NA
ATOM     22  C   UNL     1      -3.340  13.493  23.024  0.00  0.00    +0.137 A 
ATOM     23  H   UNL     1      -5.654  15.679  23.485  0.00  0.00    +0.105 HD
BRANCH  18  24
ATOM     24  C   UNL     1      -5.131  14.028  21.307  0.00  0.00    +0.014 C 
ATOM     25  H   UNL     1      -6.204  14.102  21.485  0.00  0.00    +0.046 HD
ATOM     26  H   UNL     1      -4.824  14.831  20.633  0.00  0.00    +0.046 HD
ATOM     27  H   UNL     1      -4.867  13.077  20.848  0.00  0.00    +0.046 HD
ENDBRANCH  18  24
ENDBRANCH  11  22
ENDBRANCH   1  13
BRANCH   3  28
ATOM     28  N   UNL     1       0.623   9.009  18.705  0.00  0.00    -0.279 N 
ATOM     29  C   UNL     1       1.908   9.133  18.216  0.00  0.00    +0.284 C 
ATOM     30  O   UNL     1       2.390  10.143  17.730  0.00  0.00    -0.267 OA
ATOM     31  H   UNL     1       0.369   8.078  18.954  0.00  0.00    +0.155 HD
BRANCH  29  32
ATOM     32  C   UNL     1       2.649   7.893  18.268  0.00  0.00    +0.195 A 
ATOM     33  N   UNL     1       3.591   7.522  17.434  0.00  0.00    -0.223 NA
ATOM     34  C   UNL     1       3.949   6.243  17.797  0.00  0.00    +0.100 A 
ATOM     35  C   UNL     1       4.875   5.366  17.202  0.00  0.00    +0.064 A 
ATOM     36  C   UNL     1       5.018   4.089  17.797  0.00  0.00    -0.049 A 
ATOM     37  C   UNL     1       4.313   3.722  18.955  0.00  0.00    -0.059 A 
ATOM     38  C   UNL     1       3.410   4.603  19.550  0.00  0.00    -0.036 A 
ATOM     39  C   UNL     1       3.241   5.845  18.927  0.00  0.00    +0.067 A 
ATOM     40  N   UNL     1       2.395   6.894  19.184  0.00  0.00    -0.334 N 
ATOM     41  H   UNL     1       5.701   3.361  17.349  0.00  0.00    +0.062 HD
ATOM     42  H   UNL     1       4.452   2.724  19.380  0.00  0.00    +0.062 HD
ATOM     43  H   UNL     1       2.844   4.314  20.438  0.00  0.00    +0.064 HD
ATOM     44  H   UNL     1       1.702   6.946  19.917  0.00  0.00    +0.168 HD
BRANCH  35  45
ATOM     45  C   UNL     1       5.625   5.719  15.951  0.00  0.00    +0.351 C 
ATOM     46  F   UNL     1       6.824   6.312  16.203  0.00  0.00    -0.182 F 
ATOM     47  F   UNL     1       4.954   6.613  15.185  0.00  0.00    -0.182 F 
ATOM     48 CL   UNL     1       5.899   4.292  14.920  0.00  0.00    -0.042 Cl
ENDBRANCH  35  45
ENDBRANCH  29  32
ENDBRANCH   3  28
TORSDOF 6
ENDMDL
MODEL 6
REMARK VINA RESULT:    -8.385      2.975      3.871
REMARK INTER + INTRA:         -10.899
REMARK INTER:                 -10.684
REMARK INTRA:                  -0.215
REMARK UNBOUND:                 0.182
REMARK  Name = 
REMARK  6 active torsions:
REMARK  status: ('A' for Active; 'I' for Inactive)
REMARK    1  A    between atoms: C_1  and  N_2
REMARK    2  A    between atoms: C_6  and  C_7
REMARK    3  A    between atoms: C_9  and  C_10
REMARK    4  A    between atoms: C_12  and  N_16
REMARK    5  A    between atoms: C_17  and  C_19
REMARK    6  A    between atoms: C_22  and  C_28
REMARK                            x       y       z     vdW  Elec       q    Type
REMARK                         _______ _______ _______ _____ _____    ______ ____
ROOT
ATOM      1  C   UNL     1      -0.353  11.481  19.212  0.00  0.00    -0.042 A 
ATOM      2  C   UNL     1       0.311  10.293  18.876  0.00  0.00    -0.037 A 
ATOM      3  C   UNL     1       1.591  10.285  18.307  0.00  0.00    +0.034 A 
ATOM      4  C   UNL     1       2.238  11.494  18.054  0.00  0.00    -0.040 A 
ATOM      5  C   UNL     1       1.635  12.683  18.428  0.00  0.00    -0.060 A 
ATOM      6  C   UNL     1       0.357  12.672  19.006  0.00  0.00    -0.058 A 
ATOM      7  H   UNL     1      -0.232   9.361  19.024  0.00  0.00    +0.064 HD
ATOM      8  H   UNL     1       3.224  11.527  17.587  0.00  0.00    +0.064 HD
ATOM      9  H   UNL     1       2.154  13.638  18.243  0.00  0.00    +0.062 HD
ATOM     10  H   UNL     1      -0.089  13.643  19.254  0.00  0.00    +0.062 HD
ENDROOT
BRANCH   1  13
ATOM     11  C   UNL     1      -2.573  12.670  20.052  0.00  0.00    +0.026 C 
ATOM     12  C   UNL     1      -2.936  11.848  18.832  0.00  0.00    -0.035 C 
ATOM     13  C   UNL     1      -1.784  11.414  19.715  0.00  0.00    -0.005 C 
ATOM     14  H   UNL     1      -2.095  13.639  19.849  0.00  0.00    +0.039 HD
ATOM     15  H   UNL     1      -2.760  12.303  17.874  0.00  0.00    +0.028 HD
ATOM     16  H   UNL     1      -3.810  11.214  18.810  0.00  0.00    +0.028 HD
ATOM     17  H   UNL     1      -1.988  10.550  20.354  0.00  0.00    +0.036 HD
BRANCH  11  22
ATOM     18  N   UNL     1      -2.995  12.466  22.673  0.00  0.00    -0.320 N 
ATOM     19  C   UNL     1      -4.092  12.670  23.448  0.00  0.00    +0.120 A 
ATOM     20  N   UNL     1      -5.119  12.957  22.688  0.00  0.00    -0.138 NA
ATOM     21  N   UNL     1      -4.682  12.954  21.389  0.00  0.00    -0.134 NA
ATOM     22  C   UNL     1      -3.393  12.675  21.384  0.00  0.00    +0.137 A 
ATOM     23  H   UNL     1      -4.095  12.603  24.522  0.00  0.00    +0.105 HD
BRANCH  18  24
ATOM     24  C   UNL     1      -1.697  12.133  23.192  0.00  0.00    +0.014 C 
ATOM     25  H   UNL     1      -1.487  11.083  22.992  0.00  0.00    +0.046 HD
ATOM     26  H   UNL     1      -0.942  12.749  22.698  0.00  0.00    +0.046 HD
ATOM     27  H   UNL     1      -1.668  12.350  24.259  0.00  0.00    +0.046 HD
ENDBRANCH  18  24
ENDBRANCH  11  22
ENDBRANCH   1  13
BRANCH   3  28
ATOM     28  N   UNL     1       2.256   9.110  17.933  0.00  0.00    -0.279 N 
ATOM     29  C   UNL     1       2.357   7.953  18.680  0.00  0.00    +0.284 C 
ATOM     30  O   UNL     1       1.941   7.803  19.817  0.00  0.00    -0.267 OA
ATOM     31  H   UNL     1       2.758   9.085  17.072  0.00  0.00    +0.155 HD
BRANCH  29  32
ATOM     32  C   UNL     1       3.088   6.909  18.000  0.00  0.00    +0.195 A 
ATOM     33  N   UNL     1       2.907   5.618  18.149  0.00  0.00    -0.223 NA
ATOM     34  C   UNL     1       3.876   5.001  17.390  0.00  0.00    +0.100 A 
ATOM     35  C   UNL     1       4.161   3.631  17.238  0.00  0.00    +0.064 A 
ATOM     36  C   UNL     1       5.246   3.294  16.392  0.00  0.00    -0.049 A 
ATOM     37  C   UNL     1       5.977   4.268  15.693  0.00  0.00    -0.059 A 
ATOM     38  C   UNL     1       5.678   5.624  15.835  0.00  0.00    -0.036 A 
ATOM     39  C   UNL     1       4.635   5.948  16.710  0.00  0.00    +0.067 A 
ATOM     40  N   UNL     1       4.140   7.153  17.143  0.00  0.00    -0.334 N 
ATOM     41  H   UNL     1       5.526   2.244  16.270  0.00  0.00    +0.062 HD
ATOM     42  H   UNL     1       6.810   3.965  15.052  0.00  0.00    +0.062 HD
ATOM     43  H   UNL     1       6.259   6.386  15.311  0.00  0.00    +0.064 HD
ATOM     44  H   UNL     1       4.474   8.071  16.885  0.00  0.00    +0.168 HD
BRANCH  35  45
ATOM     45  C   UNL     1       3.414   2.568  17.989  0.00  0.00    +0.351 C 
ATOM     46  F   UNL     1       3.759   1.308  17.606  0.00  0.00    -0.182 F 
ATOM     47  F   UNL     1       2.077   2.636  17.783  0.00  0.00    -0.182 F 
ATOM     48 CL   UNL     1       3.650   2.714  19.749  0.00  0.00    -0.042 Cl
ENDBRANCH  35  45
ENDBRANCH  29  32
ENDBRANCH   3  28
TORSDOF 6
ENDMDL
MODEL 7
REMARK VINA RESULT:    -8.355      4.818      9.715
REMARK INTER + INTRA:         -10.860
REMARK INTER:                 -10.396
REMARK INTRA:                  -0.464
REMARK UNBOUND:                 0.182
REMARK  Name = 
REMARK  6 active torsions:
REMARK  status: ('A' for Active; 'I' for Inactive)
REMARK    1  A    between atoms: C_1  and  N_2
REMARK    2  A    between atoms: C_6  and  C_7
REMARK    3  A    between atoms: C_9  and  C_10
REMARK    4  A    between atoms: C_12  and  N_16
REMARK    5  A    between atoms: C_17  and  C_19
REMARK    6  A    between atoms: C_22  and  C_28
REMARK                            x       y       z     vdW  Elec       q    Type
REMARK                         _______ _______ _______ _____ _____    ______ ____
ROOT
ATOM      1  C   UNL     1       2.873   5.090  18.640  0.00  0.00    -0.042 A 
ATOM      2  C   UNL     1       2.647   6.473  18.625  0.00  0.00    -0.037 A 
ATOM      3  C   UNL     1       1.995   7.137  19.673  0.00  0.00    +0.034 A 
ATOM      4  C   UNL     1       1.543   6.408  20.772  0.00  0.00    -0.040 A 
ATOM      5  C   UNL     1       1.802   5.050  20.845  0.00  0.00    -0.060 A 
ATOM      6  C   UNL     1       2.465   4.403  19.792  0.00  0.00    -0.058 A 
ATOM      7  H   UNL     1       2.952   7.017  17.733  0.00  0.00    +0.064 HD
ATOM      8  H   UNL     1       1.007   6.888  21.593  0.00  0.00    +0.064 HD
ATOM      9  H   UNL     1       1.458   4.477  21.723  0.00  0.00    +0.062 HD
ATOM     10  H   UNL     1       2.617   3.320  19.885  0.00  0.00    +0.062 HD
ENDROOT
BRANCH   1  13
ATOM     11  C   UNL     1       4.924   3.946  17.402  0.00  0.00    +0.026 C 
ATOM     12  C   UNL     1       3.789   2.941  17.416  0.00  0.00    -0.035 C 
ATOM     13  C   UNL     1       3.480   4.424  17.417  0.00  0.00    -0.005 C 
ATOM     14  H   UNL     1       5.497   4.031  18.337  0.00  0.00    +0.039 HD
ATOM     15  H   UNL     1       3.679   2.351  18.308  0.00  0.00    +0.028 HD
ATOM     16  H   UNL     1       3.513   2.378  16.536  0.00  0.00    +0.028 HD
ATOM     17  H   UNL     1       3.111   4.823  16.468  0.00  0.00    +0.036 HD
BRANCH  11  22
ATOM     18  N   UNL     1       6.742   5.234  15.944  0.00  0.00    -0.320 N 
ATOM     19  C   UNL     1       7.232   5.032  14.694  0.00  0.00    +0.120 A 
ATOM     20  N   UNL     1       6.598   4.034  14.130  0.00  0.00    -0.138 NA
ATOM     21  N   UNL     1       5.683   3.565  15.037  0.00  0.00    -0.134 NA
ATOM     22  C   UNL     1       5.785   4.281  16.140  0.00  0.00    +0.137 A 
ATOM     23  H   UNL     1       8.023   5.612  14.253  0.00  0.00    +0.105 HD
BRANCH  18  24
ATOM     24  C   UNL     1       7.220   6.254  16.838  0.00  0.00    +0.014 C 
ATOM     25  H   UNL     1       6.765   7.208  16.572  0.00  0.00    +0.046 HD
ATOM     26  H   UNL     1       6.939   5.997  17.862  0.00  0.00    +0.046 HD
ATOM     27  H   UNL     1       8.306   6.301  16.784  0.00  0.00    +0.046 HD
ENDBRANCH  18  24
ENDBRANCH  11  22
ENDBRANCH   1  13
BRANCH   3  28
ATOM     28  N   UNL     1       1.730   8.512  19.660  0.00  0.00    -0.279 N 
ATOM     29  C   UNL     1       1.395   9.272  18.557  0.00  0.00    +0.284 C 
ATOM     30  O   UNL     1       1.349   8.872  17.406  0.00  0.00    -0.267 OA
ATOM     31  H   UNL     1       1.830   9.037  20.502  0.00  0.00    +0.155 HD
BRANCH  29  32
ATOM     32  C   UNL     1       1.157  10.660  18.883  0.00  0.00    +0.195 A 
ATOM     33  N   UNL     1       0.271  11.110  19.739  0.00  0.00    -0.223 NA
ATOM     34  C   UNL     1       0.321  12.484  19.663  0.00  0.00    +0.100 A 
ATOM     35  C   UNL     1      -0.455  13.449  20.331  0.00  0.00    +0.064 A 
ATOM     36  C   UNL     1      -0.182  14.807  20.031  0.00  0.00    -0.049 A 
ATOM     37  C   UNL     1       0.845  15.184  19.150  0.00  0.00    -0.059 A 
ATOM     38  C   UNL     1       1.623  14.222  18.506  0.00  0.00    -0.036 A 
ATOM     39  C   UNL     1       1.313  12.883  18.773  0.00  0.00    +0.067 A 
ATOM     40  N   UNL     1       1.804  11.707  18.262  0.00  0.00    -0.334 N 
ATOM     41  H   UNL     1      -0.783  15.592  20.499  0.00  0.00    +0.062 HD
ATOM     42  H   UNL     1       1.020  16.244  18.945  0.00  0.00    +0.062 HD
ATOM     43  H   UNL     1       2.407  14.511  17.803  0.00  0.00    +0.064 HD
ATOM     44  H   UNL     1       2.519  11.607  17.555  0.00  0.00    +0.168 HD
BRANCH  35  45
ATOM     45  C   UNL     1      -1.575  13.078  21.257  0.00  0.00    +0.351 C 
ATOM     46  F   UNL     1      -2.506  12.280  20.667  0.00  0.00    -0.182 F 
ATOM     47  F   UNL     1      -2.269  14.160  21.684  0.00  0.00    -0.182 F 
ATOM     48 CL   UNL     1      -0.975  12.265  22.726  0.00  0.00    -0.042 Cl
ENDBRANCH  35  45
ENDBRANCH  29  32
ENDBRANCH   3  28
TORSDOF 6
ENDMDL
MODEL 8
REMARK VINA RESULT:    -8.340      4.202      9.693
REMARK INTER + INTRA:         -10.841
REMARK INTER:                 -10.835
REMARK INTRA:                  -0.006
REMARK UNBOUND:                 0.182
REMARK  Name = 
REMARK  6 active torsions:
REMARK  status: ('A' for Active; 'I' for Inactive)
REMARK    1  A    between atoms: C_1  and  N_2
REMARK    2  A    between atoms: C_6  and  C_7
REMARK    3  A    between atoms: C_9  and  C_10
REMARK    4  A    between atoms: C_12  and  N_16
REMARK    5  A    between atoms: C_17  and  C_19
REMARK    6  A    between atoms: C_22  and  C_28
REMARK                            x       y       z     vdW  Elec       q    Type
REMARK                         _______ _______ _______ _____ _____    ______ ____
ROOT
ATOM      1  C   UNL     1       4.405   3.798  17.124  0.00  0.00    -0.042 A 
ATOM      2  C   UNL     1       3.851   4.910  17.774  0.00  0.00    -0.037 A 
ATOM      3  C   UNL     1       2.736   4.806  18.617  0.00  0.00    +0.034 A 
ATOM      4  C   UNL     1       2.145   3.561  18.822  0.00  0.00    -0.040 A 
ATOM      5  C   UNL     1       2.703   2.434  18.243  0.00  0.00    -0.060 A 
ATOM      6  C   UNL     1       3.824   2.555  17.409  0.00  0.00    -0.058 A 
ATOM      7  H   UNL     1       4.288   5.883  17.555  0.00  0.00    +0.064 HD
ATOM      8  H   UNL     1       1.259   3.447  19.451  0.00  0.00    +0.064 HD
ATOM      9  H   UNL     1       2.244   1.447  18.418  0.00  0.00    +0.062 HD
ATOM     10  H   UNL     1       4.209   1.635  16.949  0.00  0.00    +0.062 HD
ENDROOT
BRANCH   1  13
ATOM     11  C   UNL     1       5.347   4.818  14.861  0.00  0.00    +0.026 C 
ATOM     12  C   UNL     1       6.200   5.363  15.990  0.00  0.00    -0.035 C 
ATOM     13  C   UNL     1       5.538   4.008  16.134  0.00  0.00    -0.005 C 
ATOM     14  H   UNL     1       4.376   5.313  14.715  0.00  0.00    +0.039 HD
ATOM     15  H   UNL     1       5.819   6.224  16.509  0.00  0.00    +0.028 HD
ATOM     16  H   UNL     1       7.278   5.385  15.932  0.00  0.00    +0.028 HD
ATOM     17  H   UNL     1       6.211   3.150  16.045  0.00  0.00    +0.036 HD
BRANCH  11  22
ATOM     18  N   UNL     1       7.083   4.501  12.867  0.00  0.00    -0.320 N 
ATOM     19  C   UNL     1       7.132   3.641  11.816  0.00  0.00    +0.120 A 
ATOM     20  N   UNL     1       6.054   2.898  11.807  0.00  0.00    -0.138 NA
ATOM     21  N   UNL     1       5.290   3.269  12.883  0.00  0.00    -0.134 NA
ATOM     22  C   UNL     1       5.923   4.226  13.532  0.00  0.00    +0.137 A 
ATOM     23  H   UNL     1       7.944   3.594  11.111  0.00  0.00    +0.105 HD
BRANCH  18  24
ATOM     24  C   UNL     1       8.112   5.458  13.169  0.00  0.00    +0.014 C 
ATOM     25  H   UNL     1       8.018   5.771  14.209  0.00  0.00    +0.046 HD
ATOM     26  H   UNL     1       9.090   4.994  13.022  0.00  0.00    +0.046 HD
ATOM     27  H   UNL     1       8.030   6.303  12.488  0.00  0.00    +0.046 HD
ENDBRANCH  18  24
ENDBRANCH  11  22
ENDBRANCH   1  13
BRANCH   3  28
ATOM     28  N   UNL     1       2.148   5.909  19.247  0.00  0.00    -0.279 N 
ATOM     29  C   UNL     1       2.383   7.239  18.959  0.00  0.00    +0.284 C 
ATOM     30  O   UNL     1       3.199   7.659  18.155  0.00  0.00    -0.267 OA
ATOM     31  H   UNL     1       1.530   5.761  20.015  0.00  0.00    +0.155 HD
BRANCH  29  32
ATOM     32  C   UNL     1       1.595   8.137  19.773  0.00  0.00    +0.195 A 
ATOM     33  N   UNL     1       1.058   9.266  19.376  0.00  0.00    -0.223 NA
ATOM     34  C   UNL     1       0.485   9.835  20.491  0.00  0.00    +0.100 A 
ATOM     35  C   UNL     1      -0.176  11.070  20.631  0.00  0.00    +0.064 A 
ATOM     36  C   UNL     1      -0.649  11.399  21.925  0.00  0.00    -0.049 A 
ATOM     37  C   UNL     1      -0.518  10.520  23.012  0.00  0.00    -0.059 A 
ATOM     38  C   UNL     1       0.122   9.289  22.863  0.00  0.00    -0.036 A 
ATOM     39  C   UNL     1       0.628   8.995  21.591  0.00  0.00    +0.067 A 
ATOM     40  N   UNL     1       1.369   7.942  21.118  0.00  0.00    -0.334 N 
ATOM     41  H   UNL     1      -1.138  12.363  22.089  0.00  0.00    +0.062 HD
ATOM     42  H   UNL     1      -0.896  10.814  23.996  0.00  0.00    +0.062 HD
ATOM     43  H   UNL     1       0.246   8.613  23.711  0.00  0.00    +0.064 HD
ATOM     44  H   UNL     1       1.699   7.147  21.650  0.00  0.00    +0.168 HD
BRANCH  35  45
ATOM     45  C   UNL     1      -0.310  12.041  19.495  0.00  0.00    +0.351 C 
ATOM     46  F   UNL     1       0.891  12.407  18.967  0.00  0.00    -0.182 F 
ATOM     47  F   UNL     1      -0.886  13.205  19.878  0.00  0.00    -0.182 F 
ATOM     48 CL   UNL     1      -1.333  11.391  18.188  0.00  0.00    -0.042 Cl
ENDBRANCH  35  45
ENDBRANCH  29  32
ENDBRANCH   3  28
TORSDOF 6
ENDMDL
MODEL 9
REMARK VINA RESULT:    -8.285      3.144      3.786
REMARK INTER + INTRA:         -10.768
REMARK INTER:                 -10.393
REMARK INTRA:                  -0.375
REMARK UNBOUND:                 0.182
REMARK  Name = 
REMARK  6 active torsions:
REMARK  status: ('A' for Active; 'I' for Inactive)
REMARK    1  A    between atoms: C_1  and  N_2
REMARK    2  A    between atoms: C_6  and  C_7
REMARK    3  A    between atoms: C_9  and  C_10
REMARK    4  A    between atoms: C_12  and  N_16
REMARK    5  A    between atoms: C_17  and  C_19
REMARK    6  A    between atoms: C_22  and  C_28
REMARK                            x       y       z     vdW  Elec       q    Type
REMARK                         _______ _______ _______ _____ _____    ______ ____
ROOT
ATOM      1  C   UNL     1      -0.805  10.660  21.331  0.00  0.00    -0.042 A 
ATOM      2  C   UNL     1      -0.115   9.819  20.448  0.00  0.00    -0.037 A 
ATOM      3  C   UNL     1       0.863   8.914  20.885  0.00  0.00    +0.034 A 
ATOM      4  C   UNL     1       1.174   8.842  22.241  0.00  0.00    -0.040 A 
ATOM      5  C   UNL     1       0.469   9.617  23.147  0.00  0.00    -0.060 A 
ATOM      6  C   UNL     1      -0.512  10.510  22.694  0.00  0.00    -0.058 A 
ATOM      7  H   UNL     1      -0.327   9.931  19.386  0.00  0.00    +0.064 HD
ATOM      8  H   UNL     1       1.949   8.168  22.613  0.00  0.00    +0.064 HD
ATOM      9  H   UNL     1       0.706   9.547  24.222  0.00  0.00    +0.062 HD
ATOM     10  H   UNL     1      -1.019  11.123  23.449  0.00  0.00    +0.062 HD
ENDROOT
BRANCH   1  13
ATOM     11  C   UNL     1      -1.724  13.149  21.222  0.00  0.00    +0.026 C 
ATOM     12  C   UNL     1      -1.274  12.773  19.824  0.00  0.00    -0.035 C 
ATOM     13  C   UNL     1      -1.764  11.696  20.771  0.00  0.00    -0.005 C 
ATOM     14  H   UNL     1      -0.925  13.442  21.917  0.00  0.00    +0.039 HD
ATOM     15  H   UNL     1      -0.227  12.887  19.608  0.00  0.00    +0.028 HD
ATOM     16  H   UNL     1      -1.879  12.980  18.954  0.00  0.00    +0.028 HD
ATOM     17  H   UNL     1      -2.761  11.303  20.552  0.00  0.00    +0.036 HD
BRANCH  11  22
ATOM     18  N   UNL     1      -3.943  13.671  22.598  0.00  0.00    -0.320 N 
ATOM     19  C   UNL     1      -4.933  14.587  22.436  0.00  0.00    +0.120 A 
ATOM     20  N   UNL     1      -4.726  15.267  21.336  0.00  0.00    -0.138 NA
ATOM     21  N   UNL     1      -3.569  14.796  20.774  0.00  0.00    -0.134 NA
ATOM     22  C   UNL     1      -3.087  13.843  21.548  0.00  0.00    +0.137 A 
ATOM     23  H   UNL     1      -5.752  14.719  23.121  0.00  0.00    +0.105 HD
BRANCH  18  24
ATOM     24  C   UNL     1      -3.866  12.760  23.708  0.00  0.00    +0.014 C 
ATOM     25  H   UNL     1      -4.369  11.830  23.445  0.00  0.00    +0.046 HD
ATOM     26  H   UNL     1      -2.817  12.549  23.929  0.00  0.00    +0.046 HD
ATOM     27  H   UNL     1      -4.313  13.223  24.586  0.00  0.00    +0.046 HD
ENDBRANCH  18  24
ENDBRANCH  11  22
ENDBRANCH   1  13
BRANCH   3  28
ATOM     28  N   UNL     1       1.587   8.090  20.014  0.00  0.00    -0.279 N 
ATOM     29  C   UNL     1       2.040   8.428  18.754  0.00  0.00    +0.284 C 
ATOM     30  O   UNL     1       1.815   9.478  18.175  0.00  0.00    -0.267 OA
ATOM     31  H   UNL     1       1.770   7.146  20.274  0.00  0.00    +0.155 HD
BRANCH  29  32
ATOM     32  C   UNL     1       2.781   7.361  18.120  0.00  0.00    +0.195 A 
ATOM     33  N   UNL     1       2.521   6.079  18.216  0.00  0.00    -0.223 NA
ATOM     34  C   UNL     1       3.528   5.427  17.540  0.00  0.00    +0.100 A 
ATOM     35  C   UNL     1       3.755   4.047  17.379  0.00  0.00    +0.064 A 
ATOM     36  C   UNL     1       4.901   3.671  16.636  0.00  0.00    -0.049 A 
ATOM     37  C   UNL     1       5.748   4.621  16.040  0.00  0.00    -0.059 A 
ATOM     38  C   UNL     1       5.506   5.986  16.188  0.00  0.00    -0.036 A 
ATOM     39  C   UNL     1       4.399   6.347  16.964  0.00  0.00    +0.067 A 
ATOM     40  N   UNL     1       3.925   7.567  17.379  0.00  0.00    -0.334 N 
ATOM     41  H   UNL     1       5.138   2.611  16.513  0.00  0.00    +0.062 HD
ATOM     42  H   UNL     1       6.624   4.287  15.477  0.00  0.00    +0.062 HD
ATOM     43  H   UNL     1       6.175   6.728  15.746  0.00  0.00    +0.064 HD
ATOM     44  H   UNL     1       4.330   8.471  17.181  0.00  0.00    +0.168 HD
BRANCH  35  45
ATOM     45  C   UNL     1       2.883   3.010  18.023  0.00  0.00    +0.351 C 
ATOM     46  F   UNL     1       3.177   1.745  17.615  0.00  0.00    -0.182 F 
ATOM     47  F   UNL     1       1.575   3.175  17.715  0.00  0.00    -0.182 F 
ATOM     48 CL   UNL     1       2.984   3.074  19.801  0.00  0.00    -0.042 Cl
ENDBRANCH  35  45
ENDBRANCH  29  32
ENDBRANCH   3  28
TORSDOF 6
ENDMDL
MODEL 10
REMARK VINA RESULT:    -8.217      2.832      3.889
REMARK INTER + INTRA:         -10.678
REMARK INTER:                 -10.354
REMARK INTRA:                  -0.323
REMARK UNBOUND:                 0.182
REMARK  Name = 
REMARK  6 active torsions:
REMARK  status: ('A' for Active; 'I' for Inactive)
REMARK    1  A    between atoms: C_1  and  N_2
REMARK    2  A    between atoms: C_6  and  C_7
REMARK    3  A    between atoms: C_9  and  C_10
REMARK    4  A    between atoms: C_12  and  N_16
REMARK    5  A    between atoms: C_17  and  C_19
REMARK    6  A    between atoms: C_22  and  C_28
REMARK                            x       y       z     vdW  Elec       q    Type
REMARK                         _______ _______ _______ _____ _____    ______ ____
ROOT
ATOM      1  C   UNL     1      -0.581  11.757  19.710  0.00  0.00    -0.042 A 
ATOM      2  C   UNL     1       0.015  10.504  19.509  0.00  0.00    -0.037 A 
ATOM      3  C   UNL     1       1.221  10.352  18.810  0.00  0.00    +0.034 A 
ATOM      4  C   UNL     1       1.858  11.476  18.286  0.00  0.00    -0.040 A 
ATOM      5  C   UNL     1       1.326  12.734  18.518  0.00  0.00    -0.060 A 
ATOM      6  C   UNL     1       0.124  12.868  19.227  0.00  0.00    -0.058 A 
ATOM      7  H   UNL     1      -0.525   9.632  19.871  0.00  0.00    +0.064 HD
ATOM      8  H   UNL     1       2.784  11.392  17.714  0.00  0.00    +0.064 HD
ATOM      9  H   UNL     1       1.839  13.624  18.117  0.00  0.00    +0.062 HD
ATOM     10  H   UNL     1      -0.271  13.884  19.356  0.00  0.00    +0.062 HD
ENDROOT
BRANCH   1  13
ATOM     11  C   UNL     1      -2.541  13.153  20.831  0.00  0.00    +0.026 C 
ATOM     12  C   UNL     1      -3.131  12.424  19.640  0.00  0.00    -0.035 C 
ATOM     13  C   UNL     1      -1.946  11.830  20.373  0.00  0.00    -0.005 C 
ATOM     14  H   UNL     1      -1.981  14.070  20.599  0.00  0.00    +0.039 HD
ATOM     15  H   UNL     1      -3.011  12.894  18.680  0.00  0.00    +0.028 HD
ATOM     16  H   UNL     1      -4.069  11.893  19.702  0.00  0.00    +0.028 HD
ATOM     17  H   UNL     1      -2.175  10.970  21.008  0.00  0.00    +0.036 HD
BRANCH  11  22
ATOM     18  N   UNL     1      -2.711  13.637  23.444  0.00  0.00    -0.320 N 
ATOM     19  C   UNL     1      -3.730  13.530  24.336  0.00  0.00    +0.120 A 
ATOM     20  N   UNL     1      -4.782  13.024  23.742  0.00  0.00    -0.138 NA
ATOM     21  N   UNL     1      -4.449  12.809  22.430  0.00  0.00    -0.134 NA
ATOM     22  C   UNL     1      -3.202  13.197  22.248  0.00  0.00    +0.137 A 
ATOM     23  H   UNL     1      -3.662  13.824  25.369  0.00  0.00    +0.105 HD
BRANCH  18  24
ATOM     24  C   UNL     1      -1.411  14.157  23.769  0.00  0.00    +0.014 C 
ATOM     25  H   UNL     1      -0.649  13.553  23.277  0.00  0.00    +0.046 HD
ATOM     26  H   UNL     1      -1.336  15.187  23.413  0.00  0.00    +0.046 HD
ATOM     27  H   UNL     1      -1.284  14.160  24.850  0.00  0.00    +0.046 HD
ENDBRANCH  18  24
ENDBRANCH  11  22
ENDBRANCH   1  13
BRANCH   3  28
ATOM     28  N   UNL     1       1.814   9.107  18.569  0.00  0.00    -0.279 N 
ATOM     29  C   UNL     1       1.968   8.082  19.483  0.00  0.00    +0.284 C 
ATOM     30  O   UNL     1       1.674   8.134  20.665  0.00  0.00    -0.267 OA
ATOM     31  H   UNL     1       2.219   8.922  17.677  0.00  0.00    +0.155 HD
BRANCH  29  32
ATOM     32  C   UNL     1       2.597   6.913  18.912  0.00  0.00    +0.195 A 
ATOM     33  N   UNL     1       3.591   6.912  18.056  0.00  0.00    -0.223 NA
ATOM     34  C   UNL     1       3.803   5.596  17.710  0.00  0.00    +0.100 A 
ATOM     35  C   UNL     1       4.715   5.045  16.790  0.00  0.00    +0.064 A 
ATOM     36  C   UNL     1       4.690   3.638  16.631  0.00  0.00    -0.049 A 
ATOM     37  C   UNL     1       3.837   2.817  17.387  0.00  0.00    -0.059 A 
ATOM     38  C   UNL     1       2.948   3.369  18.310  0.00  0.00    -0.036 A 
ATOM     39  C   UNL     1       2.948   4.764  18.425  0.00  0.00    +0.067 A 
ATOM     40  N   UNL     1       2.166   5.625  19.152  0.00  0.00    -0.334 N 
ATOM     41  H   UNL     1       5.357   3.168  15.902  0.00  0.00    +0.062 HD
ATOM     42  H   UNL     1       3.848   1.734  17.230  0.00  0.00    +0.062 HD
ATOM     43  H   UNL     1       2.268   2.736  18.883  0.00  0.00    +0.064 HD
ATOM     44  H   UNL     1       1.404   5.377  19.768  0.00  0.00    +0.168 HD
BRANCH  35  45
ATOM     45  C   UNL     1       5.622   5.897  15.951  0.00  0.00    +0.351 C 
ATOM     46  F   UNL     1       6.491   6.635  16.694  0.00  0.00    -0.182 F 
ATOM     47  F   UNL     1       4.938   6.807  15.217  0.00  0.00    -0.182 F 
ATOM     48 CL   UNL     1       6.552   4.922  14.786  0.00  0.00    -0.042 Cl
ENDBRANCH  35  45
ENDBRANCH  29  32
ENDBRANCH   3  28
TORSDOF 6
ENDMDL
MODEL 11
REMARK VINA RESULT:    -8.213      3.663      4.543
REMARK INTER + INTRA:         -10.672
REMARK INTER:                 -10.371
REMARK INTRA:                  -0.301
REMARK UNBOUND:                 0.182
REMARK  Name = 
REMARK  6 active torsions:
REMARK  status: ('A' for Active; 'I' for Inactive)
REMARK    1  A    between atoms: C_1  and  N_2
REMARK    2  A    between atoms: C_6  and  C_7
REMARK    3  A    between atoms: C_9  and  C_10
REMARK    4  A    between atoms: C_12  and  N_16
REMARK    5  A    between atoms: C_17  and  C_19
REMARK    6  A    between atoms: C_22  and  C_28
REMARK                            x       y       z     vdW  Elec       q    Type
REMARK                         _______ _______ _______ _____ _____    ______ ____
ROOT
ATOM      1  C   UNL     1       0.032  12.053  20.952  0.00  0.00    -0.042 A 
ATOM      2  C   UNL     1       0.499  10.763  20.663  0.00  0.00    -0.037 A 
ATOM      3  C   UNL     1       1.167  10.458  19.470  0.00  0.00    +0.034 A 
ATOM      4  C   UNL     1       1.377  11.461  18.525  0.00  0.00    -0.040 A 
ATOM      5  C   UNL     1       0.981  12.758  18.804  0.00  0.00    -0.060 A 
ATOM      6  C   UNL     1       0.322  13.047  20.008  0.00  0.00    -0.058 A 
ATOM      7  H   UNL     1       0.273   9.979  21.384  0.00  0.00    +0.064 HD
ATOM      8  H   UNL     1       1.871  11.254  17.573  0.00  0.00    +0.064 HD
ATOM      9  H   UNL     1       1.162  13.554  18.063  0.00  0.00    +0.062 HD
ATOM     10  H   UNL     1       0.000  14.085  20.166  0.00  0.00    +0.062 HD
ENDROOT
BRANCH   1  13
ATOM     11  C   UNL     1      -2.259  11.902  22.285  0.00  0.00    +0.026 C 
ATOM     12  C   UNL     1      -1.230  11.111  23.068  0.00  0.00    -0.035 C 
ATOM     13  C   UNL     1      -0.787  12.280  22.211  0.00  0.00    -0.005 C 
ATOM     14  H   UNL     1      -2.696  11.389  21.417  0.00  0.00    +0.039 HD
ATOM     15  H   UNL     1      -1.061  10.097  22.753  0.00  0.00    +0.028 HD
ATOM     16  H   UNL     1      -1.123  11.213  24.137  0.00  0.00    +0.028 HD
ATOM     17  H   UNL     1      -0.509  13.181  22.763  0.00  0.00    +0.036 HD
BRANCH  11  22
ATOM     18  N   UNL     1      -3.698  14.137  22.455  0.00  0.00    -0.320 N 
ATOM     19  C   UNL     1      -4.596  14.587  23.370  0.00  0.00    +0.120 A 
ATOM     20  N   UNL     1      -4.671  13.739  24.365  0.00  0.00    -0.138 NA
ATOM     21  N   UNL     1      -3.815  12.705  24.089  0.00  0.00    -0.134 NA
ATOM     22  C   UNL     1      -3.241  12.939  22.925  0.00  0.00    +0.137 A 
ATOM     23  H   UNL     1      -5.152  15.503  23.271  0.00  0.00    +0.105 HD
BRANCH  18  24
ATOM     24  C   UNL     1      -3.376  14.830  21.238  0.00  0.00    +0.014 C 
ATOM     25  H   UNL     1      -3.810  15.829  21.267  0.00  0.00    +0.046 HD
ATOM     26  H   UNL     1      -2.291  14.914  21.147  0.00  0.00    +0.046 HD
ATOM     27  H   UNL     1      -3.746  14.259  20.388  0.00  0.00    +0.046 HD
ENDBRANCH  18  24
ENDBRANCH  11  22
ENDBRANCH   1  13
BRANCH   3  28
ATOM     28  N   UNL     1       1.611   9.169  19.149  0.00  0.00    -0.279 N 
ATOM     29  C   UNL     1       1.796   8.123  20.031  0.00  0.00    +0.284 C 
ATOM     30  O   UNL     1       1.668   8.184  21.243  0.00  0.00    -0.267 OA
ATOM     31  H   UNL     1       1.875   8.963  18.210  0.00  0.00    +0.155 HD
BRANCH  29  32
ATOM     32  C   UNL     1       2.237   6.911  19.378  0.00  0.00    +0.195 A 
ATOM     33  N   UNL     1       1.856   5.692  19.677  0.00  0.00    -0.223 NA
ATOM     34  C   UNL     1       2.593   4.849  18.876  0.00  0.00    +0.100 A 
ATOM     35  C   UNL     1       2.612   3.442  18.831  0.00  0.00    +0.064 A 
ATOM     36  C   UNL     1       3.501   2.845  17.903  0.00  0.00    -0.049 A 
ATOM     37  C   UNL     1       4.292   3.609  17.030  0.00  0.00    -0.059 A 
ATOM     38  C   UNL     1       4.254   5.003  17.068  0.00  0.00    -0.036 A 
ATOM     39  C   UNL     1       3.409   5.583  18.021  0.00  0.00    +0.067 A 
ATOM     40  N   UNL     1       3.193   6.888  18.385  0.00  0.00    -0.334 N 
ATOM     41  H   UNL     1       3.575   1.754  17.856  0.00  0.00    +0.062 HD
ATOM     42  H   UNL     1       4.967   3.107  16.331  0.00  0.00    +0.062 HD
ATOM     43  H   UNL     1       4.885   5.601  16.407  0.00  0.00    +0.064 HD
ATOM     44  H   UNL     1       3.645   7.706  18.000  0.00  0.00    +0.168 HD
BRANCH  35  45
ATOM     45  C   UNL     1       1.798   2.598  19.766  0.00  0.00    +0.351 C 
ATOM     46  F   UNL     1       1.797   1.280  19.425  0.00  0.00    -0.182 F 
ATOM     47  F   UNL     1       0.490   2.952  19.772  0.00  0.00    -0.182 F 
ATOM     48 CL   UNL     1       2.358   2.751  21.451  0.00  0.00    -0.042 Cl
ENDBRANCH  35  45
ENDBRANCH  29  32
ENDBRANCH   3  28
TORSDOF 6
ENDMDL
MODEL 12
REMARK VINA RESULT:    -8.198      4.207      5.501
REMARK INTER + INTRA:         -10.652
REMARK INTER:                 -10.401
REMARK INTRA:                  -0.252
REMARK UNBOUND:                 0.182
REMARK  Name = 
REMARK  6 active torsions:
REMARK  status: ('A' for Active; 'I' for Inactive)
REMARK    1  A    between atoms: C_1  and  N_2
REMARK    2  A    between atoms: C_6  and  C_7
REMARK    3  A    between atoms: C_9  and  C_10
REMARK    4  A    between atoms: C_12  and  N_16
REMARK    5  A    between atoms: C_17  and  C_19
REMARK    6  A    between atoms: C_22  and  C_28
REMARK                            x       y       z     vdW  Elec       q    Type
REMARK                         _______ _______ _______ _____ _____    ______ ____
ROOT
ATOM      1  C   UNL     1       1.197  12.589  18.896  0.00  0.00    -0.042 A 
ATOM      2  C   UNL     1       1.816  11.347  18.698  0.00  0.00    -0.037 A 
ATOM      3  C   UNL     1       1.083  10.170  18.492  0.00  0.00    +0.034 A 
ATOM      4  C   UNL     1      -0.310  10.220  18.487  0.00  0.00    -0.040 A 
ATOM      5  C   UNL     1      -0.951  11.440  18.621  0.00  0.00    -0.060 A 
ATOM      6  C   UNL     1      -0.203  12.609  18.817  0.00  0.00    -0.058 A 
ATOM      7  H   UNL     1       2.901  11.316  18.765  0.00  0.00    +0.064 HD
ATOM      8  H   UNL     1      -0.912   9.319  18.356  0.00  0.00    +0.064 HD
ATOM      9  H   UNL     1      -2.053  11.481  18.601  0.00  0.00    +0.062 HD
ATOM     10  H   UNL     1      -0.760  13.546  18.949  0.00  0.00    +0.062 HD
ENDROOT
BRANCH   1  13
ATOM     11  C   UNL     1       2.946  14.458  18.190  0.00  0.00    +0.026 C 
ATOM     12  C   UNL     1       1.703  15.169  18.688  0.00  0.00    -0.035 C 
ATOM     13  C   UNL     1       2.053  13.799  19.231  0.00  0.00    -0.005 C 
ATOM     14  H   UNL     1       2.896  14.074  17.162  0.00  0.00    +0.039 HD
ATOM     15  H   UNL     1       0.905  15.297  17.979  0.00  0.00    +0.028 HD
ATOM     16  H   UNL     1       1.757  16.002  19.373  0.00  0.00    +0.028 HD
ATOM     17  H   UNL     1       2.451  13.790  20.249  0.00  0.00    +0.036 HD
BRANCH  11  22
ATOM     18  N   UNL     1       4.932  15.069  19.856  0.00  0.00    -0.320 N 
ATOM     19  C   UNL     1       6.263  15.267  19.669  0.00  0.00    +0.120 A 
ATOM     20  N   UNL     1       6.543  15.190  18.392  0.00  0.00    -0.138 NA
ATOM     21  N   UNL     1       5.373  14.923  17.730  0.00  0.00    -0.134 NA
ATOM     22  C   UNL     1       4.403  14.833  18.620  0.00  0.00    +0.137 A 
ATOM     23  H   UNL     1       6.963  15.453  20.464  0.00  0.00    +0.105 HD
BRANCH  18  24
ATOM     24  C   UNL     1       4.290  15.087  21.142  0.00  0.00    +0.014 C 
ATOM     25  H   UNL     1       3.603  15.931  21.191  0.00  0.00    +0.046 HD
ATOM     26  H   UNL     1       3.728  14.160  21.277  0.00  0.00    +0.046 HD
ATOM     27  H   UNL     1       5.048  15.143  21.922  0.00  0.00    +0.046 HD
ENDBRANCH  18  24
ENDBRANCH  11  22
ENDBRANCH   1  13
BRANCH   3  28
ATOM     28  N   UNL     1       1.682   8.915  18.327  0.00  0.00    -0.279 N 
ATOM     29  C   UNL     1       1.921   7.984  19.318  0.00  0.00    +0.284 C 
ATOM     30  O   UNL     1       1.710   8.144  20.509  0.00  0.00    -0.267 OA
ATOM     31  H   UNL     1       2.026   8.652  17.429  0.00  0.00    +0.155 HD
BRANCH  29  32
ATOM     32  C   UNL     1       2.531   6.774  18.816  0.00  0.00    +0.195 A 
ATOM     33  N   UNL     1       3.513   6.708  17.950  0.00  0.00    -0.223 NA
ATOM     34  C   UNL     1       3.708   5.371  17.686  0.00  0.00    +0.100 A 
ATOM     35  C   UNL     1       4.603   4.753  16.792  0.00  0.00    +0.064 A 
ATOM     36  C   UNL     1       4.561   3.338  16.723  0.00  0.00    -0.049 A 
ATOM     37  C   UNL     1       3.710   2.577  17.540  0.00  0.00    -0.059 A 
ATOM     38  C   UNL     1       2.839   3.195  18.437  0.00  0.00    -0.036 A 
ATOM     39  C   UNL     1       2.854   4.595  18.463  0.00  0.00    +0.067 A 
ATOM     40  N   UNL     1       2.090   5.509  19.143  0.00  0.00    -0.334 N 
ATOM     41  H   UNL     1       5.214   2.816  16.017  0.00  0.00    +0.062 HD
ATOM     42  H   UNL     1       3.708   1.486  17.452  0.00  0.00    +0.062 HD
ATOM     43  H   UNL     1       2.159   2.607  19.057  0.00  0.00    +0.064 HD
ATOM     44  H   UNL     1       1.333   5.309  19.782  0.00  0.00    +0.168 HD
BRANCH  35  45
ATOM     45  C   UNL     1       5.506   5.539  15.889  0.00  0.00    +0.351 C 
ATOM     46  F   UNL     1       6.588   6.050  16.538  0.00  0.00    -0.182 F 
ATOM     47  F   UNL     1       4.886   6.619  15.354  0.00  0.00    -0.182 F 
ATOM     48 CL   UNL     1       6.075   4.564  14.510  0.00  0.00    -0.042 Cl
ENDBRANCH  35  45
ENDBRANCH  29  32
ENDBRANCH   3  28
TORSDOF 6
ENDMDL
MODEL 13
REMARK VINA RESULT:    -8.188      4.574      5.901
REMARK INTER + INTRA:         -10.639
REMARK INTER:                 -10.345
REMARK INTRA:                  -0.294
REMARK UNBOUND:                 0.182
REMARK  Name = 
REMARK  6 active torsions:
REMARK  status: ('A' for Active; 'I' for Inactive)
REMARK    1  A    between atoms: C_1  and  N_2
REMARK    2  A    between atoms: C_6  and  C_7
REMARK    3  A    between atoms: C_9  and  C_10
REMARK    4  A    between atoms: C_12  and  N_16
REMARK    5  A    between atoms: C_17  and  C_19
REMARK    6  A    between atoms: C_22  and  C_28
REMARK                            x       y       z     vdW  Elec       q    Type
REMARK                         _______ _______ _______ _____ _____    ______ ____
ROOT
ATOM      1  C   UNL     1       1.017  12.707  19.015  0.00  0.00    -0.042 A 
ATOM      2  C   UNL     1       1.587  11.443  18.803  0.00  0.00    -0.037 A 
ATOM      3  C   UNL     1       0.808  10.291  18.629  0.00  0.00    +0.034 A 
ATOM      4  C   UNL     1      -0.581  10.387  18.673  0.00  0.00    -0.040 A 
ATOM      5  C   UNL     1      -1.177  11.629  18.821  0.00  0.00    -0.060 A 
ATOM      6  C   UNL     1      -0.383  12.773  18.984  0.00  0.00    -0.058 A 
ATOM      7  H   UNL     1       2.672  11.376  18.832  0.00  0.00    +0.064 HD
ATOM      8  H   UNL     1      -1.218   9.506  18.568  0.00  0.00    +0.064 HD
ATOM      9  H   UNL     1      -2.277  11.707  18.839  0.00  0.00    +0.062 HD
ATOM     10  H   UNL     1      -0.904  13.728  19.131  0.00  0.00    +0.062 HD
ENDROOT
BRANCH   1  13
ATOM     11  C   UNL     1       2.801  14.513  18.237  0.00  0.00    +0.026 C 
ATOM     12  C   UNL     1       1.601  15.267  18.775  0.00  0.00    -0.035 C 
ATOM     13  C   UNL     1       1.924  13.888  19.313  0.00  0.00    -0.005 C 
ATOM     14  H   UNL     1       2.701  14.126  17.213  0.00  0.00    +0.039 HD
ATOM     15  H   UNL     1       0.783  15.419  18.094  0.00  0.00    +0.028 HD
ATOM     16  H   UNL     1       1.707  16.101  19.453  0.00  0.00    +0.028 HD
ATOM     17  H   UNL     1       2.358  13.870  20.316  0.00  0.00    +0.036 HD
BRANCH  11  22
ATOM     18  N   UNL     1       4.852  15.130  19.820  0.00  0.00    -0.320 N 
ATOM     19  C   UNL     1       6.187  15.247  19.595  0.00  0.00    +0.120 A 
ATOM     20  N   UNL     1       6.433  15.072  18.320  0.00  0.00    -0.138 NA
ATOM     21  N   UNL     1       5.237  14.822  17.701  0.00  0.00    -0.134 NA
ATOM     22  C   UNL     1       4.284  14.840  18.613  0.00  0.00    +0.137 A 
ATOM     23  H   UNL     1       6.913  15.450  20.362  0.00  0.00    +0.105 HD
BRANCH  18  24
ATOM     24  C   UNL     1       4.241  15.265  21.114  0.00  0.00    +0.014 C 
ATOM     25  H   UNL     1       3.646  16.178  21.138  0.00  0.00    +0.046 HD
ATOM     26  H   UNL     1       3.589  14.408  21.296  0.00  0.00    +0.046 HD
ATOM     27  H   UNL     1       5.016  15.273  21.879  0.00  0.00    +0.046 HD
ENDBRANCH  18  24
ENDBRANCH  11  22
ENDBRANCH   1  13
BRANCH   3  28
ATOM     28  N   UNL     1       1.359   9.015  18.450  0.00  0.00    -0.279 N 
ATOM     29  C   UNL     1       1.776   8.156  19.447  0.00  0.00    +0.284 C 
ATOM     30  O   UNL     1       1.795   8.407  20.641  0.00  0.00    -0.267 OA
ATOM     31  H   UNL     1       1.526   8.681  17.527  0.00  0.00    +0.155 HD
BRANCH  29  32
ATOM     32  C   UNL     1       2.274   6.900  18.933  0.00  0.00    +0.195 A 
ATOM     33  N   UNL     1       1.863   5.706  19.286  0.00  0.00    -0.223 NA
ATOM     34  C   UNL     1       2.671   4.807  18.625  0.00  0.00    +0.100 A 
ATOM     35  C   UNL     1       2.690   3.401  18.688  0.00  0.00    +0.064 A 
ATOM     36  C   UNL     1       3.660   2.740  17.895  0.00  0.00    -0.049 A 
ATOM     37  C   UNL     1       4.531   3.440  17.044  0.00  0.00    -0.059 A 
ATOM     38  C   UNL     1       4.494   4.833  16.973  0.00  0.00    -0.036 A 
ATOM     39  C   UNL     1       3.564   5.479  17.796  0.00  0.00    +0.067 A 
ATOM     40  N   UNL     1       3.318   6.807  18.038  0.00  0.00    -0.334 N 
ATOM     41  H   UNL     1       3.737   1.649  17.938  0.00  0.00    +0.062 HD
ATOM     42  H   UNL     1       5.267   2.890  16.451  0.00  0.00    +0.062 HD
ATOM     43  H   UNL     1       5.184   5.382  16.329  0.00  0.00    +0.064 HD
ATOM     44  H   UNL     1       3.805   7.595  17.635  0.00  0.00    +0.168 HD
BRANCH  35  45
ATOM     45  C   UNL     1       1.791   2.627  19.605  0.00  0.00    +0.351 C 
ATOM     46  F   UNL     1       1.804   1.289  19.353  0.00  0.00    -0.182 F 
ATOM     47  F   UNL     1       0.491   2.988  19.476  0.00  0.00    -0.182 F 
ATOM     48 CL   UNL     1       2.208   2.890  21.318  0.00  0.00    -0.042 Cl
ENDBRANCH  35  45
ENDBRANCH  29  32
ENDBRANCH   3  28
TORSDOF 6
ENDMDL
MODEL 14
REMARK VINA RESULT:    -8.187      1.197      1.743
REMARK INTER + INTRA:         -10.638
REMARK INTER:                 -10.766
REMARK INTRA:                   0.128
REMARK UNBOUND:                 0.182
REMARK  Name = 
REMARK  6 active torsions:
REMARK  status: ('A' for Active; 'I' for Inactive)
REMARK    1  A    between atoms: C_1  and  N_2
REMARK    2  A    between atoms: C_6  and  C_7
REMARK    3  A    between atoms: C_9  and  C_10
REMARK    4  A    between atoms: C_12  and  N_16
REMARK    5  A    between atoms: C_17  and  C_19
REMARK    6  A    between atoms: C_22  and  C_28
REMARK                            x       y       z     vdW  Elec       q    Type
REMARK                         _______ _______ _______ _____ _____    ______ ____
ROOT
ATOM      1  C   UNL     1      -0.466  10.155  20.688  0.00  0.00    -0.042 A 
ATOM      2  C   UNL     1       0.385   9.297  19.978  0.00  0.00    -0.037 A 
ATOM      3  C   UNL     1       1.330   8.483  20.617  0.00  0.00    +0.034 A 
ATOM      4  C   UNL     1       1.444   8.522  22.005  0.00  0.00    -0.040 A 
ATOM      5  C   UNL     1       0.578   9.315  22.740  0.00  0.00    -0.060 A 
ATOM      6  C   UNL     1      -0.368  10.116  22.086  0.00  0.00    -0.058 A 
ATOM      7  H   UNL     1       0.325   9.323  18.891  0.00  0.00    +0.064 HD
ATOM      8  H   UNL     1       2.187   7.922  22.534  0.00  0.00    +0.064 HD
ATOM      9  H   UNL     1       0.658   9.332  23.840  0.00  0.00    +0.062 HD
ATOM     10  H   UNL     1      -1.009  10.749  22.713  0.00  0.00    +0.062 HD
ENDROOT
BRANCH   1  13
ATOM     11  C   UNL     1      -1.559  12.548  20.327  0.00  0.00    +0.026 C 
ATOM     12  C   UNL     1      -0.810  12.198  19.056  0.00  0.00    -0.035 C 
ATOM     13  C   UNL     1      -1.382  11.093  19.919  0.00  0.00    -0.005 C 
ATOM     14  H   UNL     1      -0.943  12.921  21.157  0.00  0.00    +0.039 HD
ATOM     15  H   UNL     1       0.246  12.405  19.047  0.00  0.00    +0.028 HD
ATOM     16  H   UNL     1      -1.245  12.340  18.078  0.00  0.00    +0.028 HD
ATOM     17  H   UNL     1      -2.277  10.608  19.521  0.00  0.00    +0.036 HD
BRANCH  11  22
ATOM     18  N   UNL     1      -4.127  12.757  19.653  0.00  0.00    -0.320 N 
ATOM     19  C   UNL     1      -5.145  13.518  20.130  0.00  0.00    +0.120 A 
ATOM     20  N   UNL     1      -4.692  14.328  21.055  0.00  0.00    -0.138 NA
ATOM     21  N   UNL     1      -3.351  14.081  21.195  0.00  0.00    -0.134 NA
ATOM     22  C   UNL     1      -3.015  13.118  20.358  0.00  0.00    +0.137 A 
ATOM     23  H   UNL     1      -6.163  13.449  19.789  0.00  0.00    +0.105 HD
BRANCH  18  24
ATOM     24  C   UNL     1      -4.281  11.761  18.627  0.00  0.00    +0.014 C 
ATOM     25  H   UNL     1      -3.434  11.077  18.659  0.00  0.00    +0.046 HD
ATOM     26  H   UNL     1      -5.201  11.200  18.806  0.00  0.00    +0.046 HD
ATOM     27  H   UNL     1      -4.363  12.251  17.658  0.00  0.00    +0.046 HD
ENDBRANCH  18  24
ENDBRANCH  11  22
ENDBRANCH   1  13
BRANCH   3  28
ATOM     28  N   UNL     1       2.212   7.645  19.923  0.00  0.00    -0.279 N 
ATOM     29  C   UNL     1       2.258   6.266  19.992  0.00  0.00    +0.284 C 
ATOM     30  O   UNL     1       1.581   5.569  20.729  0.00  0.00    -0.267 OA
ATOM     31  H   UNL     1       2.921   8.049  19.350  0.00  0.00    +0.155 HD
BRANCH  29  32
ATOM     32  C   UNL     1       3.268   5.695  19.131  0.00  0.00    +0.195 A 
ATOM     33  N   UNL     1       4.564   5.740  19.326  0.00  0.00    -0.223 NA
ATOM     34  C   UNL     1       5.144   5.162  18.219  0.00  0.00    +0.100 A 
ATOM     35  C   UNL     1       6.505   5.001  17.898  0.00  0.00    +0.064 A 
ATOM     36  C   UNL     1       6.800   4.375  16.662  0.00  0.00    -0.049 A 
ATOM     37  C   UNL     1       5.792   3.888  15.814  0.00  0.00    -0.059 A 
ATOM     38  C   UNL     1       4.446   4.034  16.147  0.00  0.00    -0.036 A 
ATOM     39  C   UNL     1       4.164   4.696  17.348  0.00  0.00    +0.067 A 
ATOM     40  N   UNL     1       2.982   5.081  17.930  0.00  0.00    -0.334 N 
ATOM     41  H   UNL     1       7.843   4.260  16.354  0.00  0.00    +0.062 HD
ATOM     42  H   UNL     1       6.064   3.413  14.867  0.00  0.00    +0.062 HD
ATOM     43  H   UNL     1       3.659   3.676  15.480  0.00  0.00    +0.064 HD
ATOM     44  H   UNL     1       2.053   4.942  17.559  0.00  0.00    +0.168 HD
BRANCH  35  45
ATOM     45  C   UNL     1       7.603   5.533  18.771  0.00  0.00    +0.351 C 
ATOM     46  F   UNL     1       8.743   4.792  18.697  0.00  0.00    -0.182 F 
ATOM     47  F   UNL     1       7.269   5.519  20.084  0.00  0.00    -0.182 F 
ATOM     48 CL   UNL     1       7.997   7.227  18.380  0.00  0.00    -0.042 Cl
ENDBRANCH  35  45
ENDBRANCH  29  32
ENDBRANCH   3  28
TORSDOF 6
ENDMDL
MODEL 15
REMARK VINA RESULT:    -8.154      3.607      4.515
REMARK INTER + INTRA:         -10.594
REMARK INTER:                 -10.034
REMARK INTRA:                  -0.559
REMARK UNBOUND:                 0.182
REMARK  Name = 
REMARK  6 active torsions:
REMARK  status: ('A' for Active; 'I' for Inactive)
REMARK    1  A    between atoms: C_1  and  N_2
REMARK    2  A    between atoms: C_6  and  C_7
REMARK    3  A    between atoms: C_9  and  C_10
REMARK    4  A    between atoms: C_12  and  N_16
REMARK    5  A    between atoms: C_17  and  C_19
REMARK    6  A    between atoms: C_22  and  C_28
REMARK                            x       y       z     vdW  Elec       q    Type
REMARK                         _______ _______ _______ _____ _____    ______ ____
ROOT
ATOM      1  C   UNL     1       0.268  12.490  19.230  0.00  0.00    -0.042 A 
ATOM      2  C   UNL     1       0.598  11.131  19.131  0.00  0.00    -0.037 A 
ATOM      3  C   UNL     1       1.751  10.686  18.470  0.00  0.00    +0.034 A 
ATOM      4  C   UNL     1       2.606  11.615  17.881  0.00  0.00    -0.040 A 
ATOM      5  C   UNL     1       2.341  12.968  18.010  0.00  0.00    -0.060 A 
ATOM      6  C   UNL     1       1.187  13.396  18.683  0.00  0.00    -0.058 A 
ATOM      7  H   UNL     1      -0.110  10.416  19.544  0.00  0.00    +0.064 HD
ATOM      8  H   UNL     1       3.499  11.303  17.335  0.00  0.00    +0.064 HD
ATOM      9  H   UNL     1       3.027  13.704  17.557  0.00  0.00    +0.062 HD
ATOM     10  H   UNL     1       1.007  14.478  18.730  0.00  0.00    +0.062 HD
ENDROOT
BRANCH   1  13
ATOM     11  C   UNL     1      -1.123  13.585  21.207  0.00  0.00    +0.026 C 
ATOM     12  C   UNL     1      -1.468  14.343  19.940  0.00  0.00    -0.035 C 
ATOM     13  C   UNL     1      -1.057  12.887  19.857  0.00  0.00    -0.005 C 
ATOM     14  H   UNL     1      -0.172  13.861  21.684  0.00  0.00    +0.039 HD
ATOM     15  H   UNL     1      -0.793  15.128  19.650  0.00  0.00    +0.028 HD
ATOM     16  H   UNL     1      -2.487  14.585  19.679  0.00  0.00    +0.028 HD
ATOM     17  H   UNL     1      -1.870  12.185  19.654  0.00  0.00    +0.036 HD
BRANCH  11  22
ATOM     18  N   UNL     1      -2.183  11.957  23.029  0.00  0.00    -0.320 N 
ATOM     19  C   UNL     1      -3.302  12.036  23.795  0.00  0.00    +0.120 A 
ATOM     20  N   UNL     1      -3.975  13.115  23.479  0.00  0.00    -0.138 NA
ATOM     21  N   UNL     1      -3.275  13.762  22.495  0.00  0.00    -0.134 NA
ATOM     22  C   UNL     1      -2.182  13.069  22.237  0.00  0.00    +0.137 A 
ATOM     23  H   UNL     1      -3.574  11.313  24.544  0.00  0.00    +0.105 HD
BRANCH  18  24
ATOM     24  C   UNL     1      -1.221  10.893  23.122  0.00  0.00    +0.014 C 
ATOM     25  H   UNL     1      -0.813  10.689  22.132  0.00  0.00    +0.046 HD
ATOM     26  H   UNL     1      -0.409  11.199  23.786  0.00  0.00    +0.046 HD
ATOM     27  H   UNL     1      -1.697  10.012  23.548  0.00  0.00    +0.046 HD
ENDBRANCH  18  24
ENDBRANCH  11  22
ENDBRANCH   1  13
BRANCH   3  28
ATOM     28  N   UNL     1       2.080   9.332  18.332  0.00  0.00    -0.279 N 
ATOM     29  C   UNL     1       1.937   8.351  19.294  0.00  0.00    +0.284 C 
ATOM     30  O   UNL     1       1.566   8.531  20.442  0.00  0.00    -0.267 OA
ATOM     31  H   UNL     1       2.506   9.016  17.488  0.00  0.00    +0.155 HD
BRANCH  29  32
ATOM     32  C   UNL     1       2.343   7.045  18.828  0.00  0.00    +0.195 A 
ATOM     33  N   UNL     1       1.893   5.895  19.270  0.00  0.00    -0.223 NA
ATOM     34  C   UNL     1       2.618   4.920  18.621  0.00  0.00    +0.100 A 
ATOM     35  C   UNL     1       2.571   3.521  18.764  0.00  0.00    +0.064 A 
ATOM     36  C   UNL     1       3.463   2.767  17.962  0.00  0.00    -0.049 A 
ATOM     37  C   UNL     1       4.321   3.372  17.029  0.00  0.00    -0.059 A 
ATOM     38  C   UNL     1       4.349   4.759  16.880  0.00  0.00    -0.036 A 
ATOM     39  C   UNL     1       3.498   5.497  17.710  0.00  0.00    +0.067 A 
ATOM     40  N   UNL     1       3.332   6.848  17.888  0.00  0.00    -0.334 N 
ATOM     41  H   UNL     1       3.487   1.678  18.063  0.00  0.00    +0.062 HD
ATOM     42  H   UNL     1       4.996   2.752  16.432  0.00  0.00    +0.062 HD
ATOM     43  H   UNL     1       5.031   5.235  16.172  0.00  0.00    +0.064 HD
ATOM     44  H   UNL     1       3.836   7.586  17.417  0.00  0.00    +0.168 HD
BRANCH  35  45
ATOM     45  C   UNL     1       1.684   2.846  19.768  0.00  0.00    +0.351 C 
ATOM     46  F   UNL     1       1.568   1.507  19.556  0.00  0.00    -0.182 F 
ATOM     47  F   UNL     1       0.412   3.312  19.726  0.00  0.00    -0.182 F 
ATOM     48 CL   UNL     1       2.253   3.113  21.436  0.00  0.00    -0.042 Cl
ENDBRANCH  35  45
ENDBRANCH  29  32
ENDBRANCH   3  28
TORSDOF 6
ENDMDL
MODEL 16
REMARK VINA RESULT:    -8.097      4.873      9.749
REMARK INTER + INTRA:         -10.519
REMARK INTER:                 -10.129
REMARK INTRA:                  -0.390
REMARK UNBOUND:                 0.182
REMARK  Name = 
REMARK  6 active torsions:
REMARK  status: ('A' for Active; 'I' for Inactive)
REMARK    1  A    between atoms: C_1  and  N_2
REMARK    2  A    between atoms: C_6  and  C_7
REMARK    3  A    between atoms: C_9  and  C_10
REMARK    4  A    between atoms: C_12  and  N_16
REMARK    5  A    between atoms: C_17  and  C_19
REMARK    6  A    between atoms: C_22  and  C_28
REMARK                            x       y       z     vdW  Elec       q    Type
REMARK                         _______ _______ _______ _____ _____    ______ ____
ROOT
ATOM      1  C   UNL     1       2.713   5.254  18.644  0.00  0.00    -0.042 A 
ATOM      2  C   UNL     1       2.531   6.630  18.837  0.00  0.00    -0.037 A 
ATOM      3  C   UNL     1       1.897   7.150  19.973  0.00  0.00    +0.034 A 
ATOM      4  C   UNL     1       1.420   6.280  20.952  0.00  0.00    -0.040 A 
ATOM      5  C   UNL     1       1.636   4.918  20.821  0.00  0.00    -0.060 A 
ATOM      6  C   UNL     1       2.281   4.416  19.682  0.00  0.00    -0.058 A 
ATOM      7  H   UNL     1       2.854   7.291  18.035  0.00  0.00    +0.064 HD
ATOM      8  H   UNL     1       0.897   6.649  21.837  0.00  0.00    +0.064 HD
ATOM      9  H   UNL     1       1.273   4.232  21.605  0.00  0.00    +0.062 HD
ATOM     10  H   UNL     1       2.399   3.327  19.612  0.00  0.00    +0.062 HD
ENDROOT
BRANCH   1  13
ATOM     11  C   UNL     1       4.594   3.958  17.291  0.00  0.00    +0.026 C 
ATOM     12  C   UNL     1       3.271   3.288  16.978  0.00  0.00    -0.035 C 
ATOM     13  C   UNL     1       3.302   4.760  17.334  0.00  0.00    -0.005 C 
ATOM     14  H   UNL     1       5.053   3.683  18.251  0.00  0.00    +0.039 HD
ATOM     15  H   UNL     1       2.925   2.553  17.683  0.00  0.00    +0.028 HD
ATOM     16  H   UNL     1       2.987   3.028  15.969  0.00  0.00    +0.028 HD
ATOM     17  H   UNL     1       3.150   5.444  16.495  0.00  0.00    +0.036 HD
BRANCH  11  22
ATOM     18  N   UNL     1       6.728   5.195  16.287  0.00  0.00    -0.320 N 
ATOM     19  C   UNL     1       7.365   5.108  15.090  0.00  0.00    +0.120 A 
ATOM     20  N   UNL     1       6.713   4.286  14.305  0.00  0.00    -0.138 NA
ATOM     21  N   UNL     1       5.634   3.816  15.007  0.00  0.00    -0.134 NA
ATOM     22  C   UNL     1       5.656   4.353  16.212  0.00  0.00    +0.137 A 
ATOM     23  H   UNL     1       8.268   5.639  14.846  0.00  0.00    +0.105 HD
BRANCH  18  24
ATOM     24  C   UNL     1       7.182   6.012  17.379  0.00  0.00    +0.014 C 
ATOM     25  H   UNL     1       7.823   5.418  18.030  0.00  0.00    +0.046 HD
ATOM     26  H   UNL     1       7.754   6.855  16.986  0.00  0.00    +0.046 HD
ATOM     27  H   UNL     1       6.321   6.405  17.917  0.00  0.00    +0.046 HD
ENDBRANCH  18  24
ENDBRANCH  11  22
ENDBRANCH   1  13
BRANCH   3  28
ATOM     28  N   UNL     1       1.675   8.519  20.167  0.00  0.00    -0.279 N 
ATOM     29  C   UNL     1       1.161   9.405  19.240  0.00  0.00    +0.284 C 
ATOM     30  O   UNL     1       0.888   9.142  18.081  0.00  0.00    -0.267 OA
ATOM     31  H   UNL     1       1.946   8.942  21.028  0.00  0.00    +0.155 HD
BRANCH  29  32
ATOM     32  C   UNL     1       1.030  10.747  19.760  0.00  0.00    +0.195 A 
ATOM     33  N   UNL     1       0.311  11.105  20.797  0.00  0.00    -0.223 NA
ATOM     34  C   UNL     1       0.398  12.477  20.874  0.00  0.00    +0.100 A 
ATOM     35  C   UNL     1      -0.224  13.368  21.769  0.00  0.00    +0.064 A 
ATOM     36  C   UNL     1       0.045  14.747  21.588  0.00  0.00    -0.049 A 
ATOM     37  C   UNL     1       0.929  15.211  20.599  0.00  0.00    -0.059 A 
ATOM     38  C   UNL     1       1.556  14.321  19.728  0.00  0.00    -0.036 A 
ATOM     39  C   UNL     1       1.246  12.965  19.884  0.00  0.00    +0.067 A 
ATOM     40  N   UNL     1       1.604  11.851  19.167  0.00  0.00    -0.334 N 
ATOM     41  H   UNL     1      -0.442  15.480  22.237  0.00  0.00    +0.062 HD
ATOM     42  H   UNL     1       1.107  16.285  20.492  0.00  0.00    +0.062 HD
ATOM     43  H   UNL     1       2.226  14.679  18.943  0.00  0.00    +0.064 HD
ATOM     44  H   UNL     1       2.191  11.825  18.344  0.00  0.00    +0.168 HD
BRANCH  35  45
ATOM     45  C   UNL     1      -1.191  12.906  22.818  0.00  0.00    +0.351 C 
ATOM     46  F   UNL     1      -1.238  13.736  23.896  0.00  0.00    -0.182 F 
ATOM     47  F   UNL     1      -0.855  11.697  23.330  0.00  0.00    -0.182 F 
ATOM     48 CL   UNL     1      -2.839  12.725  22.165  0.00  0.00    -0.042 Cl
ENDBRANCH  35  45
ENDBRANCH  29  32
ENDBRANCH   3  28
TORSDOF 6
ENDMDL
MODEL 17
REMARK VINA RESULT:    -8.045      1.858      2.215
REMARK INTER + INTRA:         -10.450
REMARK INTER:                  -9.922
REMARK INTRA:                  -0.528
REMARK UNBOUND:                 0.182
REMARK  Name = 
REMARK  6 active torsions:
REMARK  status: ('A' for Active; 'I' for Inactive)
REMARK    1  A    between atoms: C_1  and  N_2
REMARK    2  A    between atoms: C_6  and  C_7
REMARK    3  A    between atoms: C_9  and  C_10
REMARK    4  A    between atoms: C_12  and  N_16
REMARK    5  A    between atoms: C_17  and  C_19
REMARK    6  A    between atoms: C_22  and  C_28
REMARK                            x       y       z     vdW  Elec       q    Type
REMARK                         _______ _______ _______ _____ _____    ______ ____
ROOT
ATOM      1  C   UNL     1      -0.597  10.753  20.562  0.00  0.00    -0.042 A 
ATOM      2  C   UNL     1      -0.044   9.587  20.016  0.00  0.00    -0.037 A 
ATOM      3  C   UNL     1       0.824   8.759  20.740  0.00  0.00    +0.034 A 
ATOM      4  C   UNL     1       1.164   9.098  22.049  0.00  0.00    -0.040 A 
ATOM      5  C   UNL     1       0.589  10.212  22.638  0.00  0.00    -0.060 A 
ATOM      6  C   UNL     1      -0.285  11.024  21.902  0.00  0.00    -0.058 A 
ATOM      7  H   UNL     1      -0.272   9.369  18.974  0.00  0.00    +0.064 HD
ATOM      8  H   UNL     1       1.858   8.491  22.634  0.00  0.00    +0.064 HD
ATOM      9  H   UNL     1       0.846  10.470  23.679  0.00  0.00    +0.062 HD
ATOM     10  H   UNL     1      -0.688  11.912  22.405  0.00  0.00    +0.062 HD
ENDROOT
BRANCH   1  13
ATOM     11  C   UNL     1      -2.950  11.541  19.617  0.00  0.00    +0.026 C 
ATOM     12  C   UNL     1      -2.307  12.742  20.283  0.00  0.00    -0.035 C 
ATOM     13  C   UNL     1      -1.434  11.661  19.677  0.00  0.00    -0.005 C 
ATOM     14  H   UNL     1      -3.429  10.820  20.294  0.00  0.00    +0.039 HD
ATOM     15  H   UNL     1      -2.428  12.824  21.348  0.00  0.00    +0.028 HD
ATOM     16  H   UNL     1      -2.289  13.714  19.814  0.00  0.00    +0.028 HD
ATOM     17  H   UNL     1      -0.950  11.929  18.735  0.00  0.00    +0.036 HD
BRANCH  11  22
ATOM     18  N   UNL     1      -3.283  10.945  17.043  0.00  0.00    -0.320 N 
ATOM     19  C   UNL     1      -4.254  11.254  16.144  0.00  0.00    +0.120 A 
ATOM     20  N   UNL     1      -5.129  12.055  16.701  0.00  0.00    -0.138 NA
ATOM     21  N   UNL     1      -4.730  12.262  17.996  0.00  0.00    -0.134 NA
ATOM     22  C   UNL     1      -3.623  11.576  18.205  0.00  0.00    +0.137 A 
ATOM     23  H   UNL     1      -4.283  10.885  15.134  0.00  0.00    +0.105 HD
BRANCH  18  24
ATOM     24  C   UNL     1      -2.168  10.085  16.756  0.00  0.00    +0.014 C 
ATOM     25  H   UNL     1      -2.514   9.229  16.176  0.00  0.00    +0.046 HD
ATOM     26  H   UNL     1      -1.428  10.637  16.172  0.00  0.00    +0.046 HD
ATOM     27  H   UNL     1      -1.703   9.773  17.690  0.00  0.00    +0.046 HD
ENDBRANCH  18  24
ENDBRANCH  11  22
ENDBRANCH   1  13
BRANCH   3  28
ATOM     28  N   UNL     1       1.413   7.609  20.201  0.00  0.00    -0.279 N 
ATOM     29  C   UNL     1       2.200   7.545  19.067  0.00  0.00    +0.284 C 
ATOM     30  O   UNL     1       2.443   8.477  18.319  0.00  0.00    -0.267 OA
ATOM     31  H   UNL     1       1.230   6.723  20.621  0.00  0.00    +0.155 HD
BRANCH  29  32
ATOM     32  C   UNL     1       2.678   6.210  18.791  0.00  0.00    +0.195 A 
ATOM     33  N   UNL     1       3.652   5.894  17.971  0.00  0.00    -0.223 NA
ATOM     34  C   UNL     1       3.703   4.518  17.942  0.00  0.00    +0.100 A 
ATOM     35  C   UNL     1       4.530   3.666  17.186  0.00  0.00    +0.064 A 
ATOM     36  C   UNL     1       4.337   2.273  17.357  0.00  0.00    -0.049 A 
ATOM     37  C   UNL     1       3.405   1.756  18.272  0.00  0.00    -0.059 A 
ATOM     38  C   UNL     1       2.602   2.607  19.031  0.00  0.00    -0.036 A 
ATOM     39  C   UNL     1       2.767   3.980  18.820  0.00  0.00    +0.067 A 
ATOM     40  N   UNL     1       2.103   5.073  19.318  0.00  0.00    -0.334 N 
ATOM     41  H   UNL     1       4.933   1.571  16.765  0.00  0.00    +0.062 HD
ATOM     42  H   UNL     1       3.286   0.672  18.370  0.00  0.00    +0.062 HD
ATOM     43  H   UNL     1       1.860   2.208  19.727  0.00  0.00    +0.064 HD
ATOM     44  H   UNL     1       1.326   5.065  19.964  0.00  0.00    +0.168 HD
BRANCH  35  45
ATOM     45  C   UNL     1       5.517   4.187  16.184  0.00  0.00    +0.351 C 
ATOM     46  F   UNL     1       4.957   5.047  15.289  0.00  0.00    -0.182 F 
ATOM     47  F   UNL     1       6.049   3.200  15.425  0.00  0.00    -0.182 F 
ATOM     48 CL   UNL     1       6.893   5.000  16.973  0.00  0.00    -0.042 Cl
ENDBRANCH  35  45
ENDBRANCH  29  32
ENDBRANCH   3  28
TORSDOF 6
ENDMDL
MODEL 18
REMARK VINA RESULT:    -8.034      2.323      2.584
REMARK INTER + INTRA:         -10.435
REMARK INTER:                 -10.113
REMARK INTRA:                  -0.322
REMARK UNBOUND:                 0.182
REMARK  Name = 
REMARK  6 active torsions:
REMARK  status: ('A' for Active; 'I' for Inactive)
REMARK    1  A    between atoms: C_1  and  N_2
REMARK    2  A    between atoms: C_6  and  C_7
REMARK    3  A    between atoms: C_9  and  C_10
REMARK    4  A    between atoms: C_12  and  N_16
REMARK    5  A    between atoms: C_17  and  C_19
REMARK    6  A    between atoms: C_22  and  C_28
REMARK                            x       y       z     vdW  Elec       q    Type
REMARK                         _______ _______ _______ _____ _____    ______ ____
ROOT
ATOM      1  C   UNL     1      -0.556  10.598  20.576  0.00  0.00    -0.042 A 
ATOM      2  C   UNL     1       0.214   9.709  19.814  0.00  0.00    -0.037 A 
ATOM      3  C   UNL     1       1.169   8.860  20.393  0.00  0.00    +0.034 A 
ATOM      4  C   UNL     1       1.373   8.895  21.771  0.00  0.00    -0.040 A 
ATOM      5  C   UNL     1       0.587   9.720  22.559  0.00  0.00    -0.060 A 
ATOM      6  C   UNL     1      -0.370  10.555  21.964  0.00  0.00    -0.058 A 
ATOM      7  H   UNL     1       0.085   9.737  18.734  0.00  0.00    +0.064 HD
ATOM      8  H   UNL     1       2.126   8.268  22.252  0.00  0.00    +0.064 HD
ATOM      9  H   UNL     1       0.738   9.735  23.651  0.00  0.00    +0.062 HD
ATOM     10  H   UNL     1      -0.944  11.212  22.630  0.00  0.00    +0.062 HD
ENDROOT
BRANCH   1  13
ATOM     11  C   UNL     1      -2.979  11.307  19.753  0.00  0.00    +0.026 C 
ATOM     12  C   UNL     1      -2.466  12.415  20.651  0.00  0.00    -0.035 C 
ATOM     13  C   UNL     1      -1.485  11.569  19.866  0.00  0.00    -0.005 C 
ATOM     14  H   UNL     1      -3.380  10.422  20.268  0.00  0.00    +0.039 HD
ATOM     15  H   UNL     1      -2.596  12.276  21.709  0.00  0.00    +0.028 HD
ATOM     16  H   UNL     1      -2.551  13.457  20.379  0.00  0.00    +0.028 HD
ATOM     17  H   UNL     1      -1.031  12.063  19.003  0.00  0.00    +0.036 HD
BRANCH  11  22
ATOM     18  N   UNL     1      -3.329  11.067  17.124  0.00  0.00    -0.320 N 
ATOM     19  C   UNL     1      -4.292  11.516  16.278  0.00  0.00    +0.120 A 
ATOM     20  N   UNL     1      -5.147  12.256  16.939  0.00  0.00    -0.138 NA
ATOM     21  N   UNL     1      -4.742  12.280  18.248  0.00  0.00    -0.134 NA
ATOM     22  C   UNL     1      -3.652  11.545  18.361  0.00  0.00    +0.137 A 
ATOM     23  H   UNL     1      -4.331  11.285  15.228  0.00  0.00    +0.105 HD
BRANCH  18  24
ATOM     24  C   UNL     1      -2.236  10.225  16.720  0.00  0.00    +0.014 C 
ATOM     25  H   UNL     1      -2.072  10.336  15.649  0.00  0.00    +0.046 HD
ATOM     26  H   UNL     1      -1.332  10.528  17.253  0.00  0.00    +0.046 HD
ATOM     27  H   UNL     1      -2.458   9.193  16.986  0.00  0.00    +0.046 HD
ENDBRANCH  18  24
ENDBRANCH  11  22
ENDBRANCH   1  13
BRANCH   3  28
ATOM     28  N   UNL     1       1.972   7.990  19.645  0.00  0.00    -0.279 N 
ATOM     29  C   UNL     1       2.245   8.083  18.295  0.00  0.00    +0.284 C 
ATOM     30  O   UNL     1       1.766   8.902  17.528  0.00  0.00    -0.267 OA
ATOM     31  H   UNL     1       2.363   7.186  20.086  0.00  0.00    +0.155 HD
BRANCH  29  32
ATOM     32  C   UNL     1       3.133   7.042  17.829  0.00  0.00    +0.195 A 
ATOM     33  N   UNL     1       2.921   5.751  17.919  0.00  0.00    -0.223 NA
ATOM     34  C   UNL     1       4.059   5.138  17.443  0.00  0.00    +0.100 A 
ATOM     35  C   UNL     1       4.376   3.769  17.366  0.00  0.00    +0.064 A 
ATOM     36  C   UNL     1       5.649   3.436  16.840  0.00  0.00    -0.049 A 
ATOM     37  C   UNL     1       6.539   4.415  16.368  0.00  0.00    -0.059 A 
ATOM     38  C   UNL     1       6.210   5.769  16.430  0.00  0.00    -0.036 A 
ATOM     39  C   UNL     1       4.970   6.089  16.996  0.00  0.00    +0.067 A 
ATOM     40  N   UNL     1       4.376   7.291  17.287  0.00  0.00    -0.334 N 
ATOM     41  H   UNL     1       5.953   2.387  16.792  0.00  0.00    +0.062 HD
ATOM     42  H   UNL     1       7.513   4.115  15.971  0.00  0.00    +0.062 HD
ATOM     43  H   UNL     1       6.909   6.534  16.085  0.00  0.00    +0.064 HD
ATOM     44  H   UNL     1       4.765   8.211  17.132  0.00  0.00    +0.168 HD
BRANCH  35  45
ATOM     45  C   UNL     1       3.457   2.702  17.885  0.00  0.00    +0.351 C 
ATOM     46  F   UNL     1       3.877   1.445  17.573  0.00  0.00    -0.182 F 
ATOM     47  F   UNL     1       2.214   2.791  17.354  0.00  0.00    -0.182 F 
ATOM     48 CL   UNL     1       3.249   2.812  19.652  0.00  0.00    -0.042 Cl
ENDBRANCH  35  45
ENDBRANCH  29  32
ENDBRANCH   3  28
TORSDOF 6
ENDMDL
MODEL 19
REMARK VINA RESULT:    -7.977      3.103      4.415
REMARK INTER + INTRA:         -10.360
REMARK INTER:                  -9.807
REMARK INTRA:                  -0.553
REMARK UNBOUND:                 0.182
REMARK  Name = 
REMARK  6 active torsions:
REMARK  status: ('A' for Active; 'I' for Inactive)
REMARK    1  A    between atoms: C_1  and  N_2
REMARK    2  A    between atoms: C_6  and  C_7
REMARK    3  A    between atoms: C_9  and  C_10
REMARK    4  A    between atoms: C_12  and  N_16
REMARK    5  A    between atoms: C_17  and  C_19
REMARK    6  A    between atoms: C_22  and  C_28
REMARK                            x       y       z     vdW  Elec       q    Type
REMARK                         _______ _______ _______ _____ _____    ______ ____
ROOT
ATOM      1  C   UNL     1      -0.302  12.203  19.793  0.00  0.00    -0.042 A 
ATOM      2  C   UNL     1      -0.012  10.837  19.918  0.00  0.00    -0.037 A 
ATOM      3  C   UNL     1       1.098  10.247  19.299  0.00  0.00    +0.034 A 
ATOM      4  C   UNL     1       1.950  11.033  18.523  0.00  0.00    -0.040 A 
ATOM      5  C   UNL     1       1.725  12.396  18.428  0.00  0.00    -0.060 A 
ATOM      6  C   UNL     1       0.615  12.971  19.062  0.00  0.00    -0.058 A 
ATOM      7  H   UNL     1      -0.719  10.227  20.477  0.00  0.00    +0.064 HD
ATOM      8  H   UNL     1       2.809  10.602  18.004  0.00  0.00    +0.064 HD
ATOM      9  H   UNL     1       2.408  13.019  17.827  0.00  0.00    +0.062 HD
ATOM     10  H   UNL     1       0.464  14.050  18.929  0.00  0.00    +0.062 HD
ENDROOT
BRANCH   1  13
ATOM     11  C   UNL     1      -1.584  13.565  21.678  0.00  0.00    +0.026 C 
ATOM     12  C   UNL     1      -1.896  14.228  20.351  0.00  0.00    -0.035 C 
ATOM     13  C   UNL     1      -1.587  12.746  20.395  0.00  0.00    -0.005 C 
ATOM     14  H   UNL     1      -0.609  13.815  22.118  0.00  0.00    +0.039 HD
ATOM     15  H   UNL     1      -1.174  14.935  19.984  0.00  0.00    +0.028 HD
ATOM     16  H   UNL     1      -2.901  14.516  20.078  0.00  0.00    +0.028 HD
ATOM     17  H   UNL     1      -2.449  12.086  20.265  0.00  0.00    +0.036 HD
BRANCH  11  22
ATOM     18  N   UNL     1      -3.741  13.926  23.196  0.00  0.00    -0.320 N 
ATOM     19  C   UNL     1      -4.387  13.127  24.085  0.00  0.00    +0.120 A 
ATOM     20  N   UNL     1      -3.730  12.001  24.220  0.00  0.00    -0.138 NA
ATOM     21  N   UNL     1      -2.640  12.060  23.392  0.00  0.00    -0.134 NA
ATOM     22  C   UNL     1      -2.659  13.218  22.760  0.00  0.00    +0.137 A 
ATOM     23  H   UNL     1      -5.299  13.396  24.588  0.00  0.00    +0.105 HD
BRANCH  18  24
ATOM     24  C   UNL     1      -4.197  15.236  22.817  0.00  0.00    +0.014 C 
ATOM     25  H   UNL     1      -3.975  15.940  23.618  0.00  0.00    +0.046 HD
ATOM     26  H   UNL     1      -3.675  15.550  21.910  0.00  0.00    +0.046 HD
ATOM     27  H   UNL     1      -5.263  15.199  22.600  0.00  0.00    +0.046 HD
ENDBRANCH  18  24
ENDBRANCH  11  22
ENDBRANCH   1  13
BRANCH   3  28
ATOM     28  N   UNL     1       1.385   8.879  19.383  0.00  0.00    -0.279 N 
ATOM     29  C   UNL     1       1.577   8.153  20.542  0.00  0.00    +0.284 C 
ATOM     30  O   UNL     1       1.597   8.610  21.673  0.00  0.00    -0.267 OA
ATOM     31  H   UNL     1       1.519   8.355  18.546  0.00  0.00    +0.155 HD
BRANCH  29  32
ATOM     32  C   UNL     1       1.831   6.752  20.290  0.00  0.00    +0.195 A 
ATOM     33  N   UNL     1       2.736   6.267  19.474  0.00  0.00    -0.223 NA
ATOM     34  C   UNL     1       2.562   4.901  19.471  0.00  0.00    +0.100 A 
ATOM     35  C   UNL     1       3.236   3.912  18.729  0.00  0.00    +0.064 A 
ATOM     36  C   UNL     1       2.820   2.573  18.926  0.00  0.00    -0.049 A 
ATOM     37  C   UNL     1       1.820   2.231  19.852  0.00  0.00    -0.059 A 
ATOM     38  C   UNL     1       1.170   3.215  20.597  0.00  0.00    -0.036 A 
ATOM     39  C   UNL     1       1.555   4.539  20.360  0.00  0.00    +0.067 A 
ATOM     40  N   UNL     1       1.080   5.734  20.839  0.00  0.00    -0.334 N 
ATOM     41  H   UNL     1       3.290   1.773  18.347  0.00  0.00    +0.062 HD
ATOM     42  H   UNL     1       1.527   1.183  19.971  0.00  0.00    +0.062 HD
ATOM     43  H   UNL     1       0.376   2.955  21.301  0.00  0.00    +0.064 HD
ATOM     44  H   UNL     1       0.316   5.865  21.486  0.00  0.00    +0.168 HD
BRANCH  35  45
ATOM     45  C   UNL     1       4.289   4.248  17.716  0.00  0.00    +0.351 C 
ATOM     46  F   UNL     1       3.904   5.233  16.859  0.00  0.00    -0.182 F 
ATOM     47  F   UNL     1       4.588   3.195  16.917  0.00  0.00    -0.182 F 
ATOM     48 CL   UNL     1       5.820   4.731  18.489  0.00  0.00    -0.042 Cl
ENDBRANCH  35  45
ENDBRANCH  29  32
ENDBRANCH   3  28
TORSDOF 6
ENDMDL
MODEL 20
REMARK VINA RESULT:    -7.959      4.612      9.934
REMARK INTER + INTRA:         -10.337
REMARK INTER:                 -10.521
REMARK INTRA:                   0.184
REMARK UNBOUND:                 0.182
REMARK  Name = 
REMARK  6 active torsions:
REMARK  status: ('A' for Active; 'I' for Inactive)
REMARK    1  A    between atoms: C_1  and  N_2
REMARK    2  A    between atoms: C_6  and  C_7
REMARK    3  A    between atoms: C_9  and  C_10
REMARK    4  A    between atoms: C_12  and  N_16
REMARK    5  A    between atoms: C_17  and  C_19
REMARK    6  A    between atoms: C_22  and  C_28
REMARK                            x       y       z     vdW  Elec       q    Type
REMARK                         _______ _______ _______ _____ _____    ______ ____
ROOT
ATOM      1  C   UNL     1       4.396   4.236  17.193  0.00  0.00    -0.042 A 
ATOM      2  C   UNL     1       3.768   5.473  17.390  0.00  0.00    -0.037 A 
ATOM      3  C   UNL     1       2.616   5.611  18.177  0.00  0.00    +0.034 A 
ATOM      4  C   UNL     1       2.061   4.487  18.785  0.00  0.00    -0.040 A 
ATOM      5  C   UNL     1       2.691   3.259  18.659  0.00  0.00    -0.060 A 
ATOM      6  C   UNL     1       3.848   3.141  17.876  0.00  0.00    -0.058 A 
ATOM      7  H   UNL     1       4.179   6.330  16.860  0.00  0.00    +0.064 HD
ATOM      8  H   UNL     1       1.150   4.553  19.383  0.00  0.00    +0.064 HD
ATOM      9  H   UNL     1       2.260   2.373  19.154  0.00  0.00    +0.062 HD
ATOM     10  H   UNL     1       4.290   2.141  17.782  0.00  0.00    +0.062 HD
ENDROOT
BRANCH   1  13
ATOM     11  C   UNL     1       5.674   5.047  15.011  0.00  0.00    +0.026 C 
ATOM     12  C   UNL     1       6.615   5.242  16.183  0.00  0.00    -0.035 C 
ATOM     13  C   UNL     1       5.570   4.146  16.233  0.00  0.00    -0.005 C 
ATOM     14  H   UNL     1       4.904   5.820  14.884  0.00  0.00    +0.039 HD
ATOM     15  H   UNL     1       6.497   6.147  16.750  0.00  0.00    +0.028 HD
ATOM     16  H   UNL     1       7.651   4.938  16.141  0.00  0.00    +0.028 HD
ATOM     17  H   UNL     1       5.954   3.131  16.098  0.00  0.00    +0.036 HD
BRANCH  11  22
ATOM     18  N   UNL     1       7.167   4.602  12.852  0.00  0.00    -0.320 N 
ATOM     19  C   UNL     1       7.082   3.695  11.843  0.00  0.00    +0.120 A 
ATOM     20  N   UNL     1       5.997   2.976  11.991  0.00  0.00    -0.138 NA
ATOM     21  N   UNL     1       5.366   3.412  13.127  0.00  0.00    -0.134 NA
ATOM     22  C   UNL     1       6.085   4.383  13.655  0.00  0.00    +0.137 A 
ATOM     23  H   UNL     1       7.807   3.598  11.055  0.00  0.00    +0.105 HD
BRANCH  18  24
ATOM     24  C   UNL     1       8.240   5.548  12.991  0.00  0.00    +0.014 C 
ATOM     25  H   UNL     1       9.185   5.011  13.075  0.00  0.00    +0.046 HD
ATOM     26  H   UNL     1       8.271   6.191  12.108  0.00  0.00    +0.046 HD
ATOM     27  H   UNL     1       8.058   6.174  13.863  0.00  0.00    +0.046 HD
ENDBRANCH  18  24
ENDBRANCH  11  22
ENDBRANCH   1  13
BRANCH   3  28
ATOM     28  N   UNL     1       1.955   6.832  18.358  0.00  0.00    -0.279 N 
ATOM     29  C   UNL     1       2.403   8.075  17.954  0.00  0.00    +0.284 C 
ATOM     30  O   UNL     1       3.484   8.307  17.439  0.00  0.00    -0.267 OA
ATOM     31  H   UNL     1       1.097   6.853  18.866  0.00  0.00    +0.155 HD
BRANCH  29  32
ATOM     32  C   UNL     1       1.472   9.135  18.267  0.00  0.00    +0.195 A 
ATOM     33  N   UNL     1       0.222   9.203  17.876  0.00  0.00    -0.223 NA
ATOM     34  C   UNL     1      -0.256  10.417  18.317  0.00  0.00    +0.100 A 
ATOM     35  C   UNL     1      -1.519  11.009  18.124  0.00  0.00    +0.064 A 
ATOM     36  C   UNL     1      -1.715  12.293  18.689  0.00  0.00    -0.049 A 
ATOM     37  C   UNL     1      -0.722  12.932  19.450  0.00  0.00    -0.059 A 
ATOM     38  C   UNL     1       0.520  12.332  19.653  0.00  0.00    -0.036 A 
ATOM     39  C   UNL     1       0.720  11.084  19.051  0.00  0.00    +0.067 A 
ATOM     40  N   UNL     1       1.820  10.267  18.972  0.00  0.00    -0.334 N 
ATOM     41  H   UNL     1      -2.668  12.808  18.536  0.00  0.00    +0.062 HD
ATOM     42  H   UNL     1      -0.915  13.926  19.867  0.00  0.00    +0.062 HD
ATOM     43  H   UNL     1       1.302  12.835  20.226  0.00  0.00    +0.064 HD
ATOM     44  H   UNL     1       2.735  10.446  19.362  0.00  0.00    +0.168 HD
BRANCH  35  45
ATOM     45  C   UNL     1      -2.589  10.363  17.295  0.00  0.00    +0.351 C 
ATOM     46  F   UNL     1      -3.061   9.211  17.846  0.00  0.00    -0.182 F 
ATOM     47  F   UNL     1      -2.142  10.000  16.069  0.00  0.00    -0.182 F 
ATOM     48 CL   UNL     1      -3.962  11.465  17.014  0.00  0.00    -0.042 Cl
ENDBRANCH  35  45
ENDBRANCH  29  32
ENDBRANCH   3  28
TORSDOF 6
ENDMDL
MODEL 21
REMARK VINA RESULT:    -7.882      3.612      4.675
REMARK INTER + INTRA:         -10.235
REMARK INTER:                 -10.616
REMARK INTRA:                   0.381
REMARK UNBOUND:                 0.182
REMARK  Name = 
REMARK  6 active torsions:
REMARK  status: ('A' for Active; 'I' for Inactive)
REMARK    1  A    between atoms: C_1  and  N_2
REMARK    2  A    between atoms: C_6  and  C_7
REMARK    3  A    between atoms: C_9  and  C_10
REMARK    4  A    between atoms: C_12  and  N_16
REMARK    5  A    between atoms: C_17  and  C_19
REMARK    6  A    between atoms: C_22  and  C_28
REMARK                            x       y       z     vdW  Elec       q    Type
REMARK                         _______ _______ _______ _____ _____    ______ ____
ROOT
ATOM      1  C   UNL     1       0.259  12.000  21.394  0.00  0.00    -0.042 A 
ATOM      2  C   UNL     1       0.863  10.799  20.997  0.00  0.00    -0.037 A 
ATOM      3  C   UNL     1       0.563   9.573  21.607  0.00  0.00    +0.034 A 
ATOM      4  C   UNL     1      -0.361   9.533  22.650  0.00  0.00    -0.040 A 
ATOM      5  C   UNL     1      -1.019  10.692  23.026  0.00  0.00    -0.060 A 
ATOM      6  C   UNL     1      -0.714  11.908  22.399  0.00  0.00    -0.058 A 
ATOM      7  H   UNL     1       1.626  10.857  20.223  0.00  0.00    +0.064 HD
ATOM      8  H   UNL     1      -0.599   8.600  23.166  0.00  0.00    +0.064 HD
ATOM      9  H   UNL     1      -1.762  10.656  23.841  0.00  0.00    +0.062 HD
ATOM     10  H   UNL     1      -1.240  12.802  22.756  0.00  0.00    +0.062 HD
ENDROOT
BRANCH   1  13
ATOM     11  C   UNL     1       1.175  13.376  19.316  0.00  0.00    +0.026 C 
ATOM     12  C   UNL     1      -0.134  14.014  19.737  0.00  0.00    -0.035 C 
ATOM     13  C   UNL     1       0.722  13.304  20.766  0.00  0.00    -0.005 C 
ATOM     14  H   UNL     1       1.087  12.462  18.710  0.00  0.00    +0.039 HD
ATOM     15  H   UNL     1      -1.034  13.563  19.357  0.00  0.00    +0.028 HD
ATOM     16  H   UNL     1      -0.243  15.084  19.836  0.00  0.00    +0.028 HD
ATOM     17  H   UNL     1       1.259  13.960  21.456  0.00  0.00    +0.036 HD
BRANCH  11  22
ATOM     18  N   UNL     1       3.555  14.469  19.797  0.00  0.00    -0.320 N 
ATOM     19  C   UNL     1       4.449  15.115  19.004  0.00  0.00    +0.120 A 
ATOM     20  N   UNL     1       3.952  15.247  17.799  0.00  0.00    -0.138 NA
ATOM     21  N   UNL     1       2.713  14.663  17.800  0.00  0.00    -0.134 NA
ATOM     22  C   UNL     1       2.482  14.177  19.005  0.00  0.00    +0.137 A 
ATOM     23  H   UNL     1       5.415  15.455  19.335  0.00  0.00    +0.105 HD
BRANCH  18  24
ATOM     24  C   UNL     1       3.787  14.159  21.181  0.00  0.00    +0.014 C 
ATOM     25  H   UNL     1       3.504  15.015  21.794  0.00  0.00    +0.046 HD
ATOM     26  H   UNL     1       3.177  13.299  21.466  0.00  0.00    +0.046 HD
ATOM     27  H   UNL     1       4.834  13.896  21.322  0.00  0.00    +0.046 HD
ENDBRANCH  18  24
ENDBRANCH  11  22
ENDBRANCH   1  13
BRANCH   3  28
ATOM     28  N   UNL     1       1.180   8.368  21.249  0.00  0.00    -0.279 N 
ATOM     29  C   UNL     1       1.622   8.017  19.988  0.00  0.00    +0.284 C 
ATOM     30  O   UNL     1       1.475   8.679  18.974  0.00  0.00    -0.267 OA
ATOM     31  H   UNL     1       1.285   7.650  21.932  0.00  0.00    +0.155 HD
BRANCH  29  32
ATOM     32  C   UNL     1       2.241   6.712  19.954  0.00  0.00    +0.195 A 
ATOM     33  N   UNL     1       3.142   6.308  19.090  0.00  0.00    -0.223 NA
ATOM     34  C   UNL     1       3.377   4.980  19.368  0.00  0.00    +0.100 A 
ATOM     35  C   UNL     1       4.214   4.059  18.710  0.00  0.00    +0.064 A 
ATOM     36  C   UNL     1       4.236   2.738  19.220  0.00  0.00    -0.049 A 
ATOM     37  C   UNL     1       3.502   2.367  20.359  0.00  0.00    -0.059 A 
ATOM     38  C   UNL     1       2.689   3.289  21.017  0.00  0.00    -0.036 A 
ATOM     39  C   UNL     1       2.637   4.579  20.476  0.00  0.00    +0.067 A 
ATOM     40  N   UNL     1       1.896   5.685  20.806  0.00  0.00    -0.334 N 
ATOM     41  H   UNL     1       4.845   1.979  18.721  0.00  0.00    +0.062 HD
ATOM     42  H   UNL     1       3.546   1.334  20.719  0.00  0.00    +0.062 HD
ATOM     43  H   UNL     1       2.099   2.998  21.889  0.00  0.00    +0.064 HD
ATOM     44  H   UNL     1       1.212   5.755  21.547  0.00  0.00    +0.168 HD
BRANCH  35  45
ATOM     45  C   UNL     1       4.991   4.420  17.478  0.00  0.00    +0.351 C 
ATOM     46  F   UNL     1       4.387   5.390  16.738  0.00  0.00    -0.182 F 
ATOM     47  F   UNL     1       5.122   3.372  16.629  0.00  0.00    -0.182 F 
ATOM     48 CL   UNL     1       6.646   4.948  17.871  0.00  0.00    -0.042 Cl
ENDBRANCH  35  45
ENDBRANCH  29  32
ENDBRANCH   3  28
TORSDOF 6
ENDMDL
MODEL 22
REMARK VINA RESULT:    -7.858      3.888      9.328
REMARK INTER + INTRA:         -10.203
REMARK INTER:                 -10.296
REMARK INTRA:                   0.093
REMARK UNBOUND:                 0.182
REMARK  Name = 
REMARK  6 active torsions:
REMARK  status: ('A' for Active; 'I' for Inactive)
REMARK    1  A    between atoms: C_1  and  N_2
REMARK    2  A    between atoms: C_6  and  C_7
REMARK    3  A    between atoms: C_9  and  C_10
REMARK    4  A    between atoms: C_12  and  N_16
REMARK    5  A    between atoms: C_17  and  C_19
REMARK    6  A    between atoms: C_22  and  C_28
REMARK                            x       y       z     vdW  Elec       q    Type
REMARK                         _______ _______ _______ _____ _____    ______ ____
ROOT
ATOM      1  C   UNL     1       2.864   5.403  18.626  0.00  0.00    -0.042 A 
ATOM      2  C   UNL     1       2.544   6.765  18.537  0.00  0.00    -0.037 A 
ATOM      3  C   UNL     1       1.922   7.459  19.584  0.00  0.00    +0.034 A 
ATOM      4  C   UNL     1       1.599   6.783  20.759  0.00  0.00    -0.040 A 
ATOM      5  C   UNL     1       1.955   5.452  20.903  0.00  0.00    -0.060 A 
ATOM      6  C   UNL     1       2.585   4.776  19.848  0.00  0.00    -0.058 A 
ATOM      7  H   UNL     1       2.748   7.263  17.590  0.00  0.00    +0.064 HD
ATOM      8  H   UNL     1       1.091   7.285  21.585  0.00  0.00    +0.064 HD
ATOM      9  H   UNL     1       1.713   4.922  21.839  0.00  0.00    +0.062 HD
ATOM     10  H   UNL     1       2.816   3.714  20.001  0.00  0.00    +0.062 HD
ENDROOT
BRANCH   1  13
ATOM     11  C   UNL     1       4.826   4.093  17.409  0.00  0.00    +0.026 C 
ATOM     12  C   UNL     1       3.610   3.189  17.404  0.00  0.00    -0.035 C 
ATOM     13  C   UNL     1       3.428   4.693  17.408  0.00  0.00    -0.005 C 
ATOM     14  H   UNL     1       5.392   4.126  18.351  0.00  0.00    +0.039 HD
ATOM     15  H   UNL     1       3.438   2.607  18.292  0.00  0.00    +0.028 HD
ATOM     16  H   UNL     1       3.299   2.654  16.519  0.00  0.00    +0.028 HD
ATOM     17  H   UNL     1       3.106   5.124  16.456  0.00  0.00    +0.036 HD
BRANCH  11  22
ATOM     18  N   UNL     1       6.731   5.263  15.962  0.00  0.00    -0.320 N 
ATOM     19  C   UNL     1       7.239   5.007  14.729  0.00  0.00    +0.120 A 
ATOM     20  N   UNL     1       6.574   4.024  14.176  0.00  0.00    -0.138 NA
ATOM     21  N   UNL     1       5.620   3.618  15.072  0.00  0.00    -0.134 NA
ATOM     22  C   UNL     1       5.728   4.358  16.159  0.00  0.00    +0.137 A 
ATOM     23  H   UNL     1       8.065   5.542  14.292  0.00  0.00    +0.105 HD
BRANCH  18  24
ATOM     24  C   UNL     1       7.233   6.284  16.841  0.00  0.00    +0.014 C 
ATOM     25  H   UNL     1       8.128   6.727  16.405  0.00  0.00    +0.046 HD
ATOM     26  H   UNL     1       6.474   7.060  16.964  0.00  0.00    +0.046 HD
ATOM     27  H   UNL     1       7.438   5.850  17.818  0.00  0.00    +0.046 HD
ENDBRANCH  18  24
ENDBRANCH  11  22
ENDBRANCH   1  13
BRANCH   3  28
ATOM     28  N   UNL     1       1.564   8.810  19.500  0.00  0.00    -0.279 N 
ATOM     29  C   UNL     1       0.624   9.458  20.276  0.00  0.00    +0.284 C 
ATOM     30  O   UNL     1      -0.094   8.932  21.110  0.00  0.00    -0.267 OA
ATOM     31  H   UNL     1       1.972   9.381  18.792  0.00  0.00    +0.155 HD
BRANCH  29  32
ATOM     32  C   UNL     1       0.508  10.864  19.960  0.00  0.00    +0.195 A 
ATOM     33  N   UNL     1       1.427  11.604  19.388  0.00  0.00    -0.223 NA
ATOM     34  C   UNL     1       0.933  12.889  19.368  0.00  0.00    +0.100 A 
ATOM     35  C   UNL     1       1.537  14.076  18.913  0.00  0.00    +0.064 A 
ATOM     36  C   UNL     1       0.780  15.267  19.040  0.00  0.00    -0.049 A 
ATOM     37  C   UNL     1      -0.531  15.266  19.545  0.00  0.00    -0.059 A 
ATOM     38  C   UNL     1      -1.130  14.083  19.977  0.00  0.00    -0.036 A 
ATOM     39  C   UNL     1      -0.355  12.920  19.892  0.00  0.00    +0.067 A 
ATOM     40  N   UNL     1      -0.588  11.629  20.296  0.00  0.00    -0.334 N 
ATOM     41  H   UNL     1       1.220  16.219  18.731  0.00  0.00    +0.062 HD
ATOM     42  H   UNL     1      -1.080  16.209  19.628  0.00  0.00    +0.062 HD
ATOM     43  H   UNL     1      -2.140  14.082  20.391  0.00  0.00    +0.064 HD
ATOM     44  H   UNL     1      -1.417  11.281  20.757  0.00  0.00    +0.168 HD
BRANCH  35  45
ATOM     45  C   UNL     1       2.943  14.113  18.392  0.00  0.00    +0.351 C 
ATOM     46  F   UNL     1       3.102  14.987  17.361  0.00  0.00    -0.182 F 
ATOM     47  F   UNL     1       3.337  12.917  17.892  0.00  0.00    -0.182 F 
ATOM     48 CL   UNL     1       4.112  14.522  19.673  0.00  0.00    -0.042 Cl
ENDBRANCH  35  45
ENDBRANCH  29  32
ENDBRANCH   3  28
TORSDOF 6
ENDMDL
MODEL 23
REMARK VINA RESULT:    -7.845      4.374      9.591
REMARK INTER + INTRA:         -10.185
REMARK INTER:                  -9.930
REMARK INTRA:                  -0.255
REMARK UNBOUND:                 0.182
REMARK  Name = 
REMARK  6 active torsions:
REMARK  status: ('A' for Active; 'I' for Inactive)
REMARK    1  A    between atoms: C_1  and  N_2
REMARK    2  A    between atoms: C_6  and  C_7
REMARK    3  A    between atoms: C_9  and  C_10
REMARK    4  A    between atoms: C_12  and  N_16
REMARK    5  A    between atoms: C_17  and  C_19
REMARK    6  A    between atoms: C_22  and  C_28
REMARK                            x       y       z     vdW  Elec       q    Type
REMARK                         _______ _______ _______ _____ _____    ______ ____
ROOT
ATOM      1  C   UNL     1       3.142   4.248  18.713  0.00  0.00    -0.042 A 
ATOM      2  C   UNL     1       2.613   5.510  19.017  0.00  0.00    -0.037 A 
ATOM      3  C   UNL     1       2.050   5.805  20.266  0.00  0.00    +0.034 A 
ATOM      4  C   UNL     1       2.002   4.817  21.248  0.00  0.00    -0.040 A 
ATOM      5  C   UNL     1       2.569   3.578  21.001  0.00  0.00    -0.060 A 
ATOM      6  C   UNL     1       3.136   3.303  19.749  0.00  0.00    -0.058 A 
ATOM      7  H   UNL     1       2.604   6.251  18.220  0.00  0.00    +0.064 HD
ATOM      8  H   UNL     1       1.547   5.004  22.223  0.00  0.00    +0.064 HD
ATOM      9  H   UNL     1       2.544   2.802  21.784  0.00  0.00    +0.062 HD
ATOM     10  H   UNL     1       3.543   2.295  19.593  0.00  0.00    +0.062 HD
ENDROOT
BRANCH   1  13
ATOM     11  C   UNL     1       5.027   3.439  17.027  0.00  0.00    +0.026 C 
ATOM     12  C   UNL     1       3.820   2.546  16.817  0.00  0.00    -0.035 C 
ATOM     13  C   UNL     1       3.627   3.968  17.301  0.00  0.00    -0.005 C 
ATOM     14  H   UNL     1       5.656   3.194  17.895  0.00  0.00    +0.039 HD
ATOM     15  H   UNL     1       3.716   1.712  17.488  0.00  0.00    +0.028 HD
ATOM     16  H   UNL     1       3.454   2.304  15.830  0.00  0.00    +0.028 HD
ATOM     17  H   UNL     1       3.237   4.664  16.554  0.00  0.00    +0.036 HD
BRANCH  11  22
ATOM     18  N   UNL     1       6.709   5.157  15.883  0.00  0.00    -0.320 N 
ATOM     19  C   UNL     1       7.197   5.266  14.620  0.00  0.00    +0.120 A 
ATOM     20  N   UNL     1       6.642   4.358  13.856  0.00  0.00    -0.138 NA
ATOM     21  N   UNL     1       5.783   3.632  14.638  0.00  0.00    -0.134 NA
ATOM     22  C   UNL     1       5.839   4.106  15.868  0.00  0.00    +0.137 A 
ATOM     23  H   UNL     1       7.930   5.992  14.316  0.00  0.00    +0.105 HD
BRANCH  18  24
ATOM     24  C   UNL     1       7.110   6.003  16.974  0.00  0.00    +0.014 C 
ATOM     25  H   UNL     1       7.894   5.506  17.546  0.00  0.00    +0.046 HD
ATOM     26  H   UNL     1       7.500   6.943  16.577  0.00  0.00    +0.046 HD
ATOM     27  H   UNL     1       6.244   6.227  17.594  0.00  0.00    +0.046 HD
ENDBRANCH  18  24
ENDBRANCH  11  22
ENDBRANCH   1  13
BRANCH   3  28
ATOM     28  N   UNL     1       1.487   7.049  20.577  0.00  0.00    -0.279 N 
ATOM     29  C   UNL     1       1.611   8.212  19.842  0.00  0.00    +0.284 C 
ATOM     30  O   UNL     1       2.295   8.350  18.842  0.00  0.00    -0.267 OA
ATOM     31  H   UNL     1       0.980   7.156  21.428  0.00  0.00    +0.155 HD
BRANCH  29  32
ATOM     32  C   UNL     1       0.885   9.320  20.419  0.00  0.00    +0.195 A 
ATOM     33  N   UNL     1       0.764  10.517  19.898  0.00  0.00    -0.223 NA
ATOM     34  C   UNL     1       0.079  11.274  20.822  0.00  0.00    +0.100 A 
ATOM     35  C   UNL     1      -0.270  12.638  20.784  0.00  0.00    +0.064 A 
ATOM     36  C   UNL     1      -0.968  13.149  21.906  0.00  0.00    -0.049 A 
ATOM     37  C   UNL     1      -1.344  12.333  22.986  0.00  0.00    -0.059 A 
ATOM     38  C   UNL     1      -1.011  10.979  23.007  0.00  0.00    -0.036 A 
ATOM     39  C   UNL     1      -0.280  10.494  21.917  0.00  0.00    +0.067 A 
ATOM     40  N   UNL     1       0.276   9.268  21.655  0.00  0.00    -0.334 N 
ATOM     41  H   UNL     1      -1.231  14.211  21.937  0.00  0.00    +0.062 HD
ATOM     42  H   UNL     1      -1.881  12.770  23.833  0.00  0.00    +0.062 HD
ATOM     43  H   UNL     1      -1.282  10.346  23.856  0.00  0.00    +0.064 HD
ATOM     44  H   UNL     1       0.250   8.452  22.252  0.00  0.00    +0.168 HD
BRANCH  35  45
ATOM     45  C   UNL     1       0.138  13.540  19.657  0.00  0.00    +0.351 C 
ATOM     46  F   UNL     1       1.489  13.609  19.499  0.00  0.00    -0.182 F 
ATOM     47  F   UNL     1      -0.250  14.822  19.858  0.00  0.00    -0.182 F 
ATOM     48 CL   UNL     1      -0.593  13.039  18.111  0.00  0.00    -0.042 Cl
ENDBRANCH  35  45
ENDBRANCH  29  32
ENDBRANCH   3  28
TORSDOF 6
ENDMDL
MODEL 24
REMARK VINA RESULT:    -7.567      4.668      9.818
REMARK INTER + INTRA:          -9.818
REMARK INTER:                  -9.738
REMARK INTRA:                  -0.080
REMARK UNBOUND:                 0.182
REMARK  Name = 
REMARK  6 active torsions:
REMARK  status: ('A' for Active; 'I' for Inactive)
REMARK    1  A    between atoms: C_1  and  N_2
REMARK    2  A    between atoms: C_6  and  C_7
REMARK    3  A    between atoms: C_9  and  C_10
REMARK    4  A    between atoms: C_12  and  N_16
REMARK    5  A    between atoms: C_17  and  C_19
REMARK    6  A    between atoms: C_22  and  C_28
REMARK                            x       y       z     vdW  Elec       q    Type
REMARK                         _______ _______ _______ _____ _____    ______ ____
ROOT
ATOM      1  C   UNL     1       4.291   4.963  17.133  0.00  0.00    -0.042 A 
ATOM      2  C   UNL     1       4.082   6.321  17.407  0.00  0.00    -0.037 A 
ATOM      3  C   UNL     1       2.971   6.777  18.130  0.00  0.00    +0.034 A 
ATOM      4  C   UNL     1       2.031   5.859  18.594  0.00  0.00    -0.040 A 
ATOM      5  C   UNL     1       2.238   4.505  18.392  0.00  0.00    -0.060 A 
ATOM      6  C   UNL     1       3.360   4.066  17.675  0.00  0.00    -0.058 A 
ATOM      7  H   UNL     1       4.793   7.029  16.985  0.00  0.00    +0.064 HD
ATOM      8  H   UNL     1       1.139   6.181  19.138  0.00  0.00    +0.064 HD
ATOM      9  H   UNL     1       1.502   3.779  18.775  0.00  0.00    +0.062 HD
ATOM     10  H   UNL     1       3.461   2.985  17.515  0.00  0.00    +0.062 HD
ENDROOT
BRANCH   1  13
ATOM     11  C   UNL     1       5.829   5.357  15.005  0.00  0.00    +0.026 C 
ATOM     12  C   UNL     1       6.732   5.369  16.222  0.00  0.00    -0.035 C 
ATOM     13  C   UNL     1       5.454   4.557  16.243  0.00  0.00    -0.005 C 
ATOM     14  H   UNL     1       5.274   6.286  14.813  0.00  0.00    +0.039 HD
ATOM     15  H   UNL     1       6.808   6.299  16.757  0.00  0.00    +0.028 HD
ATOM     16  H   UNL     1       7.665   4.825  16.247  0.00  0.00    +0.028 HD
ATOM     17  H   UNL     1       5.588   3.475  16.159  0.00  0.00    +0.036 HD
BRANCH  11  22
ATOM     18  N   UNL     1       7.183   4.647  12.825  0.00  0.00    -0.320 N 
ATOM     19  C   UNL     1       6.996   3.667  11.903  0.00  0.00    +0.120 A 
ATOM     20  N   UNL     1       5.882   3.028  12.161  0.00  0.00    -0.138 NA
ATOM     21  N   UNL     1       5.336   3.593  13.284  0.00  0.00    -0.134 NA
ATOM     22  C   UNL     1       6.134   4.560  13.693  0.00  0.00    +0.137 A 
ATOM     23  H   UNL     1       7.674   3.462  11.093  0.00  0.00    +0.105 HD
BRANCH  18  24
ATOM     24  C   UNL     1       8.312   5.537  12.833  0.00  0.00    +0.014 C 
ATOM     25  H   UNL     1       8.426   5.984  11.845  0.00  0.00    +0.046 HD
ATOM     26  H   UNL     1       8.142   6.328  13.566  0.00  0.00    +0.046 HD
ATOM     27  H   UNL     1       9.204   4.985  13.127  0.00  0.00    +0.046 HD
ENDBRANCH  18  24
ENDBRANCH  11  22
ENDBRANCH   1  13
BRANCH   3  28
ATOM     28  N   UNL     1       2.726   8.132  18.384  0.00  0.00    -0.279 N 
ATOM     29  C   UNL     1       1.627   8.859  17.969  0.00  0.00    +0.284 C 
ATOM     30  O   UNL     1       0.731   8.444  17.252  0.00  0.00    -0.267 OA
ATOM     31  H   UNL     1       3.412   8.671  18.866  0.00  0.00    +0.155 HD
BRANCH  29  32
ATOM     32  C   UNL     1       1.660  10.232  18.418  0.00  0.00    +0.195 A 
ATOM     33  N   UNL     1       0.991  10.727  19.431  0.00  0.00    -0.223 NA
ATOM     34  C   UNL     1       1.243  12.081  19.438  0.00  0.00    +0.100 A 
ATOM     35  C   UNL     1       0.734  13.085  20.282  0.00  0.00    +0.064 A 
ATOM     36  C   UNL     1       1.169  14.410  20.032  0.00  0.00    -0.049 A 
ATOM     37  C   UNL     1       2.101  14.712  19.026  0.00  0.00    -0.059 A 
ATOM     38  C   UNL     1       2.616  13.708  18.205  0.00  0.00    -0.036 A 
ATOM     39  C   UNL     1       2.144  12.410  18.429  0.00  0.00    +0.067 A 
ATOM     40  N   UNL     1       2.364  11.226  17.772  0.00  0.00    -0.334 N 
ATOM     41  H   UNL     1       0.774  15.229  20.640  0.00  0.00    +0.062 HD
ATOM     42  H   UNL     1       2.408  15.750  18.865  0.00  0.00    +0.062 HD
ATOM     43  H   UNL     1       3.324  13.942  17.407  0.00  0.00    +0.064 HD
ATOM     44  H   UNL     1       2.943  11.086  16.956  0.00  0.00    +0.168 HD
BRANCH  35  45
ATOM     45  C   UNL     1      -0.281  12.799  21.349  0.00  0.00    +0.351 C 
ATOM     46  F   UNL     1      -0.385  13.802  22.263  0.00  0.00    -0.182 F 
ATOM     47  F   UNL     1       0.034  11.701  22.077  0.00  0.00    -0.182 F 
ATOM     48 CL   UNL     1      -1.894  12.487  20.658  0.00  0.00    -0.042 Cl
ENDBRANCH  35  45
ENDBRANCH  29  32
ENDBRANCH   3  28
TORSDOF 6
ENDMDL
MODEL 25
REMARK VINA RESULT:    -7.479      4.186      9.587
REMARK INTER + INTRA:          -9.703
REMARK INTER:                  -9.937
REMARK INTRA:                   0.234
REMARK UNBOUND:                 0.182
REMARK  Name = 
REMARK  6 active torsions:
REMARK  status: ('A' for Active; 'I' for Inactive)
REMARK    1  A    between atoms: C_1  and  N_2
REMARK    2  A    between atoms: C_6  and  C_7
REMARK    3  A    between atoms: C_9  and  C_10
REMARK    4  A    between atoms: C_12  and  N_16
REMARK    5  A    between atoms: C_17  and  C_19
REMARK    6  A    between atoms: C_22  and  C_28
REMARK                            x       y       z     vdW  Elec       q    Type
REMARK                         _______ _______ _______ _____ _____    ______ ____
ROOT
ATOM      1  C   UNL     1       4.417   4.194  17.240  0.00  0.00    -0.042 A 
ATOM      2  C   UNL     1       3.845   5.467  17.368  0.00  0.00    -0.037 A 
ATOM      3  C   UNL     1       2.708   5.702  18.153  0.00  0.00    +0.034 A 
ATOM      4  C   UNL     1       2.111   4.642  18.832  0.00  0.00    -0.040 A 
ATOM      5  C   UNL     1       2.686   3.383  18.775  0.00  0.00    -0.060 A 
ATOM      6  C   UNL     1       3.828   3.167  17.992  0.00  0.00    -0.058 A 
ATOM      7  H   UNL     1       4.287   6.272  16.784  0.00  0.00    +0.064 HD
ATOM      8  H   UNL     1       1.209   4.783  19.431  0.00  0.00    +0.064 HD
ATOM      9  H   UNL     1       2.222   2.547  19.325  0.00  0.00    +0.062 HD
ATOM     10  H   UNL     1       4.225   2.145  17.955  0.00  0.00    +0.062 HD
ENDROOT
BRANCH   1  13
ATOM     11  C   UNL     1       5.848   4.971  15.143  0.00  0.00    +0.026 C 
ATOM     12  C   UNL     1       6.789   4.902  16.330  0.00  0.00    -0.035 C 
ATOM     13  C   UNL     1       5.576   3.995  16.279  0.00  0.00    -0.005 C 
ATOM     14  H   UNL     1       5.219   5.870  15.085  0.00  0.00    +0.039 HD
ATOM     15  H   UNL     1       6.812   5.761  16.977  0.00  0.00    +0.028 HD
ATOM     16  H   UNL     1       7.760   4.435  16.264  0.00  0.00    +0.028 HD
ATOM     17  H   UNL     1       5.789   2.947  16.054  0.00  0.00    +0.036 HD
BRANCH  11  22
ATOM     18  N   UNL     1       7.193   4.627  12.871  0.00  0.00    -0.320 N 
ATOM     19  C   UNL     1       7.040   3.768  11.830  0.00  0.00    +0.120 A 
ATOM     20  N   UNL     1       5.966   3.041  12.016  0.00  0.00    -0.138 NA
ATOM     21  N   UNL     1       5.413   3.424  13.211  0.00  0.00    -0.134 NA
ATOM     22  C   UNL     1       6.168   4.371  13.734  0.00  0.00    +0.137 A 
ATOM     23  H   UNL     1       7.711   3.708  10.992  0.00  0.00    +0.105 HD
BRANCH  18  24
ATOM     24  C   UNL     1       8.275   5.568  12.982  0.00  0.00    +0.014 C 
ATOM     25  H   UNL     1       7.881   6.534  13.298  0.00  0.00    +0.046 HD
ATOM     26  H   UNL     1       8.988   5.211  13.729  0.00  0.00    +0.046 HD
ATOM     27  H   UNL     1       8.790   5.639  12.026  0.00  0.00    +0.046 HD
ENDBRANCH  18  24
ENDBRANCH  11  22
ENDBRANCH   1  13
BRANCH   3  28
ATOM     28  N   UNL     1       2.102   6.960  18.266  0.00  0.00    -0.279 N 
ATOM     29  C   UNL     1       2.645   8.169  17.876  0.00  0.00    +0.284 C 
ATOM     30  O   UNL     1       3.771   8.334  17.438  0.00  0.00    -0.267 OA
ATOM     31  H   UNL     1       1.213   7.036  18.709  0.00  0.00    +0.155 HD
BRANCH  29  32
ATOM     32  C   UNL     1       1.753   9.283  18.103  0.00  0.00    +0.195 A 
ATOM     33  N   UNL     1       2.106  10.540  18.229  0.00  0.00    -0.223 NA
ATOM     34  C   UNL     1       0.956  11.237  18.527  0.00  0.00    +0.100 A 
ATOM     35  C   UNL     1       0.783  12.605  18.811  0.00  0.00    +0.064 A 
ATOM     36  C   UNL     1      -0.535  13.034  19.103  0.00  0.00    -0.049 A 
ATOM     37  C   UNL     1      -1.631  12.157  19.064  0.00  0.00    -0.059 A 
ATOM     38  C   UNL     1      -1.455  10.806  18.764  0.00  0.00    -0.036 A 
ATOM     39  C   UNL     1      -0.142  10.383  18.524  0.00  0.00    +0.067 A 
ATOM     40  N   UNL     1       0.394   9.142  18.290  0.00  0.00    -0.334 N 
ATOM     41  H   UNL     1      -0.713  14.082  19.363  0.00  0.00    +0.062 HD
ATOM     42  H   UNL     1      -2.632  12.530  19.299  0.00  0.00    +0.062 HD
ATOM     43  H   UNL     1      -2.302  10.117  18.755  0.00  0.00    +0.064 HD
ATOM     44  H   UNL     1      -0.106   8.264  18.253  0.00  0.00    +0.168 HD
BRANCH  35  45
ATOM     45  C   UNL     1       1.936  13.561  18.885  0.00  0.00    +0.351 C 
ATOM     46  F   UNL     1       2.681  13.580  17.745  0.00  0.00    -0.182 F 
ATOM     47  F   UNL     1       2.815  13.233  19.863  0.00  0.00    -0.182 F 
ATOM     48 CL   UNL     1       1.397  15.221  19.241  0.00  0.00    -0.042 Cl
ENDBRANCH  35  45
ENDBRANCH  29  32
ENDBRANCH   3  28
TORSDOF 6
ENDMDL
MODEL 26
REMARK VINA RESULT:    -7.358      3.734      5.016
REMARK INTER + INTRA:          -9.542
REMARK INTER:                  -9.297
REMARK INTRA:                  -0.245
REMARK UNBOUND:                 0.182
REMARK  Name = 
REMARK  6 active torsions:
REMARK  status: ('A' for Active; 'I' for Inactive)
REMARK    1  A    between atoms: C_1  and  N_2
REMARK    2  A    between atoms: C_6  and  C_7
REMARK    3  A    between atoms: C_9  and  C_10
REMARK    4  A    between atoms: C_12  and  N_16
REMARK    5  A    between atoms: C_17  and  C_19
REMARK    6  A    between atoms: C_22  and  C_28
REMARK                            x       y       z     vdW  Elec       q    Type
REMARK                         _______ _______ _______ _____ _____    ______ ____
ROOT
ATOM      1  C   UNL     1      -0.692  11.944  18.956  0.00  0.00    -0.042 A 
ATOM      2  C   UNL     1       0.296  10.984  18.692  0.00  0.00    -0.037 A 
ATOM      3  C   UNL     1       0.041   9.838  17.927  0.00  0.00    +0.034 A 
ATOM      4  C   UNL     1      -1.235   9.628  17.408  0.00  0.00    -0.040 A 
ATOM      5  C   UNL     1      -2.218  10.586  17.600  0.00  0.00    -0.060 A 
ATOM      6  C   UNL     1      -1.943  11.731  18.361  0.00  0.00    -0.058 A 
ATOM      7  H   UNL     1       1.270  11.133  19.155  0.00  0.00    +0.064 HD
ATOM      8  H   UNL     1      -1.476   8.734  16.830  0.00  0.00    +0.064 HD
ATOM      9  H   UNL     1      -3.223  10.426  17.176  0.00  0.00    +0.062 HD
ATOM     10  H   UNL     1      -2.765  12.443  18.510  0.00  0.00    +0.062 HD
ENDROOT
BRANCH   1  13
ATOM     11  C   UNL     1       0.557  14.228  19.476  0.00  0.00    +0.026 C 
ATOM     12  C   UNL     1      -0.930  14.482  19.629  0.00  0.00    -0.035 C 
ATOM     13  C   UNL     1      -0.373  13.098  19.891  0.00  0.00    -0.005 C 
ATOM     14  H   UNL     1       0.936  14.221  18.444  0.00  0.00    +0.039 HD
ATOM     15  H   UNL     1      -1.476  14.699  18.728  0.00  0.00    +0.028 HD
ATOM     16  H   UNL     1      -1.334  15.022  20.472  0.00  0.00    +0.028 HD
ATOM     17  H   UNL     1      -0.318  12.811  20.944  0.00  0.00    +0.036 HD
BRANCH  11  22
ATOM     18  N   UNL     1       1.523  15.012  21.830  0.00  0.00    -0.320 N 
ATOM     19  C   UNL     1       2.783  15.263  22.272  0.00  0.00    +0.120 A 
ATOM     20  N   UNL     1       3.629  15.139  21.278  0.00  0.00    -0.138 NA
ATOM     21  N   UNL     1       2.908  14.785  20.168  0.00  0.00    -0.134 NA
ATOM     22  C   UNL     1       1.637  14.692  20.508  0.00  0.00    +0.137 A 
ATOM     23  H   UNL     1       3.028  15.521  23.287  0.00  0.00    +0.105 HD
BRANCH  18  24
ATOM     24  C   UNL     1       0.355  15.060  22.667  0.00  0.00    +0.014 C 
ATOM     25  H   UNL     1       0.657  14.976  23.711  0.00  0.00    +0.046 HD
ATOM     26  H   UNL     1      -0.155  16.014  22.518  0.00  0.00    +0.046 HD
ATOM     27  H   UNL     1      -0.326  14.260  22.382  0.00  0.00    +0.046 HD
ENDBRANCH  18  24
ENDBRANCH  11  22
ENDBRANCH   1  13
BRANCH   3  28
ATOM     28  N   UNL     1       1.005   8.852  17.681  0.00  0.00    -0.279 N 
ATOM     29  C   UNL     1       1.753   8.184  18.630  0.00  0.00    +0.284 C 
ATOM     30  O   UNL     1       1.740   8.403  19.830  0.00  0.00    -0.267 OA
ATOM     31  H   UNL     1       1.235   8.617  16.740  0.00  0.00    +0.155 HD
BRANCH  29  32
ATOM     32  C   UNL     1       2.644   7.203  18.052  0.00  0.00    +0.195 A 
ATOM     33  N   UNL     1       2.489   5.902  18.094  0.00  0.00    -0.223 NA
ATOM     34  C   UNL     1       3.611   5.359  17.510  0.00  0.00    +0.100 A 
ATOM     35  C   UNL     1       3.974   4.009  17.344  0.00  0.00    +0.064 A 
ATOM     36  C   UNL     1       5.216   3.754  16.712  0.00  0.00    -0.049 A 
ATOM     37  C   UNL     1       6.031   4.789  16.225  0.00  0.00    -0.059 A 
ATOM     38  C   UNL     1       5.656   6.124  16.376  0.00  0.00    -0.036 A 
ATOM     39  C   UNL     1       4.450   6.366  17.044  0.00  0.00    +0.067 A 
ATOM     40  N   UNL     1       3.833   7.528  17.434  0.00  0.00    -0.334 N 
ATOM     41  H   UNL     1       5.556   2.721  16.592  0.00  0.00    +0.062 HD
ATOM     42  H   UNL     1       6.984   4.548  15.745  0.00  0.00    +0.062 HD
ATOM     43  H   UNL     1       6.297   6.933  16.018  0.00  0.00    +0.064 HD
ATOM     44  H   UNL     1       4.174   8.469  17.297  0.00  0.00    +0.168 HD
BRANCH  35  45
ATOM     45  C   UNL     1       3.138   2.882  17.875  0.00  0.00    +0.351 C 
ATOM     46  F   UNL     1       3.661   1.657  17.594  0.00  0.00    -0.182 F 
ATOM     47  F   UNL     1       1.898   2.860  17.330  0.00  0.00    -0.182 F 
ATOM     48 CL   UNL     1       2.900   3.010  19.637  0.00  0.00    -0.042 Cl
ENDBRANCH  35  45
ENDBRANCH  29  32
ENDBRANCH   3  28
TORSDOF 6
ENDMDL
MODEL 27
REMARK VINA RESULT:    -7.193      4.413      9.745
REMARK INTER + INTRA:          -9.324
REMARK INTER:                  -9.326
REMARK INTRA:                   0.002
REMARK UNBOUND:                 0.182
REMARK  Name = 
REMARK  6 active torsions:
REMARK  status: ('A' for Active; 'I' for Inactive)
REMARK    1  A    between atoms: C_1  and  N_2
REMARK    2  A    between atoms: C_6  and  C_7
REMARK    3  A    between atoms: C_9  and  C_10
REMARK    4  A    between atoms: C_12  and  N_16
REMARK    5  A    between atoms: C_17  and  C_19
REMARK    6  A    between atoms: C_22  and  C_28
REMARK                            x       y       z     vdW  Elec       q    Type
REMARK                         _______ _______ _______ _____ _____    ______ ____
ROOT
ATOM      1  C   UNL     1       2.981   4.702  18.808  0.00  0.00    -0.042 A 
ATOM      2  C   UNL     1       2.467   6.006  18.814  0.00  0.00    -0.037 A 
ATOM      3  C   UNL     1       1.798   6.541  19.923  0.00  0.00    +0.034 A 
ATOM      4  C   UNL     1       1.626   5.760  21.064  0.00  0.00    -0.040 A 
ATOM      5  C   UNL     1       2.174   4.489  21.113  0.00  0.00    -0.060 A 
ATOM      6  C   UNL     1       2.848   3.973  19.997  0.00  0.00    -0.058 A 
ATOM      7  H   UNL     1       2.556   6.580  17.894  0.00  0.00    +0.064 HD
ATOM      8  H   UNL     1       1.087   6.136  21.937  0.00  0.00    +0.064 HD
ATOM      9  H   UNL     1       2.052   3.878  22.022  0.00  0.00    +0.062 HD
ATOM     10  H   UNL     1       3.236   2.949  20.076  0.00  0.00    +0.062 HD
ENDROOT
BRANCH   1  13
ATOM     11  C   UNL     1       5.057   3.761  17.445  0.00  0.00    +0.026 C 
ATOM     12  C   UNL     1       3.982   2.692  17.425  0.00  0.00    -0.035 C 
ATOM     13  C   UNL     1       3.589   4.151  17.529  0.00  0.00    -0.005 C 
ATOM     14  H   UNL     1       5.652   3.822  18.367  0.00  0.00    +0.039 HD
ATOM     15  H   UNL     1       3.934   2.042  18.280  0.00  0.00    +0.028 HD
ATOM     16  H   UNL     1       3.713   2.169  16.519  0.00  0.00    +0.028 HD
ATOM     17  H   UNL     1       3.168   4.585  16.617  0.00  0.00    +0.036 HD
BRANCH  11  22
ATOM     18  N   UNL     1       6.737   5.256  16.018  0.00  0.00    -0.320 N 
ATOM     19  C   UNL     1       7.208   5.155  14.748  0.00  0.00    +0.120 A 
ATOM     20  N   UNL     1       6.634   4.143  14.146  0.00  0.00    -0.138 NA
ATOM     21  N   UNL     1       5.780   3.561  15.046  0.00  0.00    -0.134 NA
ATOM     22  C   UNL     1       5.858   4.225  16.183  0.00  0.00    +0.137 A 
ATOM     23  H   UNL     1       7.943   5.816  14.322  0.00  0.00    +0.105 HD
BRANCH  18  24
ATOM     24  C   UNL     1       7.161   6.261  16.954  0.00  0.00    +0.014 C 
ATOM     25  H   UNL     1       6.308   6.578  17.553  0.00  0.00    +0.046 HD
ATOM     26  H   UNL     1       7.924   5.840  17.614  0.00  0.00    +0.046 HD
ATOM     27  H   UNL     1       7.602   7.096  16.412  0.00  0.00    +0.046 HD
ENDBRANCH  18  24
ENDBRANCH  11  22
ENDBRANCH   1  13
BRANCH   3  28
ATOM     28  N   UNL     1       1.247   7.829  19.936  0.00  0.00    -0.279 N 
ATOM     29  C   UNL     1       1.270   8.719  20.991  0.00  0.00    +0.284 C 
ATOM     30  O   UNL     1       1.714   8.491  22.104  0.00  0.00    -0.267 OA
ATOM     31  H   UNL     1       0.738   8.151  19.141  0.00  0.00    +0.155 HD
BRANCH  29  32
ATOM     32  C   UNL     1       0.636   9.979  20.675  0.00  0.00    +0.195 A 
ATOM     33  N   UNL     1      -0.456  10.136  19.965  0.00  0.00    -0.223 NA
ATOM     34  C   UNL     1      -0.642  11.494  19.836  0.00  0.00    +0.100 A 
ATOM     35  C   UNL     1      -1.632  12.202  19.128  0.00  0.00    +0.064 A 
ATOM     36  C   UNL     1      -1.554  13.616  19.163  0.00  0.00    -0.049 A 
ATOM     37  C   UNL     1      -0.572  14.290  19.908  0.00  0.00    -0.059 A 
ATOM     38  C   UNL     1       0.394  13.583  20.622  0.00  0.00    -0.036 A 
ATOM     39  C   UNL     1       0.338  12.186  20.541  0.00  0.00    +0.067 A 
ATOM     40  N   UNL     1       1.159  11.203  21.034  0.00  0.00    -0.334 N 
ATOM     41  H   UNL     1      -2.281  14.208  18.600  0.00  0.00    +0.062 HD
ATOM     42  H   UNL     1      -0.547  15.384  19.906  0.00  0.00    +0.062 HD
ATOM     43  H   UNL     1       1.173  14.104  21.183  0.00  0.00    +0.064 HD
ATOM     44  H   UNL     1       2.003  11.335  21.572  0.00  0.00    +0.168 HD
BRANCH  35  45
ATOM     45  C   UNL     1      -2.678  11.511  18.304  0.00  0.00    +0.351 C 
ATOM     46  F   UNL     1      -2.551  10.155  18.318  0.00  0.00    -0.182 F 
ATOM     47  F   UNL     1      -2.608  11.849  16.994  0.00  0.00    -0.182 F 
ATOM     48 CL   UNL     1      -4.325  11.935  18.837  0.00  0.00    -0.042 Cl
ENDBRANCH  35  45
ENDBRANCH  29  32
ENDBRANCH   3  28
TORSDOF 6
ENDMDL
MODEL 28
REMARK VINA RESULT:    -7.172      4.527      9.726
REMARK INTER + INTRA:          -9.296
REMARK INTER:                  -9.043
REMARK INTRA:                  -0.253
REMARK UNBOUND:                 0.182
REMARK  Name = 
REMARK  6 active torsions:
REMARK  status: ('A' for Active; 'I' for Inactive)
REMARK    1  A    between atoms: C_1  and  N_2
REMARK    2  A    between atoms: C_6  and  C_7
REMARK    3  A    between atoms: C_9  and  C_10
REMARK    4  A    between atoms: C_12  and  N_16
REMARK    5  A    between atoms: C_17  and  C_19
REMARK    6  A    between atoms: C_22  and  C_28
REMARK                            x       y       z     vdW  Elec       q    Type
REMARK                         _______ _______ _______ _____ _____    ______ ____
ROOT
ATOM      1  C   UNL     1       3.558   5.928  19.201  0.00  0.00    -0.042 A 
ATOM      2  C   UNL     1       2.838   7.082  19.540  0.00  0.00    -0.037 A 
ATOM      3  C   UNL     1       1.706   7.044  20.364  0.00  0.00    +0.034 A 
ATOM      4  C   UNL     1       1.264   5.822  20.867  0.00  0.00    -0.040 A 
ATOM      5  C   UNL     1       1.986   4.670  20.601  0.00  0.00    -0.060 A 
ATOM      6  C   UNL     1       3.123   4.728  19.782  0.00  0.00    -0.058 A 
ATOM      7  H   UNL     1       3.161   8.019  19.090  0.00  0.00    +0.064 HD
ATOM      8  H   UNL     1       0.370   5.751  21.491  0.00  0.00    +0.064 HD
ATOM      9  H   UNL     1       1.645   3.706  21.013  0.00  0.00    +0.062 HD
ATOM     10  H   UNL     1       3.641   3.783  19.576  0.00  0.00    +0.062 HD
ENDROOT
BRANCH   1  13
ATOM     11  C   UNL     1       4.460   6.036  16.707  0.00  0.00    +0.026 C 
ATOM     12  C   UNL     1       4.919   7.300  17.407  0.00  0.00    -0.035 C 
ATOM     13  C   UNL     1       4.703   6.033  18.209  0.00  0.00    -0.005 C 
ATOM     14  H   UNL     1       3.417   6.034  16.361  0.00  0.00    +0.039 HD
ATOM     15  H   UNL     1       4.213   8.110  17.450  0.00  0.00    +0.028 HD
ATOM     16  H   UNL     1       5.931   7.666  17.322  0.00  0.00    +0.028 HD
ATOM     17  H   UNL     1       5.616   5.527  18.533  0.00  0.00    +0.036 HD
BRANCH  11  22
ATOM     18  N   UNL     1       6.589   4.554  16.102  0.00  0.00    -0.320 N 
ATOM     19  C   UNL     1       6.915   3.812  15.012  0.00  0.00    +0.120 A 
ATOM     20  N   UNL     1       5.989   3.949  14.095  0.00  0.00    -0.138 NA
ATOM     21  N   UNL     1       5.031   4.787  14.601  0.00  0.00    -0.134 NA
ATOM     22  C   UNL     1       5.387   5.138  15.822  0.00  0.00    +0.137 A 
ATOM     23  H   UNL     1       7.802   3.208  14.935  0.00  0.00    +0.105 HD
BRANCH  18  24
ATOM     24  C   UNL     1       7.392   4.628  17.292  0.00  0.00    +0.014 C 
ATOM     25  H   UNL     1       8.342   4.125  17.117  0.00  0.00    +0.046 HD
ATOM     26  H   UNL     1       7.581   5.676  17.535  0.00  0.00    +0.046 HD
ATOM     27  H   UNL     1       6.848   4.179  18.122  0.00  0.00    +0.046 HD
ENDBRANCH  18  24
ENDBRANCH  11  22
ENDBRANCH   1  13
BRANCH   3  28
ATOM     28  N   UNL     1       0.954   8.181  20.685  0.00  0.00    -0.279 N 
ATOM     29  C   UNL     1       1.169   9.030  21.753  0.00  0.00    +0.284 C 
ATOM     30  O   UNL     1       2.008   8.878  22.625  0.00  0.00    -0.267 OA
ATOM     31  H   UNL     1       0.149   8.404  20.142  0.00  0.00    +0.155 HD
BRANCH  29  32
ATOM     32  C   UNL     1       0.232  10.130  21.791  0.00  0.00    +0.195 A 
ATOM     33  N   UNL     1       0.183  11.131  20.944  0.00  0.00    -0.223 NA
ATOM     34  C   UNL     1      -0.789  11.987  21.412  0.00  0.00    +0.100 A 
ATOM     35  C   UNL     1      -1.207  13.233  20.908  0.00  0.00    +0.064 A 
ATOM     36  C   UNL     1      -2.231  13.901  21.624  0.00  0.00    -0.049 A 
ATOM     37  C   UNL     1      -2.843  13.333  22.753  0.00  0.00    -0.059 A 
ATOM     38  C   UNL     1      -2.437  12.089  23.236  0.00  0.00    -0.036 A 
ATOM     39  C   UNL     1      -1.392  11.460  22.550  0.00  0.00    +0.067 A 
ATOM     40  N   UNL     1      -0.700  10.299  22.793  0.00  0.00    -0.334 N 
ATOM     41  H   UNL     1      -2.564  14.887  21.290  0.00  0.00    +0.062 HD
ATOM     42  H   UNL     1      -3.629  13.884  23.278  0.00  0.00    +0.062 HD
ATOM     43  H   UNL     1      -2.895  11.654  24.128  0.00  0.00    +0.064 HD
ATOM     44  H   UNL     1      -0.839   9.663  23.565  0.00  0.00    +0.168 HD
BRANCH  35  45
ATOM     45  C   UNL     1      -0.556  13.876  19.719  0.00  0.00    +0.351 C 
ATOM     46  F   UNL     1       0.787  14.034  19.873  0.00  0.00    -0.182 F 
ATOM     47  F   UNL     1      -1.025  15.127  19.490  0.00  0.00    -0.182 F 
ATOM     48 CL   UNL     1      -0.855  12.955  18.223  0.00  0.00    -0.042 Cl
ENDBRANCH  35  45
ENDBRANCH  29  32
ENDBRANCH   3  28
TORSDOF 6
ENDMDL
MODEL 29
REMARK VINA RESULT:    -7.042      4.233      5.185
REMARK INTER + INTRA:          -9.124
REMARK INTER:                  -9.306
REMARK INTRA:                   0.182
REMARK UNBOUND:                 0.182
REMARK  Name = 
REMARK  6 active torsions:
REMARK  status: ('A' for Active; 'I' for Inactive)
REMARK    1  A    between atoms: C_1  and  N_2
REMARK    2  A    between atoms: C_6  and  C_7
REMARK    3  A    between atoms: C_9  and  C_10
REMARK    4  A    between atoms: C_12  and  N_16
REMARK    5  A    between atoms: C_17  and  C_19
REMARK    6  A    between atoms: C_22  and  C_28
REMARK                            x       y       z     vdW  Elec       q    Type
REMARK                         _______ _______ _______ _____ _____    ______ ____
ROOT
ATOM      1  C   UNL     1       0.352  11.901  21.532  0.00  0.00    -0.042 A 
ATOM      2  C   UNL     1       0.980  10.747  21.043  0.00  0.00    -0.037 A 
ATOM      3  C   UNL     1       0.692   9.469  21.542  0.00  0.00    +0.034 A 
ATOM      4  C   UNL     1      -0.245   9.326  22.564  0.00  0.00    -0.040 A 
ATOM      5  C   UNL     1      -0.926  10.439  23.028  0.00  0.00    -0.060 A 
ATOM      6  C   UNL     1      -0.632  11.709  22.511  0.00  0.00    -0.058 A 
ATOM      7  H   UNL     1       1.752  10.882  20.288  0.00  0.00    +0.064 HD
ATOM      8  H   UNL     1      -0.475   8.350  22.995  0.00  0.00    +0.064 HD
ATOM      9  H   UNL     1      -1.679  10.323  23.826  0.00  0.00    +0.062 HD
ATOM     10  H   UNL     1      -1.178  12.562  22.936  0.00  0.00    +0.062 HD
ENDROOT
BRANCH   1  13
ATOM     11  C   UNL     1       0.998  13.534  19.541  0.00  0.00    +0.026 C 
ATOM     12  C   UNL     1      -0.160  14.168  20.286  0.00  0.00    -0.035 C 
ATOM     13  C   UNL     1       0.802  13.260  21.025  0.00  0.00    -0.005 C 
ATOM     14  H   UNL     1       0.731  12.733  18.837  0.00  0.00    +0.039 HD
ATOM     15  H   UNL     1      -1.146  13.832  20.019  0.00  0.00    +0.028 HD
ATOM     16  H   UNL     1      -0.162  15.213  20.557  0.00  0.00    +0.028 HD
ATOM     17  H   UNL     1       1.504  13.770  21.690  0.00  0.00    +0.036 HD
BRANCH  11  22
ATOM     18  N   UNL     1       3.358  14.729  19.850  0.00  0.00    -0.320 N 
ATOM     19  C   UNL     1       4.242  15.265  18.968  0.00  0.00    +0.120 A 
ATOM     20  N   UNL     1       3.744  15.206  17.758  0.00  0.00    -0.138 NA
ATOM     21  N   UNL     1       2.515  14.607  17.848  0.00  0.00    -0.134 NA
ATOM     22  C   UNL     1       2.291  14.303  19.112  0.00  0.00    +0.137 A 
ATOM     23  H   UNL     1       5.200  15.668  19.243  0.00  0.00    +0.105 HD
BRANCH  18  24
ATOM     24  C   UNL     1       3.593  14.636  21.265  0.00  0.00    +0.014 C 
ATOM     25  H   UNL     1       4.405  13.933  21.449  0.00  0.00    +0.046 HD
ATOM     26  H   UNL     1       3.877  15.618  21.649  0.00  0.00    +0.046 HD
ATOM     27  H   UNL     1       2.675  14.327  21.763  0.00  0.00    +0.046 HD
ENDBRANCH  18  24
ENDBRANCH  11  22
ENDBRANCH   1  13
BRANCH   3  28
ATOM     28  N   UNL     1       1.333   8.309  21.091  0.00  0.00    -0.279 N 
ATOM     29  C   UNL     1       1.687   8.022  19.787  0.00  0.00    +0.284 C 
ATOM     30  O   UNL     1       1.429   8.710  18.814  0.00  0.00    -0.267 OA
ATOM     31  H   UNL     1       1.526   7.574  21.737  0.00  0.00    +0.155 HD
BRANCH  29  32
ATOM     32  C   UNL     1       2.361   6.751  19.656  0.00  0.00    +0.195 A 
ATOM     33  N   UNL     1       1.816   5.569  19.816  0.00  0.00    -0.223 NA
ATOM     34  C   UNL     1       2.836   4.652  19.695  0.00  0.00    +0.100 A 
ATOM     35  C   UNL     1       2.805   3.251  19.831  0.00  0.00    +0.064 A 
ATOM     36  C   UNL     1       4.034   2.566  19.665  0.00  0.00    -0.049 A 
ATOM     37  C   UNL     1       5.222   3.237  19.331  0.00  0.00    -0.059 A 
ATOM     38  C   UNL     1       5.241   4.624  19.180  0.00  0.00    -0.036 A 
ATOM     39  C   UNL     1       4.032   5.295  19.392  0.00  0.00    +0.067 A 
ATOM     40  N   UNL     1       3.713   6.630  19.411  0.00  0.00    -0.334 N 
ATOM     41  H   UNL     1       4.067   1.481  19.796  0.00  0.00    +0.062 HD
ATOM     42  H   UNL     1       6.151   2.670  19.215  0.00  0.00    +0.062 HD
ATOM     43  H   UNL     1       6.168   5.151  18.942  0.00  0.00    +0.064 HD
ATOM     44  H   UNL     1       4.345   7.405  19.267  0.00  0.00    +0.168 HD
BRANCH  35  45
ATOM     45  C   UNL     1       1.558   2.509  20.211  0.00  0.00    +0.351 C 
ATOM     46  F   UNL     1       1.032   2.931  21.394  0.00  0.00    -0.182 F 
ATOM     47  F   UNL     1       1.782   1.184  20.388  0.00  0.00    -0.182 F 
ATOM     48 CL   UNL     1       0.304   2.635  18.951  0.00  0.00    -0.042 Cl
ENDBRANCH  35  45
ENDBRANCH  29  32
ENDBRANCH   3  28
TORSDOF 6
ENDMDL
MODEL 30
REMARK VINA RESULT:    -6.939      2.558      3.369
REMARK INTER + INTRA:          -8.988
REMARK INTER:                  -8.914
REMARK INTRA:                  -0.074
REMARK UNBOUND:                 0.182
REMARK  Name = 
REMARK  6 active torsions:
REMARK  status: ('A' for Active; 'I' for Inactive)
REMARK    1  A    between atoms: C_1  and  N_2
REMARK    2  A    between atoms: C_6  and  C_7
REMARK    3  A    between atoms: C_9  and  C_10
REMARK    4  A    between atoms: C_12  and  N_16
REMARK    5  A    between atoms: C_17  and  C_19
REMARK    6  A    between atoms: C_22  and  C_28
REMARK                            x       y       z     vdW  Elec       q    Type
REMARK                         _______ _______ _______ _____ _____    ______ ____
ROOT
ATOM      1  C   UNL     1       0.584  12.464  19.671  0.00  0.00    -0.042 A 
ATOM      2  C   UNL     1       0.888  11.101  19.555  0.00  0.00    -0.037 A 
ATOM      3  C   UNL     1       1.840  10.621  18.645  0.00  0.00    +0.034 A 
ATOM      4  C   UNL     1       2.510  11.518  17.815  0.00  0.00    -0.040 A 
ATOM      5  C   UNL     1       2.276  12.877  17.945  0.00  0.00    -0.060 A 
ATOM      6  C   UNL     1       1.327  13.340  18.868  0.00  0.00    -0.058 A 
ATOM      7  H   UNL     1       0.313  10.409  20.167  0.00  0.00    +0.064 HD
ATOM      8  H   UNL     1       3.238  11.176  17.076  0.00  0.00    +0.064 HD
ATOM      9  H   UNL     1       2.818  13.587  17.299  0.00  0.00    +0.062 HD
ATOM     10  H   UNL     1       1.156  14.424  18.909  0.00  0.00    +0.062 HD
ENDROOT
BRANCH   1  13
ATOM     11  C   UNL     1      -1.541  11.896  21.158  0.00  0.00    +0.026 C 
ATOM     12  C   UNL     1      -0.514  12.541  22.068  0.00  0.00    -0.035 C 
ATOM     13  C   UNL     1      -0.542  12.896  20.595  0.00  0.00    -0.005 C 
ATOM     14  H   UNL     1      -1.378  10.833  20.933  0.00  0.00    +0.039 HD
ATOM     15  H   UNL     1       0.247  11.896  22.468  0.00  0.00    +0.028 HD
ATOM     16  H   UNL     1      -0.779  13.318  22.770  0.00  0.00    +0.028 HD
ATOM     17  H   UNL     1      -0.951  13.883  20.362  0.00  0.00    +0.036 HD
BRANCH  11  22
ATOM     18  N   UNL     1      -3.937  12.345  20.086  0.00  0.00    -0.320 N 
ATOM     19  C   UNL     1      -5.143  12.662  20.625  0.00  0.00    +0.120 A 
ATOM     20  N   UNL     1      -5.016  12.825  21.918  0.00  0.00    -0.138 NA
ATOM     21  N   UNL     1      -3.702  12.597  22.234  0.00  0.00    -0.134 NA
ATOM     22  C   UNL     1      -3.055  12.290  21.126  0.00  0.00    +0.137 A 
ATOM     23  H   UNL     1      -6.052  12.756  20.057  0.00  0.00    +0.105 HD
BRANCH  18  24
ATOM     24  C   UNL     1      -3.723  12.098  18.686  0.00  0.00    +0.014 C 
ATOM     25  H   UNL     1      -4.471  11.390  18.327  0.00  0.00    +0.046 HD
ATOM     26  H   UNL     1      -3.825  13.035  18.134  0.00  0.00    +0.046 HD
ATOM     27  H   UNL     1      -2.713  11.722  18.536  0.00  0.00    +0.046 HD
ENDBRANCH  18  24
ENDBRANCH  11  22
ENDBRANCH   1  13
BRANCH   3  28
ATOM     28  N   UNL     1       2.133   9.260  18.490  0.00  0.00    -0.279 N 
ATOM     29  C   UNL     1       2.010   8.281  19.457  0.00  0.00    +0.284 C 
ATOM     30  O   UNL     1       1.694   8.466  20.620  0.00  0.00    -0.267 OA
ATOM     31  H   UNL     1       2.515   8.937  17.628  0.00  0.00    +0.155 HD
BRANCH  29  32
ATOM     32  C   UNL     1       2.368   6.967  18.971  0.00  0.00    +0.195 A 
ATOM     33  N   UNL     1       3.381   6.684  18.189  0.00  0.00    -0.223 NA
ATOM     34  C   UNL     1       3.286   5.340  17.903  0.00  0.00    +0.100 A 
ATOM     35  C   UNL     1       4.090   4.540  17.069  0.00  0.00    +0.064 A 
ATOM     36  C   UNL     1       3.731   3.175  16.955  0.00  0.00    -0.049 A 
ATOM     37  C   UNL     1       2.659   2.623  17.676  0.00  0.00    -0.059 A 
ATOM     38  C   UNL     1       1.878   3.418  18.515  0.00  0.00    -0.036 A 
ATOM     39  C   UNL     1       2.212   4.775  18.583  0.00  0.00    +0.067 A 
ATOM     40  N   UNL     1       1.621   5.836  19.224  0.00  0.00    -0.334 N 
ATOM     41  H   UNL     1       4.305   2.522  16.292  0.00  0.00    +0.062 HD
ATOM     42  H   UNL     1       2.415   1.563  17.557  0.00  0.00    +0.062 HD
ATOM     43  H   UNL     1       1.030   2.997  19.059  0.00  0.00    +0.064 HD
ATOM     44  H   UNL     1       0.786   5.810  19.791  0.00  0.00    +0.168 HD
BRANCH  35  45
ATOM     45  C   UNL     1       5.226   5.105  16.268  0.00  0.00    +0.351 C 
ATOM     46  F   UNL     1       4.875   6.217  15.565  0.00  0.00    -0.182 F 
ATOM     47  F   UNL     1       5.678   4.236  15.332  0.00  0.00    -0.182 F 
ATOM     48 CL   UNL     1       6.628   5.498  17.295  0.00  0.00    -0.042 Cl
ENDBRANCH  35  45
ENDBRANCH  29  32
ENDBRANCH   3  28
TORSDOF 6
ENDMDL
MODEL 31
REMARK VINA RESULT:    -6.850      4.402      9.761
REMARK INTER + INTRA:          -8.871
REMARK INTER:                  -8.487
REMARK INTRA:                  -0.384
REMARK UNBOUND:                 0.182
REMARK  Name = 
REMARK  6 active torsions:
REMARK  status: ('A' for Active; 'I' for Inactive)
REMARK    1  A    between atoms: C_1  and  N_2
REMARK    2  A    between atoms: C_6  and  C_7
REMARK    3  A    between atoms: C_9  and  C_10
REMARK    4  A    between atoms: C_12  and  N_16
REMARK    5  A    between atoms: C_17  and  C_19
REMARK    6  A    between atoms: C_22  and  C_28
REMARK                            x       y       z     vdW  Elec       q    Type
REMARK                         _______ _______ _______ _____ _____    ______ ____
ROOT
ATOM      1  C   UNL     1       2.999   4.986  18.723  0.00  0.00    -0.042 A 
ATOM      2  C   UNL     1       2.261   6.178  18.752  0.00  0.00    -0.037 A 
ATOM      3  C   UNL     1       1.652   6.653  19.921  0.00  0.00    +0.034 A 
ATOM      4  C   UNL     1       1.769   5.923  21.102  0.00  0.00    -0.040 A 
ATOM      5  C   UNL     1       2.540   4.773  21.122  0.00  0.00    -0.060 A 
ATOM      6  C   UNL     1       3.150   4.316  19.945  0.00  0.00    -0.058 A 
ATOM      7  H   UNL     1       2.129   6.704  17.808  0.00  0.00    +0.064 HD
ATOM      8  H   UNL     1       1.285   6.250  22.025  0.00  0.00    +0.064 HD
ATOM      9  H   UNL     1       2.645   4.204  22.061  0.00  0.00    +0.062 HD
ATOM     10  H   UNL     1       3.724   3.383  20.008  0.00  0.00    +0.062 HD
ENDROOT
BRANCH   1  13
ATOM     11  C   UNL     1       4.906   3.837  17.277  0.00  0.00    +0.026 C 
ATOM     12  C   UNL     1       3.658   2.988  17.133  0.00  0.00    -0.035 C 
ATOM     13  C   UNL     1       3.529   4.475  17.395  0.00  0.00    -0.005 C 
ATOM     14  H   UNL     1       5.478   3.690  18.203  0.00  0.00    +0.039 HD
ATOM     15  H   UNL     1       3.472   2.270  17.911  0.00  0.00    +0.028 HD
ATOM     16  H   UNL     1       3.322   2.623  16.174  0.00  0.00    +0.028 HD
ATOM     17  H   UNL     1       3.217   5.073  16.535  0.00  0.00    +0.036 HD
BRANCH  11  22
ATOM     18  N   UNL     1       6.751   5.265  15.993  0.00  0.00    -0.320 N 
ATOM     19  C   UNL     1       7.295   5.163  14.752  0.00  0.00    +0.120 A 
ATOM     20  N   UNL     1       6.707   4.196  14.093  0.00  0.00    -0.138 NA
ATOM     21  N   UNL     1       5.768   3.644  14.924  0.00  0.00    -0.134 NA
ATOM     22  C   UNL     1       5.809   4.280  16.079  0.00  0.00    +0.137 A 
ATOM     23  H   UNL     1       8.090   5.791  14.388  0.00  0.00    +0.105 HD
BRANCH  18  24
ATOM     24  C   UNL     1       7.168   6.226  16.976  0.00  0.00    +0.014 C 
ATOM     25  H   UNL     1       6.340   6.430  17.655  0.00  0.00    +0.046 HD
ATOM     26  H   UNL     1       8.006   5.818  17.547  0.00  0.00    +0.046 HD
ATOM     27  H   UNL     1       7.506   7.132  16.475  0.00  0.00    +0.046 HD
ENDBRANCH  18  24
ENDBRANCH  11  22
ENDBRANCH   1  13
BRANCH   3  28
ATOM     28  N   UNL     1       0.883   7.823  19.962  0.00  0.00    -0.279 N 
ATOM     29  C   UNL     1       1.123   8.986  19.257  0.00  0.00    +0.284 C 
ATOM     30  O   UNL     1       2.088   9.197  18.541  0.00  0.00    -0.267 OA
ATOM     31  H   UNL     1       0.107   7.877  20.585  0.00  0.00    +0.155 HD
BRANCH  29  32
ATOM     32  C   UNL     1       0.126  10.004  19.499  0.00  0.00    +0.195 A 
ATOM     33  N   UNL     1       0.056  10.779  20.554  0.00  0.00    -0.223 NA
ATOM     34  C   UNL     1      -1.094  11.523  20.414  0.00  0.00    +0.100 A 
ATOM     35  C   UNL     1      -1.665  12.468  21.287  0.00  0.00    +0.064 A 
ATOM     36  C   UNL     1      -2.882  13.066  20.875  0.00  0.00    -0.049 A 
ATOM     37  C   UNL     1      -3.472  12.775  19.633  0.00  0.00    -0.059 A 
ATOM     38  C   UNL     1      -2.890  11.851  18.765  0.00  0.00    -0.036 A 
ATOM     39  C   UNL     1      -1.714  11.231  19.203  0.00  0.00    +0.067 A 
ATOM     40  N   UNL     1      -0.942  10.237  18.658  0.00  0.00    -0.334 N 
ATOM     41  H   UNL     1      -3.381  13.780  21.535  0.00  0.00    +0.062 HD
ATOM     42  H   UNL     1      -4.413  13.258  19.355  0.00  0.00    +0.062 HD
ATOM     43  H   UNL     1      -3.358  11.606  17.809  0.00  0.00    +0.064 HD
ATOM     44  H   UNL     1      -1.108   9.750  17.788  0.00  0.00    +0.168 HD
BRANCH  35  45
ATOM     45  C   UNL     1      -1.073  12.781  22.629  0.00  0.00    +0.351 C 
ATOM     46  F   UNL     1       0.133  13.407  22.542  0.00  0.00    -0.182 F 
ATOM     47  F   UNL     1      -0.827  11.664  23.356  0.00  0.00    -0.182 F 
ATOM     48 CL   UNL     1      -2.166  13.783  23.617  0.00  0.00    -0.042 Cl
ENDBRANCH  35  45
ENDBRANCH  29  32
ENDBRANCH   3  28
TORSDOF 6
ENDMDL
MODEL 32
REMARK VINA RESULT:    -6.835      5.294     10.422
REMARK INTER + INTRA:          -8.851
REMARK INTER:                  -8.667
REMARK INTRA:                  -0.185
REMARK UNBOUND:                 0.182
REMARK  Name = 
REMARK  6 active torsions:
REMARK  status: ('A' for Active; 'I' for Inactive)
REMARK    1  A    between atoms: C_1  and  N_2
REMARK    2  A    between atoms: C_6  and  C_7
REMARK    3  A    between atoms: C_9  and  C_10
REMARK    4  A    between atoms: C_12  and  N_16
REMARK    5  A    between atoms: C_17  and  C_19
REMARK    6  A    between atoms: C_22  and  C_28
REMARK                            x       y       z     vdW  Elec       q    Type
REMARK                         _______ _______ _______ _____ _____    ______ ____
ROOT
ATOM      1  C   UNL     1       2.398   7.483  18.919  0.00  0.00    -0.042 A 
ATOM      2  C   UNL     1       1.392   8.105  19.671  0.00  0.00    -0.037 A 
ATOM      3  C   UNL     1       0.898   9.377  19.353  0.00  0.00    +0.034 A 
ATOM      4  C   UNL     1       1.420  10.062  18.257  0.00  0.00    -0.040 A 
ATOM      5  C   UNL     1       2.373   9.452  17.459  0.00  0.00    -0.060 A 
ATOM      6  C   UNL     1       2.849   8.174  17.786  0.00  0.00    -0.058 A 
ATOM      7  H   UNL     1       1.039   7.583  20.558  0.00  0.00    +0.064 HD
ATOM      8  H   UNL     1       1.078  11.066  17.996  0.00  0.00    +0.064 HD
ATOM      9  H   UNL     1       2.773   9.988  16.582  0.00  0.00    +0.062 HD
ATOM     10  H   UNL     1       3.626   7.748  17.139  0.00  0.00    +0.062 HD
ENDROOT
BRANCH   1  13
ATOM     11  C   UNL     1       3.428   5.088  18.414  0.00  0.00    +0.026 C 
ATOM     12  C   UNL     1       4.441   5.848  19.249  0.00  0.00    -0.035 C 
ATOM     13  C   UNL     1       2.965   6.156  19.394  0.00  0.00    -0.005 C 
ATOM     14  H   UNL     1       3.409   5.339  17.344  0.00  0.00    +0.039 HD
ATOM     15  H   UNL     1       5.097   6.515  18.719  0.00  0.00    +0.028 HD
ATOM     16  H   UNL     1       4.939   5.396  20.094  0.00  0.00    +0.028 HD
ATOM     17  H   UNL     1       2.499   5.778  20.309  0.00  0.00    +0.036 HD
BRANCH  11  22
ATOM     18  N   UNL     1       1.898   3.116  19.339  0.00  0.00    -0.320 N 
ATOM     19  C   UNL     1       1.964   1.764  19.219  0.00  0.00    +0.120 A 
ATOM     20  N   UNL     1       3.051   1.435  18.565  0.00  0.00    -0.138 NA
ATOM     21  N   UNL     1       3.701   2.596  18.239  0.00  0.00    -0.134 NA
ATOM     22  C   UNL     1       2.993   3.612  18.692  0.00  0.00    +0.137 A 
ATOM     23  H   UNL     1       1.225   1.086  19.608  0.00  0.00    +0.105 HD
BRANCH  18  24
ATOM     24  C   UNL     1       0.829   3.811  20.003  0.00  0.00    +0.014 C 
ATOM     25  H   UNL     1       0.504   4.647  19.385  0.00  0.00    +0.046 HD
ATOM     26  H   UNL     1      -0.010   3.126  20.149  0.00  0.00    +0.046 HD
ATOM     27  H   UNL     1       1.169   4.146  20.982  0.00  0.00    +0.046 HD
ENDBRANCH  18  24
ENDBRANCH  11  22
ENDBRANCH   1  13
BRANCH   3  28
ATOM     28  N   UNL     1      -0.082  10.030  20.112  0.00  0.00    -0.279 N 
ATOM     29  C   UNL     1       0.038  10.443  21.424  0.00  0.00    +0.284 C 
ATOM     30  O   UNL     1       0.998  10.237  22.149  0.00  0.00    -0.267 OA
ATOM     31  H   UNL     1      -0.983  10.185  19.716  0.00  0.00    +0.155 HD
BRANCH  29  32
ATOM     32  C   UNL     1      -1.146  11.112  21.912  0.00  0.00    +0.195 A 
ATOM     33  N   UNL     1      -1.955  11.863  21.203  0.00  0.00    -0.223 NA
ATOM     34  C   UNL     1      -2.884  12.370  22.083  0.00  0.00    +0.100 A 
ATOM     35  C   UNL     1      -3.942  13.270  21.852  0.00  0.00    +0.064 A 
ATOM     36  C   UNL     1      -4.731  13.628  22.973  0.00  0.00    -0.049 A 
ATOM     37  C   UNL     1      -4.510  13.080  24.247  0.00  0.00    -0.059 A 
ATOM     38  C   UNL     1      -3.471  12.175  24.464  0.00  0.00    -0.036 A 
ATOM     39  C   UNL     1      -2.668  11.864  23.360  0.00  0.00    +0.067 A 
ATOM     40  N   UNL     1      -1.536  11.098  23.234  0.00  0.00    -0.334 N 
ATOM     41  H   UNL     1      -5.543  14.351  22.849  0.00  0.00    +0.062 HD
ATOM     42  H   UNL     1      -5.141  13.387  25.086  0.00  0.00    +0.062 HD
ATOM     43  H   UNL     1      -3.282  11.763  25.458  0.00  0.00    +0.064 HD
ATOM     44  H   UNL     1      -1.059  10.598  23.972  0.00  0.00    +0.168 HD
BRANCH  35  45
ATOM     45  C   UNL     1      -4.188  13.891  20.509  0.00  0.00    +0.351 C 
ATOM     46  F   UNL     1      -3.091  14.525  20.011  0.00  0.00    -0.182 F 
ATOM     47  F   UNL     1      -5.147  14.848  20.553  0.00  0.00    -0.182 F 
ATOM     48 CL   UNL     1      -4.744  12.689  19.316  0.00  0.00    -0.042 Cl
ENDBRANCH  35  45
ENDBRANCH  29  32
ENDBRANCH   3  28
TORSDOF 6
ENDMDL
