MODEL 1
REMARK VINA RESULT:    -6.777      0.000      0.000
REMARK INTER + INTRA:         -11.294
REMARK INTER:                 -10.449
REMARK INTRA:                  -0.845
REMARK UNBOUND:                -0.951
REMARK  Name = 
REMARK  10 active torsions:
REMARK  status: ('A' for Active; 'I' for Inactive)
REMARK    1  A    between atoms: C_1  and  O_2
REMARK    2  A    between atoms: O_2  and  C_3
REMARK    3  A    between atoms: C_3  and  C_4
REMARK    4  A    between atoms: C_4  and  N_5
REMARK    5  A    between atoms: C_9  and  C_10
REMARK    6  A    between atoms: C_10  and  N_11
REMARK    7  A    between atoms: N_11  and  C_12
REMARK    8  A    between atoms: C_12  and  C_13
REMARK    9  A    between atoms: C_22  and  C_23
REMARK   10  A    between atoms: N_26  and  C_27
REMARK                            x       y       z     vdW  Elec       q    Type
REMARK                         _______ _______ _______ _____ _____    ______ ____
ROOT
ATOM      1  N   UNL     1       3.722   4.558  19.372  0.00  0.00    -0.292 N 
ATOM      2  C   UNL     1       2.448   4.835  19.857  0.00  0.00    +0.217 C 
ATOM      3  O   UNL     1       1.819   4.190  20.682  0.00  0.00    -0.276 OA
ATOM      4  C   UNL     1       1.979   6.140  19.262  0.00  0.00    +0.030 C 
ATOM      5  C   UNL     1       2.984   6.398  18.138  0.00  0.00    +0.003 C 
ATOM      6  C   UNL     1       4.250   5.686  18.627  0.00  0.00    +0.059 C 
ATOM      7  H   UNL     1       2.001   6.899  20.049  0.00  0.00    +0.036 HD
ATOM      8  H   UNL     1       0.963   6.038  18.873  0.00  0.00    +0.036 HD
ATOM      9  H   UNL     1       2.596   5.893  17.241  0.00  0.00    +0.034 HD
ATOM     10  H   UNL     1       4.793   6.303  19.354  0.00  0.00    +0.055 HD
ENDROOT
BRANCH   6  11
ATOM     11  C   UNL     1       5.170   5.268  17.531  0.00  0.00    +0.011 A 
ATOM     12  C   UNL     1       6.584   5.198  17.536  0.00  0.00    +0.054 A 
ATOM     13  N   UNL     1       7.085   4.752  16.382  0.00  0.00    -0.180 NA
ATOM     14  N   UNL     1       5.995   4.529  15.628  0.00  0.00    -0.274 N 
ATOM     15  C   UNL     1       4.827   4.825  16.266  0.00  0.00    +0.030 A 
ATOM     16  H   UNL     1       7.267   5.464  18.336  0.00  0.00    +0.085 HD
ATOM     17  H   UNL     1       3.867   4.690  15.790  0.00  0.00    +0.083 HD
BRANCH  14  18
ATOM     18  C   UNL     1       6.151   4.013  14.291  0.00  0.00    +0.030 C 
ATOM     19  H   UNL     1       6.845   3.170  14.324  0.00  0.00    +0.047 HD
ATOM     20  H   UNL     1       6.550   4.798  13.643  0.00  0.00    +0.047 HD
ATOM     21  H   UNL     1       5.170   3.692  13.930  0.00  0.00    +0.047 HD
ENDBRANCH  14  18
ENDBRANCH   6  11
BRANCH   1  22
ATOM     22  C   UNL     1       4.560   3.519  19.967  0.00  0.00    +0.039 C 
ATOM     23  H   UNL     1       4.456   3.584  21.055  0.00  0.00    +0.049 HD
ATOM     24  H   UNL     1       5.608   3.739  19.736  0.00  0.00    +0.049 HD
BRANCH  22  25
ATOM     25  C   UNL     1       4.202   2.096  19.511  0.00  0.00    +0.063 C 
ATOM     26  H   UNL     1       3.385   1.697  20.126  0.00  0.00    +0.058 HD
ATOM     27  H   UNL     1       5.055   1.431  19.664  0.00  0.00    +0.058 HD
BRANCH  25  28
ATOM     28  O   UNL     1       3.857   2.005  18.127  0.00  0.00    -0.381 OA
BRANCH  28  29
ATOM     29  C   UNL     1       2.465   1.828  17.906  0.00  0.00    +0.037 C 
ATOM     30  H   UNL     1       1.953   2.796  17.925  0.00  0.00    +0.052 HD
ATOM     31  H   UNL     1       2.268   1.324  16.958  0.00  0.00    +0.052 HD
ATOM     32  H   UNL     1       2.067   1.211  18.715  0.00  0.00    +0.052 HD
ENDBRANCH  28  29
ENDBRANCH  25  28
ENDBRANCH  22  25
ENDBRANCH   1  22
BRANCH   5  33
ATOM     33  C   UNL     1       3.185   7.873  17.773  0.00  0.00    +0.002 C 
ATOM     34  H   UNL     1       3.849   7.924  16.902  0.00  0.00    +0.043 HD
ATOM     35  H   UNL     1       3.702   8.362  18.607  0.00  0.00    +0.043 HD
BRANCH  33  36
ATOM     36  N   UNL     1       1.927   8.575  17.489  0.00  0.00    -0.310 NA
ATOM     37  H   UNL     1       1.747   8.559  16.485  0.00  0.00    +0.122 HD
BRANCH  36  38
ATOM     38  C   UNL     1       1.989   9.986  17.904  0.00  0.00    +0.040 C 
ATOM     39  H   UNL     1       3.039  10.246  18.077  0.00  0.00    +0.049 HD
ATOM     40  H   UNL     1       1.632  10.651  17.109  0.00  0.00    +0.049 HD
BRANCH  38  41
ATOM     41  C   UNL     1       1.220  10.205  19.167  0.00  0.00    +0.074 A 
ATOM     42  C   UNL     1       0.503  11.318  19.560  0.00  0.00    +0.034 A 
ATOM     43  N   UNL     1       0.003  11.023  20.803  0.00  0.00    -0.306 N 
ATOM     44  C   UNL     1      -0.786  11.797  21.650  0.00  0.00    +0.011 A 
ATOM     45  C   UNL     1      -1.157  11.292  22.840  0.00  0.00    -0.045 A 
ATOM     46  C   UNL     1      -0.723   9.950  23.201  0.00  0.00    -0.057 A 
ATOM     47  C   UNL     1       0.040   9.208  22.374  0.00  0.00    -0.019 A 
ATOM     48  C   UNL     1       0.439   9.739  21.114  0.00  0.00    +0.138 A 
ATOM     49  N   UNL     1       1.170   9.232  20.145  0.00  0.00    -0.231 NA
ATOM     50  H   UNL     1       0.315  12.266  19.076  0.00  0.00    +0.083 HD
ATOM     51  H   UNL     1      -1.068  12.785  21.309  0.00  0.00    +0.081 HD
ATOM     52  H   UNL     1      -1.771  11.852  23.537  0.00  0.00    +0.063 HD
ATOM     53  H   UNL     1      -1.035   9.559  24.165  0.00  0.00    +0.062 HD
ATOM     54  H   UNL     1       0.364   8.208  22.639  0.00  0.00    +0.065 HD
ENDBRANCH  38  41
ENDBRANCH  36  38
ENDBRANCH  33  36
ENDBRANCH   5  33
TORSDOF 10
ENDMDL
MODEL 2
REMARK VINA RESULT:    -6.763      1.288      1.486
REMARK INTER + INTRA:         -11.273
REMARK INTER:                 -10.633
REMARK INTRA:                  -0.640
REMARK UNBOUND:                -0.951
REMARK  Name = 
REMARK  10 active torsions:
REMARK  status: ('A' for Active; 'I' for Inactive)
REMARK    1  A    between atoms: C_1  and  O_2
REMARK    2  A    between atoms: O_2  and  C_3
REMARK    3  A    between atoms: C_3  and  C_4
REMARK    4  A    between atoms: C_4  and  N_5
REMARK    5  A    between atoms: C_9  and  C_10
REMARK    6  A    between atoms: C_10  and  N_11
REMARK    7  A    between atoms: N_11  and  C_12
REMARK    8  A    between atoms: C_12  and  C_13
REMARK    9  A    between atoms: C_22  and  C_23
REMARK   10  A    between atoms: N_26  and  C_27
REMARK                            x       y       z     vdW  Elec       q    Type
REMARK                         _______ _______ _______ _____ _____    ______ ____
ROOT
ATOM      1  N   UNL     1       3.086   3.410  18.016  0.00  0.00    -0.292 N 
ATOM      2  C   UNL     1       1.744   3.674  18.266  0.00  0.00    +0.217 C 
ATOM      3  O   UNL     1       0.865   2.858  18.500  0.00  0.00    -0.276 OA
ATOM      4  C   UNL     1       1.544   5.169  18.297  0.00  0.00    +0.030 C 
ATOM      5  C   UNL     1       2.848   5.713  17.709  0.00  0.00    +0.003 C 
ATOM      6  C   UNL     1       3.872   4.629  18.063  0.00  0.00    +0.059 C 
ATOM      7  H   UNL     1       1.376   5.468  19.335  0.00  0.00    +0.036 HD
ATOM      8  H   UNL     1       0.683   5.451  17.686  0.00  0.00    +0.036 HD
ATOM      9  H   UNL     1       2.712   5.755  16.618  0.00  0.00    +0.034 HD
ATOM     10  H   UNL     1       4.211   4.732  19.102  0.00  0.00    +0.055 HD
ENDROOT
BRANCH   6  11
ATOM     11  C   UNL     1       5.049   4.587  17.148  0.00  0.00    +0.011 A 
ATOM     12  C   UNL     1       6.426   4.536  17.474  0.00  0.00    +0.054 A 
ATOM     13  N   UNL     1       7.211   4.481  16.396  0.00  0.00    -0.180 NA
ATOM     14  N   UNL     1       6.343   4.495  15.370  0.00  0.00    -0.274 N 
ATOM     15  C   UNL     1       5.040   4.562  15.765  0.00  0.00    +0.030 A 
ATOM     16  H   UNL     1       6.884   4.544  18.457  0.00  0.00    +0.085 HD
ATOM     17  H   UNL     1       4.228   4.573  15.053  0.00  0.00    +0.083 HD
BRANCH  14  18
ATOM     18  C   UNL     1       6.841   4.428  14.019  0.00  0.00    +0.030 C 
ATOM     19  H   UNL     1       7.932   4.392  14.053  0.00  0.00    +0.047 HD
ATOM     20  H   UNL     1       6.515   5.314  13.467  0.00  0.00    +0.047 HD
ATOM     21  H   UNL     1       6.439   3.527  13.549  0.00  0.00    +0.047 HD
ENDBRANCH  14  18
ENDBRANCH   6  11
BRANCH   1  22
ATOM     22  C   UNL     1       3.653   2.076  18.200  0.00  0.00    +0.039 C 
ATOM     23  H   UNL     1       4.515   1.980  17.532  0.00  0.00    +0.049 HD
ATOM     24  H   UNL     1       2.917   1.334  17.874  0.00  0.00    +0.049 HD
BRANCH  22  25
ATOM     25  C   UNL     1       4.098   1.785  19.642  0.00  0.00    +0.063 C 
ATOM     26  H   UNL     1       5.176   1.586  19.671  0.00  0.00    +0.058 HD
ATOM     27  H   UNL     1       3.608   0.879  20.006  0.00  0.00    +0.058 HD
BRANCH  25  28
ATOM     28  O   UNL     1       3.770   2.825  20.566  0.00  0.00    -0.381 OA
BRANCH  28  29
ATOM     29  C   UNL     1       2.748   2.460  21.482  0.00  0.00    +0.037 C 
ATOM     30  H   UNL     1       1.765   2.728  21.080  0.00  0.00    +0.052 HD
ATOM     31  H   UNL     1       2.776   1.394  21.713  0.00  0.00    +0.052 HD
ATOM     32  H   UNL     1       2.905   3.018  22.409  0.00  0.00    +0.052 HD
ENDBRANCH  28  29
ENDBRANCH  25  28
ENDBRANCH  22  25
ENDBRANCH   1  22
BRANCH   5  33
ATOM     33  C   UNL     1       3.230   7.124  18.171  0.00  0.00    +0.002 C 
ATOM     34  H   UNL     1       3.346   7.756  17.283  0.00  0.00    +0.043 HD
ATOM     35  H   UNL     1       4.208   7.067  18.662  0.00  0.00    +0.043 HD
BRANCH  33  36
ATOM     36  N   UNL     1       2.249   7.717  19.088  0.00  0.00    -0.310 NA
ATOM     37  H   UNL     1       1.504   7.045  19.272  0.00  0.00    +0.122 HD
BRANCH  36  38
ATOM     38  C   UNL     1       1.625   8.919  18.510  0.00  0.00    +0.040 C 
ATOM     39  H   UNL     1       2.424   9.595  18.183  0.00  0.00    +0.049 HD
ATOM     40  H   UNL     1       1.041   8.674  17.616  0.00  0.00    +0.049 HD
BRANCH  38  41
ATOM     41  C   UNL     1       0.780   9.622  19.524  0.00  0.00    +0.074 A 
ATOM     42  C   UNL     1      -0.008  10.745  19.363  0.00  0.00    +0.034 A 
ATOM     43  N   UNL     1      -0.559  10.995  20.594  0.00  0.00    -0.306 N 
ATOM     44  C   UNL     1      -1.427  12.010  20.988  0.00  0.00    +0.011 A 
ATOM     45  C   UNL     1      -1.839  12.057  22.268  0.00  0.00    -0.045 A 
ATOM     46  C   UNL     1      -1.364  11.042  23.198  0.00  0.00    -0.057 A 
ATOM     47  C   UNL     1      -0.524  10.063  22.806  0.00  0.00    -0.019 A 
ATOM     48  C   UNL     1      -0.083  10.011  21.453  0.00  0.00    +0.138 A 
ATOM     49  N   UNL     1       0.722   9.177  20.829  0.00  0.00    -0.231 NA
ATOM     50  H   UNL     1      -0.212  11.368  18.505  0.00  0.00    +0.083 HD
ATOM     51  H   UNL     1      -1.736  12.726  20.238  0.00  0.00    +0.081 HD
ATOM     52  H   UNL     1      -2.514  12.826  22.628  0.00  0.00    +0.063 HD
ATOM     53  H   UNL     1      -1.710  11.096  24.226  0.00  0.00    +0.062 HD
ATOM     54  H   UNL     1      -0.170   9.306  23.496  0.00  0.00    +0.065 HD
ENDBRANCH  38  41
ENDBRANCH  36  38
ENDBRANCH  33  36
ENDBRANCH   5  33
TORSDOF 10
ENDMDL
MODEL 3
REMARK VINA RESULT:    -6.702      2.643      8.249
REMARK INTER + INTRA:         -11.179
REMARK INTER:                 -10.550
REMARK INTRA:                  -0.629
REMARK UNBOUND:                -0.951
REMARK  Name = 
REMARK  10 active torsions:
REMARK  status: ('A' for Active; 'I' for Inactive)
REMARK    1  A    between atoms: C_1  and  O_2
REMARK    2  A    between atoms: O_2  and  C_3
REMARK    3  A    between atoms: C_3  and  C_4
REMARK    4  A    between atoms: C_4  and  N_5
REMARK    5  A    between atoms: C_9  and  C_10
REMARK    6  A    between atoms: C_10  and  N_11
REMARK    7  A    between atoms: N_11  and  C_12
REMARK    8  A    between atoms: C_12  and  C_13
REMARK    9  A    between atoms: C_22  and  C_23
REMARK   10  A    between atoms: N_26  and  C_27
REMARK                            x       y       z     vdW  Elec       q    Type
REMARK                         _______ _______ _______ _____ _____    ______ ____
ROOT
ATOM      1  N   UNL     1       1.678   7.870  19.897  0.00  0.00    -0.292 N 
ATOM      2  C   UNL     1       1.706   8.949  19.021  0.00  0.00    +0.217 C 
ATOM      3  O   UNL     1       1.242  10.063  19.212  0.00  0.00    -0.276 OA
ATOM      4  C   UNL     1       2.497   8.557  17.798  0.00  0.00    +0.030 C 
ATOM      5  C   UNL     1       2.628   7.039  17.932  0.00  0.00    +0.003 C 
ATOM      6  C   UNL     1       2.565   6.813  19.447  0.00  0.00    +0.059 C 
ATOM      7  H   UNL     1       3.456   9.082  17.831  0.00  0.00    +0.036 HD
ATOM      8  H   UNL     1       1.955   8.832  16.889  0.00  0.00    +0.036 HD
ATOM      9  H   UNL     1       1.740   6.599  17.453  0.00  0.00    +0.034 HD
ATOM     10  H   UNL     1       3.537   7.012  19.915  0.00  0.00    +0.055 HD
ENDROOT
BRANCH   6  11
ATOM     11  C   UNL     1       2.084   5.456  19.836  0.00  0.00    +0.011 A 
ATOM     12  C   UNL     1       1.288   4.550  19.096  0.00  0.00    +0.054 A 
ATOM     13  N   UNL     1       1.068   3.404  19.745  0.00  0.00    -0.180 NA
ATOM     14  N   UNL     1       1.724   3.566  20.905  0.00  0.00    -0.274 N 
ATOM     15  C   UNL     1       2.344   4.776  21.012  0.00  0.00    +0.030 A 
ATOM     16  H   UNL     1       0.854   4.687  18.111  0.00  0.00    +0.085 HD
ATOM     17  H   UNL     1       2.918   5.048  21.886  0.00  0.00    +0.083 HD
BRANCH  14  18
ATOM     18  C   UNL     1       1.724   2.499  21.875  0.00  0.00    +0.030 C 
ATOM     19  H   UNL     1       1.777   1.547  21.342  0.00  0.00    +0.047 HD
ATOM     20  H   UNL     1       0.804   2.544  22.465  0.00  0.00    +0.047 HD
ATOM     21  H   UNL     1       2.592   2.627  22.526  0.00  0.00    +0.047 HD
ENDBRANCH  14  18
ENDBRANCH   6  11
BRANCH   1  22
ATOM     22  C   UNL     1       1.235   8.016  21.282  0.00  0.00    +0.039 C 
ATOM     23  H   UNL     1       1.775   8.862  21.721  0.00  0.00    +0.049 HD
ATOM     24  H   UNL     1       1.535   7.125  21.843  0.00  0.00    +0.049 HD
BRANCH  22  25
ATOM     25  C   UNL     1      -0.276   8.252  21.428  0.00  0.00    +0.063 C 
ATOM     26  H   UNL     1      -0.818   7.303  21.333  0.00  0.00    +0.058 HD
ATOM     27  H   UNL     1      -0.633   8.891  20.616  0.00  0.00    +0.058 HD
BRANCH  25  28
ATOM     28  O   UNL     1      -0.642   8.901  22.647  0.00  0.00    -0.381 OA
BRANCH  28  29
ATOM     29  C   UNL     1      -0.358  10.293  22.650  0.00  0.00    +0.037 C 
ATOM     30  H   UNL     1       0.396  10.524  23.410  0.00  0.00    +0.052 HD
ATOM     31  H   UNL     1      -0.016  10.636  21.673  0.00  0.00    +0.052 HD
ATOM     32  H   UNL     1      -1.277  10.828  22.903  0.00  0.00    +0.052 HD
ENDBRANCH  28  29
ENDBRANCH  25  28
ENDBRANCH  22  25
ENDBRANCH   1  22
BRANCH   5  33
ATOM     33  C   UNL     1       3.858   6.430  17.249  0.00  0.00    +0.002 C 
ATOM     34  H   UNL     1       4.212   7.134  16.488  0.00  0.00    +0.043 HD
ATOM     35  H   UNL     1       3.540   5.519  16.728  0.00  0.00    +0.043 HD
BRANCH  33  36
ATOM     36  N   UNL     1       4.942   6.112  18.186  0.00  0.00    -0.310 NA
ATOM     37  H   UNL     1       5.685   6.805  18.095  0.00  0.00    +0.122 HD
BRANCH  36  38
ATOM     38  C   UNL     1       5.532   4.793  17.905  0.00  0.00    +0.040 C 
ATOM     39  H   UNL     1       6.403   4.662  18.558  0.00  0.00    +0.049 HD
ATOM     40  H   UNL     1       4.835   3.984  18.152  0.00  0.00    +0.049 HD
BRANCH  38  41
ATOM     41  C   UNL     1       5.976   4.699  16.481  0.00  0.00    +0.074 A 
ATOM     42  C   UNL     1       7.008   5.367  15.852  0.00  0.00    +0.034 A 
ATOM     43  N   UNL     1       6.989   4.944  14.547  0.00  0.00    -0.306 N 
ATOM     44  C   UNL     1       7.812   5.306  13.484  0.00  0.00    +0.011 A 
ATOM     45  C   UNL     1       7.599   4.755  12.276  0.00  0.00    -0.045 A 
ATOM     46  C   UNL     1       6.515   3.795  12.121  0.00  0.00    -0.057 A 
ATOM     47  C   UNL     1       5.724   3.451  13.157  0.00  0.00    -0.019 A 
ATOM     48  C   UNL     1       5.944   4.034  14.437  0.00  0.00    +0.138 A 
ATOM     49  N   UNL     1       5.324   3.873  15.588  0.00  0.00    -0.231 NA
ATOM     50  H   UNL     1       7.729   6.087  16.211  0.00  0.00    +0.083 HD
ATOM     51  H   UNL     1       8.597   6.026  13.679  0.00  0.00    +0.081 HD
ATOM     52  H   UNL     1       8.210   5.002  11.414  0.00  0.00    +0.063 HD
ATOM     53  H   UNL     1       6.361   3.360  11.139  0.00  0.00    +0.062 HD
ATOM     54  H   UNL     1       4.917   2.736  13.046  0.00  0.00    +0.065 HD
ENDBRANCH  38  41
ENDBRANCH  36  38
ENDBRANCH  33  36
ENDBRANCH   5  33
TORSDOF 10
ENDMDL
MODEL 4
REMARK VINA RESULT:    -6.642      1.981      2.368
REMARK INTER + INTRA:         -11.088
REMARK INTER:                 -10.274
REMARK INTRA:                  -0.814
REMARK UNBOUND:                -0.951
REMARK  Name = 
REMARK  10 active torsions:
REMARK  status: ('A' for Active; 'I' for Inactive)
REMARK    1  A    between atoms: C_1  and  O_2
REMARK    2  A    between atoms: O_2  and  C_3
REMARK    3  A    between atoms: C_3  and  C_4
REMARK    4  A    between atoms: C_4  and  N_5
REMARK    5  A    between atoms: C_9  and  C_10
REMARK    6  A    between atoms: C_10  and  N_11
REMARK    7  A    between atoms: N_11  and  C_12
REMARK    8  A    between atoms: C_12  and  C_13
REMARK    9  A    between atoms: C_22  and  C_23
REMARK   10  A    between atoms: N_26  and  C_27
REMARK                            x       y       z     vdW  Elec       q    Type
REMARK                         _______ _______ _______ _____ _____    ______ ____
ROOT
ATOM      1  N   UNL     1       3.752   4.783  19.214  0.00  0.00    -0.292 N 
ATOM      2  C   UNL     1       2.514   5.048  19.789  0.00  0.00    +0.217 C 
ATOM      3  O   UNL     1       1.937   4.379  20.633  0.00  0.00    -0.276 OA
ATOM      4  C   UNL     1       2.012   6.371  19.266  0.00  0.00    +0.030 C 
ATOM      5  C   UNL     1       2.943   6.662  18.088  0.00  0.00    +0.003 C 
ATOM      6  C   UNL     1       4.236   5.932  18.472  0.00  0.00    +0.059 C 
ATOM      7  H   UNL     1       2.088   7.105  20.073  0.00  0.00    +0.036 HD
ATOM      8  H   UNL     1       0.973   6.283  18.941  0.00  0.00    +0.036 HD
ATOM      9  H   UNL     1       2.496   6.185  17.202  0.00  0.00    +0.034 HD
ATOM     10  H   UNL     1       4.827   6.526  19.180  0.00  0.00    +0.055 HD
ENDROOT
BRANCH   6  11
ATOM     11  C   UNL     1       5.081   5.547  17.305  0.00  0.00    +0.011 A 
ATOM     12  C   UNL     1       6.466   5.763  17.102  0.00  0.00    +0.054 A 
ATOM     13  N   UNL     1       6.904   5.257  15.947  0.00  0.00    -0.180 NA
ATOM     14  N   UNL     1       5.805   4.710  15.402  0.00  0.00    -0.274 N 
ATOM     15  C   UNL     1       4.689   4.859  16.171  0.00  0.00    +0.030 A 
ATOM     16  H   UNL     1       7.167   6.278  17.749  0.00  0.00    +0.085 HD
ATOM     17  H   UNL     1       3.730   4.464  15.868  0.00  0.00    +0.083 HD
BRANCH  14  18
ATOM     18  C   UNL     1       5.902   4.040  14.129  0.00  0.00    +0.030 C 
ATOM     19  H   UNL     1       6.911   3.635  14.028  0.00  0.00    +0.047 HD
ATOM     20  H   UNL     1       5.707   4.756  13.326  0.00  0.00    +0.047 HD
ATOM     21  H   UNL     1       5.159   3.239  14.105  0.00  0.00    +0.047 HD
ENDBRANCH  14  18
ENDBRANCH   6  11
BRANCH   1  22
ATOM     22  C   UNL     1       4.623   3.725  19.721  0.00  0.00    +0.039 C 
ATOM     23  H   UNL     1       4.694   3.838  20.808  0.00  0.00    +0.049 HD
ATOM     24  H   UNL     1       5.631   3.879  19.322  0.00  0.00    +0.049 HD
BRANCH  22  25
ATOM     25  C   UNL     1       4.132   2.307  19.393  0.00  0.00    +0.063 C 
ATOM     26  H   UNL     1       3.276   2.047  20.029  0.00  0.00    +0.058 HD
ATOM     27  H   UNL     1       4.915   1.580  19.621  0.00  0.00    +0.058 HD
BRANCH  25  28
ATOM     28  O   UNL     1       3.791   2.119  18.018  0.00  0.00    -0.381 OA
BRANCH  28  29
ATOM     29  C   UNL     1       2.390   2.038  17.793  0.00  0.00    +0.037 C 
ATOM     30  H   UNL     1       1.882   2.886  18.265  0.00  0.00    +0.052 HD
ATOM     31  H   UNL     1       2.154   2.011  16.728  0.00  0.00    +0.052 HD
ATOM     32  H   UNL     1       2.024   1.117  18.252  0.00  0.00    +0.052 HD
ENDBRANCH  28  29
ENDBRANCH  25  28
ENDBRANCH  22  25
ENDBRANCH   1  22
BRANCH   5  33
ATOM     33  C   UNL     1       3.126   8.147  17.755  0.00  0.00    +0.002 C 
ATOM     34  H   UNL     1       3.803   8.227  16.897  0.00  0.00    +0.043 HD
ATOM     35  H   UNL     1       3.621   8.627  18.607  0.00  0.00    +0.043 HD
BRANCH  33  36
ATOM     36  N   UNL     1       1.862   8.835  17.466  0.00  0.00    -0.310 NA
ATOM     37  H   UNL     1       1.916   9.276  16.547  0.00  0.00    +0.122 HD
BRANCH  36  38
ATOM     38  C   UNL     1       1.583   9.894  18.449  0.00  0.00    +0.040 C 
ATOM     39  H   UNL     1       1.826   9.508  19.445  0.00  0.00    +0.049 HD
ATOM     40  H   UNL     1       2.227  10.766  18.288  0.00  0.00    +0.049 HD
BRANCH  38  41
ATOM     41  C   UNL     1       0.140  10.284  18.419  0.00  0.00    +0.074 A 
ATOM     42  C   UNL     1      -0.498  11.287  19.121  0.00  0.00    +0.034 A 
ATOM     43  N   UNL     1      -1.818  11.220  18.754  0.00  0.00    -0.306 N 
ATOM     44  C   UNL     1      -2.895  12.000  19.167  0.00  0.00    +0.011 A 
ATOM     45  C   UNL     1      -4.117  11.745  18.666  0.00  0.00    -0.045 A 
ATOM     46  C   UNL     1      -4.272  10.661  17.706  0.00  0.00    -0.057 A 
ATOM     47  C   UNL     1      -3.222   9.912  17.312  0.00  0.00    -0.019 A 
ATOM     48  C   UNL     1      -1.927  10.177  17.841  0.00  0.00    +0.138 A 
ATOM     49  N   UNL     1      -0.762   9.603  17.627  0.00  0.00    -0.231 NA
ATOM     50  H   UNL     1      -0.136  12.017  19.830  0.00  0.00    +0.083 HD
ATOM     51  H   UNL     1      -2.700  12.788  19.884  0.00  0.00    +0.081 HD
ATOM     52  H   UNL     1      -4.990  12.321  18.954  0.00  0.00    +0.063 HD
ATOM     53  H   UNL     1      -5.265  10.472  17.311  0.00  0.00    +0.062 HD
ATOM     54  H   UNL     1      -3.333   9.106  16.596  0.00  0.00    +0.065 HD
ENDBRANCH  38  41
ENDBRANCH  36  38
ENDBRANCH  33  36
ENDBRANCH   5  33
TORSDOF 10
ENDMDL
MODEL 5
REMARK VINA RESULT:    -6.596      2.109      2.630
REMARK INTER + INTRA:         -11.018
REMARK INTER:                 -10.063
REMARK INTRA:                  -0.955
REMARK UNBOUND:                -0.951
REMARK  Name = 
REMARK  10 active torsions:
REMARK  status: ('A' for Active; 'I' for Inactive)
REMARK    1  A    between atoms: C_1  and  O_2
REMARK    2  A    between atoms: O_2  and  C_3
REMARK    3  A    between atoms: C_3  and  C_4
REMARK    4  A    between atoms: C_4  and  N_5
REMARK    5  A    between atoms: C_9  and  C_10
REMARK    6  A    between atoms: C_10  and  N_11
REMARK    7  A    between atoms: N_11  and  C_12
REMARK    8  A    between atoms: C_12  and  C_13
REMARK    9  A    between atoms: C_22  and  C_23
REMARK   10  A    between atoms: N_26  and  C_27
REMARK                            x       y       z     vdW  Elec       q    Type
REMARK                         _______ _______ _______ _____ _____    ______ ____
ROOT
ATOM      1  N   UNL     1       3.104   3.901  18.261  0.00  0.00    -0.292 N 
ATOM      2  C   UNL     1       1.742   4.169  18.349  0.00  0.00    +0.217 C 
ATOM      3  O   UNL     1       0.851   3.370  18.596  0.00  0.00    -0.276 OA
ATOM      4  C   UNL     1       1.530   5.652  18.178  0.00  0.00    +0.030 C 
ATOM      5  C   UNL     1       2.881   6.145  17.655  0.00  0.00    +0.003 C 
ATOM      6  C   UNL     1       3.874   5.131  18.234  0.00  0.00    +0.059 C 
ATOM      7  H   UNL     1       1.261   6.071  19.151  0.00  0.00    +0.036 HD
ATOM      8  H   UNL     1       0.730   5.843  17.458  0.00  0.00    +0.036 HD
ATOM      9  H   UNL     1       2.852   6.052  16.559  0.00  0.00    +0.034 HD
ATOM     10  H   UNL     1       4.110   5.365  19.280  0.00  0.00    +0.055 HD
ENDROOT
BRANCH   6  11
ATOM     11  C   UNL     1       5.134   5.001  17.447  0.00  0.00    +0.011 A 
ATOM     12  C   UNL     1       6.455   4.799  17.913  0.00  0.00    +0.054 A 
ATOM     13  N   UNL     1       7.344   4.701  16.922  0.00  0.00    -0.180 NA
ATOM     14  N   UNL     1       6.599   4.837  15.813  0.00  0.00    -0.274 N 
ATOM     15  C   UNL     1       5.273   5.023  16.071  0.00  0.00    +0.030 A 
ATOM     16  H   UNL     1       6.802   4.728  18.938  0.00  0.00    +0.085 HD
ATOM     17  H   UNL     1       4.548   5.140  15.279  0.00  0.00    +0.083 HD
BRANCH  14  18
ATOM     18  C   UNL     1       7.232   4.765  14.519  0.00  0.00    +0.030 C 
ATOM     19  H   UNL     1       6.637   5.346  13.810  0.00  0.00    +0.047 HD
ATOM     20  H   UNL     1       7.280   3.722  14.196  0.00  0.00    +0.047 HD
ATOM     21  H   UNL     1       8.240   5.177  14.606  0.00  0.00    +0.047 HD
ENDBRANCH  14  18
ENDBRANCH   6  11
BRANCH   1  22
ATOM     22  C   UNL     1       3.660   2.609  18.660  0.00  0.00    +0.039 C 
ATOM     23  H   UNL     1       4.580   2.447  18.088  0.00  0.00    +0.049 HD
ATOM     24  H   UNL     1       2.960   1.820  18.364  0.00  0.00    +0.049 HD
BRANCH  22  25
ATOM     25  C   UNL     1       3.974   2.506  20.160  0.00  0.00    +0.063 C 
ATOM     26  H   UNL     1       4.398   3.451  20.523  0.00  0.00    +0.058 HD
ATOM     27  H   UNL     1       4.737   1.743  20.329  0.00  0.00    +0.058 HD
BRANCH  25  28
ATOM     28  O   UNL     1       2.848   2.141  20.961  0.00  0.00    -0.381 OA
BRANCH  28  29
ATOM     29  C   UNL     1       2.335   3.217  21.734  0.00  0.00    +0.037 C 
ATOM     30  H   UNL     1       2.005   2.856  22.713  0.00  0.00    +0.052 HD
ATOM     31  H   UNL     1       3.074   4.010  21.861  0.00  0.00    +0.052 HD
ATOM     32  H   UNL     1       1.470   3.632  21.209  0.00  0.00    +0.052 HD
ENDBRANCH  28  29
ENDBRANCH  25  28
ENDBRANCH  22  25
ENDBRANCH   1  22
BRANCH   5  33
ATOM     33  C   UNL     1       3.207   7.608  17.975  0.00  0.00    +0.002 C 
ATOM     34  H   UNL     1       4.215   7.825  17.604  0.00  0.00    +0.043 HD
ATOM     35  H   UNL     1       3.229   7.721  19.065  0.00  0.00    +0.043 HD
BRANCH  33  36
ATOM     36  N   UNL     1       2.244   8.554  17.398  0.00  0.00    -0.310 NA
ATOM     37  H   UNL     1       2.610   8.921  16.520  0.00  0.00    +0.122 HD
BRANCH  36  38
ATOM     38  C   UNL     1       2.008   9.700  18.292  0.00  0.00    +0.040 C 
ATOM     39  H   UNL     1       2.269   9.396  19.313  0.00  0.00    +0.049 HD
ATOM     40  H   UNL     1       2.664  10.541  18.042  0.00  0.00    +0.049 HD
BRANCH  38  41
ATOM     41  C   UNL     1       0.572  10.115  18.261  0.00  0.00    +0.074 A 
ATOM     42  C   UNL     1      -0.050  11.128  18.964  0.00  0.00    +0.034 A 
ATOM     43  N   UNL     1      -1.370  11.084  18.595  0.00  0.00    -0.306 N 
ATOM     44  C   UNL     1      -2.434  11.882  19.009  0.00  0.00    +0.011 A 
ATOM     45  C   UNL     1      -3.660  11.648  18.506  0.00  0.00    -0.045 A 
ATOM     46  C   UNL     1      -3.832  10.569  17.544  0.00  0.00    -0.057 A 
ATOM     47  C   UNL     1      -2.795   9.803  17.150  0.00  0.00    -0.019 A 
ATOM     48  C   UNL     1      -1.496  10.044  17.681  0.00  0.00    +0.138 A 
ATOM     49  N   UNL     1      -0.341   9.451  17.467  0.00  0.00    -0.231 NA
ATOM     50  H   UNL     1       0.324  11.850  19.675  0.00  0.00    +0.083 HD
ATOM     51  H   UNL     1      -2.226  12.665  19.727  0.00  0.00    +0.081 HD
ATOM     52  H   UNL     1      -4.523  12.239  18.794  0.00  0.00    +0.063 HD
ATOM     53  H   UNL     1      -4.828  10.398  17.148  0.00  0.00    +0.062 HD
ATOM     54  H   UNL     1      -2.919   8.999  16.432  0.00  0.00    +0.065 HD
ENDBRANCH  38  41
ENDBRANCH  36  38
ENDBRANCH  33  36
ENDBRANCH   5  33
TORSDOF 10
ENDMDL
MODEL 6
REMARK VINA RESULT:    -6.549      2.886      4.591
REMARK INTER + INTRA:         -10.945
REMARK INTER:                 -10.129
REMARK INTRA:                  -0.816
REMARK UNBOUND:                -0.951
REMARK  Name = 
REMARK  10 active torsions:
REMARK  status: ('A' for Active; 'I' for Inactive)
REMARK    1  A    between atoms: C_1  and  O_2
REMARK    2  A    between atoms: O_2  and  C_3
REMARK    3  A    between atoms: C_3  and  C_4
REMARK    4  A    between atoms: C_4  and  N_5
REMARK    5  A    between atoms: C_9  and  C_10
REMARK    6  A    between atoms: C_10  and  N_11
REMARK    7  A    between atoms: N_11  and  C_12
REMARK    8  A    between atoms: C_12  and  C_13
REMARK    9  A    between atoms: C_22  and  C_23
REMARK   10  A    between atoms: N_26  and  C_27
REMARK                            x       y       z     vdW  Elec       q    Type
REMARK                         _______ _______ _______ _____ _____    ______ ____
ROOT
ATOM      1  N   UNL     1       4.533   5.399  17.608  0.00  0.00    -0.292 N 
ATOM      2  C   UNL     1       5.188   6.612  17.425  0.00  0.00    +0.217 C 
ATOM      3  O   UNL     1       6.363   6.776  17.132  0.00  0.00    -0.276 OA
ATOM      4  C   UNL     1       4.182   7.728  17.559  0.00  0.00    +0.030 C 
ATOM      5  C   UNL     1       2.961   7.034  18.164  0.00  0.00    +0.003 C 
ATOM      6  C   UNL     1       3.096   5.590  17.667  0.00  0.00    +0.059 C 
ATOM      7  H   UNL     1       4.001   8.142  16.564  0.00  0.00    +0.036 HD
ATOM      8  H   UNL     1       4.566   8.509  18.221  0.00  0.00    +0.036 HD
ATOM      9  H   UNL     1       3.085   7.064  19.257  0.00  0.00    +0.034 HD
ATOM     10  H   UNL     1       2.733   5.493  16.636  0.00  0.00    +0.055 HD
ENDROOT
BRANCH   6  11
ATOM     11  C   UNL     1       2.420   4.586  18.538  0.00  0.00    +0.011 A 
ATOM     12  C   UNL     1       1.533   3.545  18.171  0.00  0.00    +0.054 A 
ATOM     13  N   UNL     1       1.136   2.811  19.214  0.00  0.00    -0.180 NA
ATOM     14  N   UNL     1       1.767   3.375  20.257  0.00  0.00    -0.274 N 
ATOM     15  C   UNL     1       2.543   4.441  19.908  0.00  0.00    +0.030 A 
ATOM     16  H   UNL     1       1.157   3.301  17.184  0.00  0.00    +0.085 HD
ATOM     17  H   UNL     1       3.118   4.991  20.639  0.00  0.00    +0.083 HD
BRANCH  14  18
ATOM     18  C   UNL     1       1.587   2.824  21.577  0.00  0.00    +0.030 C 
ATOM     19  H   UNL     1       0.664   2.241  21.586  0.00  0.00    +0.047 HD
ATOM     20  H   UNL     1       1.520   3.638  22.304  0.00  0.00    +0.047 HD
ATOM     21  H   UNL     1       2.447   2.190  21.805  0.00  0.00    +0.047 HD
ENDBRANCH  14  18
ENDBRANCH   6  11
BRANCH   1  22
ATOM     22  C   UNL     1       5.165   4.126  17.266  0.00  0.00    +0.039 C 
ATOM     23  H   UNL     1       4.546   3.321  17.677  0.00  0.00    +0.049 HD
ATOM     24  H   UNL     1       6.135   4.069  17.772  0.00  0.00    +0.049 HD
BRANCH  22  25
ATOM     25  C   UNL     1       5.339   3.906  15.756  0.00  0.00    +0.063 C 
ATOM     26  H   UNL     1       4.716   4.616  15.196  0.00  0.00    +0.058 HD
ATOM     27  H   UNL     1       4.988   2.908  15.482  0.00  0.00    +0.058 HD
BRANCH  25  28
ATOM     28  O   UNL     1       6.695   3.996  15.313  0.00  0.00    -0.381 OA
BRANCH  28  29
ATOM     29  C   UNL     1       6.848   4.756  14.123  0.00  0.00    +0.037 C 
ATOM     30  H   UNL     1       5.938   5.332  13.922  0.00  0.00    +0.052 HD
ATOM     31  H   UNL     1       7.706   5.427  14.180  0.00  0.00    +0.052 HD
ATOM     32  H   UNL     1       7.007   4.062  13.293  0.00  0.00    +0.052 HD
ENDBRANCH  28  29
ENDBRANCH  25  28
ENDBRANCH  22  25
ENDBRANCH   1  22
BRANCH   5  33
ATOM     33  C   UNL     1       1.614   7.693  17.844  0.00  0.00    +0.002 C 
ATOM     34  H   UNL     1       0.909   7.438  18.643  0.00  0.00    +0.043 HD
ATOM     35  H   UNL     1       1.232   7.252  16.917  0.00  0.00    +0.043 HD
BRANCH  33  36
ATOM     36  N   UNL     1       1.705   9.151  17.698  0.00  0.00    -0.310 NA
ATOM     37  H   UNL     1       2.686   9.429  17.663  0.00  0.00    +0.122 HD
BRANCH  36  38
ATOM     38  C   UNL     1       1.089   9.849  18.838  0.00  0.00    +0.040 C 
ATOM     39  H   UNL     1       1.063   9.158  19.689  0.00  0.00    +0.049 HD
ATOM     40  H   UNL     1       1.694  10.707  19.154  0.00  0.00    +0.049 HD
BRANCH  38  41
ATOM     41  C   UNL     1      -0.308  10.272  18.514  0.00  0.00    +0.074 A 
ATOM     42  C   UNL     1      -1.160  11.074  19.248  0.00  0.00    +0.034 A 
ATOM     43  N   UNL     1      -2.325  11.140  18.527  0.00  0.00    -0.306 N 
ATOM     44  C   UNL     1      -3.510  11.814  18.815  0.00  0.00    +0.011 A 
ATOM     45  C   UNL     1      -4.535  11.730  17.949  0.00  0.00    -0.045 A 
ATOM     46  C   UNL     1      -4.371  10.939  16.738  0.00  0.00    -0.057 A 
ATOM     47  C   UNL     1      -3.220  10.291  16.468  0.00  0.00    -0.019 A 
ATOM     48  C   UNL     1      -2.132  10.374  17.383  0.00  0.00    +0.138 A 
ATOM     49  N   UNL     1      -0.927   9.845  17.357  0.00  0.00    -0.231 NA
ATOM     50  H   UNL     1      -1.039  11.584  20.193  0.00  0.00    +0.083 HD
ATOM     51  H   UNL     1      -3.554  12.382  19.735  0.00  0.00    +0.081 HD
ATOM     52  H   UNL     1      -5.480  12.234  18.124  0.00  0.00    +0.063 HD
ATOM     53  H   UNL     1      -5.210  10.886  16.050  0.00  0.00    +0.062 HD
ATOM     54  H   UNL     1      -3.094   9.702  15.567  0.00  0.00    +0.065 HD
ENDBRANCH  38  41
ENDBRANCH  36  38
ENDBRANCH  33  36
ENDBRANCH   5  33
TORSDOF 10
ENDMDL
MODEL 7
REMARK VINA RESULT:    -6.518      2.039      3.664
REMARK INTER + INTRA:         -10.898
REMARK INTER:                  -9.986
REMARK INTRA:                  -0.912
REMARK UNBOUND:                -0.951
REMARK  Name = 
REMARK  10 active torsions:
REMARK  status: ('A' for Active; 'I' for Inactive)
REMARK    1  A    between atoms: C_1  and  O_2
REMARK    2  A    between atoms: O_2  and  C_3
REMARK    3  A    between atoms: C_3  and  C_4
REMARK    4  A    between atoms: C_4  and  N_5
REMARK    5  A    between atoms: C_9  and  C_10
REMARK    6  A    between atoms: C_10  and  N_11
REMARK    7  A    between atoms: N_11  and  C_12
REMARK    8  A    between atoms: C_12  and  C_13
REMARK    9  A    between atoms: C_22  and  C_23
REMARK   10  A    between atoms: N_26  and  C_27
REMARK                            x       y       z     vdW  Elec       q    Type
REMARK                         _______ _______ _______ _____ _____    ______ ____
ROOT
ATOM      1  N   UNL     1       5.274   5.156  17.366  0.00  0.00    -0.292 N 
ATOM      2  C   UNL     1       5.954   6.367  17.285  0.00  0.00    +0.217 C 
ATOM      3  O   UNL     1       7.135   6.530  17.020  0.00  0.00    -0.276 OA
ATOM      4  C   UNL     1       4.967   7.489  17.489  0.00  0.00    +0.030 C 
ATOM      5  C   UNL     1       3.724   6.775  18.023  0.00  0.00    +0.003 C 
ATOM      6  C   UNL     1       3.840   5.370  17.421  0.00  0.00    +0.059 C 
ATOM      7  H   UNL     1       4.807   7.980  16.525  0.00  0.00    +0.036 HD
ATOM      8  H   UNL     1       5.354   8.211  18.213  0.00  0.00    +0.036 HD
ATOM      9  H   UNL     1       3.832   6.721  19.117  0.00  0.00    +0.034 HD
ATOM     10  H   UNL     1       3.490   5.357  16.381  0.00  0.00    +0.055 HD
ENDROOT
BRANCH   6  11
ATOM     11  C   UNL     1       3.133   4.317  18.205  0.00  0.00    +0.011 A 
ATOM     12  C   UNL     1       2.424   3.185  17.735  0.00  0.00    +0.054 A 
ATOM     13  N   UNL     1       1.936   2.432  18.724  0.00  0.00    -0.180 NA
ATOM     14  N   UNL     1       2.331   3.074  19.835  0.00  0.00    -0.274 N 
ATOM     15  C   UNL     1       3.045   4.208  19.581  0.00  0.00    +0.030 A 
ATOM     16  H   UNL     1       2.239   2.887  16.709  0.00  0.00    +0.085 HD
ATOM     17  H   UNL     1       3.437   4.826  20.376  0.00  0.00    +0.083 HD
BRANCH  14  18
ATOM     18  C   UNL     1       1.994   2.529  21.127  0.00  0.00    +0.030 C 
ATOM     19  H   UNL     1       1.719   1.480  20.999  0.00  0.00    +0.047 HD
ATOM     20  H   UNL     1       1.151   3.086  21.547  0.00  0.00    +0.047 HD
ATOM     21  H   UNL     1       2.866   2.624  21.779  0.00  0.00    +0.047 HD
ENDBRANCH  14  18
ENDBRANCH   6  11
BRANCH   1  22
ATOM     22  C   UNL     1       5.888   3.901  16.938  0.00  0.00    +0.039 C 
ATOM     23  H   UNL     1       5.437   3.090  17.520  0.00  0.00    +0.049 HD
ATOM     24  H   UNL     1       6.951   3.923  17.200  0.00  0.00    +0.049 HD
BRANCH  22  25
ATOM     25  C   UNL     1       5.714   3.605  15.441  0.00  0.00    +0.063 C 
ATOM     26  H   UNL     1       4.724   3.937  15.103  0.00  0.00    +0.058 HD
ATOM     27  H   UNL     1       5.751   2.527  15.269  0.00  0.00    +0.058 HD
BRANCH  25  28
ATOM     28  O   UNL     1       6.729   4.184  14.618  0.00  0.00    -0.381 OA
BRANCH  28  29
ATOM     29  C   UNL     1       6.518   3.966  13.230  0.00  0.00    +0.037 C 
ATOM     30  H   UNL     1       7.061   4.714  12.643  0.00  0.00    +0.052 HD
ATOM     31  H   UNL     1       6.826   2.963  12.929  0.00  0.00    +0.052 HD
ATOM     32  H   UNL     1       5.450   4.076  13.026  0.00  0.00    +0.052 HD
ENDBRANCH  28  29
ENDBRANCH  25  28
ENDBRANCH  22  25
ENDBRANCH   1  22
BRANCH   5  33
ATOM     33  C   UNL     1       2.394   7.483  17.736  0.00  0.00    +0.002 C 
ATOM     34  H   UNL     1       1.612   6.997  18.330  0.00  0.00    +0.043 HD
ATOM     35  H   UNL     1       2.148   7.326  16.680  0.00  0.00    +0.043 HD
BRANCH  33  36
ATOM     36  N   UNL     1       2.431   8.921  18.028  0.00  0.00    -0.310 NA
ATOM     37  H   UNL     1       2.660   9.063  19.012  0.00  0.00    +0.122 HD
BRANCH  36  38
ATOM     38  C   UNL     1       1.126   9.557  17.783  0.00  0.00    +0.040 C 
ATOM     39  H   UNL     1       1.290  10.445  17.162  0.00  0.00    +0.049 HD
ATOM     40  H   UNL     1       0.463   8.897  17.211  0.00  0.00    +0.049 HD
BRANCH  38  41
ATOM     41  C   UNL     1       0.485   9.974  19.067  0.00  0.00    +0.074 A 
ATOM     42  C   UNL     1      -0.280  11.094  19.326  0.00  0.00    +0.034 A 
ATOM     43  N   UNL     1      -0.611  11.022  20.656  0.00  0.00    -0.306 N 
ATOM     44  C   UNL     1      -1.367  11.897  21.432  0.00  0.00    +0.011 A 
ATOM     45  C   UNL     1      -1.558  11.619  22.733  0.00  0.00    -0.045 A 
ATOM     46  C   UNL     1      -0.969  10.408  23.288  0.00  0.00    -0.057 A 
ATOM     47  C   UNL     1      -0.239   9.566  22.528  0.00  0.00    -0.019 A 
ATOM     48  C   UNL     1      -0.031   9.859  21.150  0.00  0.00    +0.138 A 
ATOM     49  N   UNL     1       0.631   9.216  20.211  0.00  0.00    -0.231 NA
ATOM     50  H   UNL     1      -0.604  11.911  18.698  0.00  0.00    +0.083 HD
ATOM     51  H   UNL     1      -1.772  12.776  20.946  0.00  0.00    +0.081 HD
ATOM     52  H   UNL     1      -2.138  12.266  23.382  0.00  0.00    +0.063 HD
ATOM     53  H   UNL     1      -1.137  10.198  24.339  0.00  0.00    +0.062 HD
ATOM     54  H   UNL     1       0.200   8.663  22.937  0.00  0.00    +0.065 HD
ENDBRANCH  38  41
ENDBRANCH  36  38
ENDBRANCH  33  36
ENDBRANCH   5  33
TORSDOF 10
ENDMDL
MODEL 8
REMARK VINA RESULT:    -6.373      1.750      2.473
REMARK INTER + INTRA:         -10.677
REMARK INTER:                 -10.065
REMARK INTRA:                  -0.612
REMARK UNBOUND:                -0.951
REMARK  Name = 
REMARK  10 active torsions:
REMARK  status: ('A' for Active; 'I' for Inactive)
REMARK    1  A    between atoms: C_1  and  O_2
REMARK    2  A    between atoms: O_2  and  C_3
REMARK    3  A    between atoms: C_3  and  C_4
REMARK    4  A    between atoms: C_4  and  N_5
REMARK    5  A    between atoms: C_9  and  C_10
REMARK    6  A    between atoms: C_10  and  N_11
REMARK    7  A    between atoms: N_11  and  C_12
REMARK    8  A    between atoms: C_12  and  C_13
REMARK    9  A    between atoms: C_22  and  C_23
REMARK   10  A    between atoms: N_26  and  C_27
REMARK                            x       y       z     vdW  Elec       q    Type
REMARK                         _______ _______ _______ _____ _____    ______ ____
ROOT
ATOM      1  N   UNL     1       3.098   3.810  20.150  0.00  0.00    -0.292 N 
ATOM      2  C   UNL     1       1.788   3.753  20.615  0.00  0.00    +0.217 C 
ATOM      3  O   UNL     1       1.228   2.790  21.117  0.00  0.00    -0.276 OA
ATOM      4  C   UNL     1       1.171   5.123  20.487  0.00  0.00    +0.030 C 
ATOM      5  C   UNL     1       2.160   5.876  19.595  0.00  0.00    +0.003 C 
ATOM      6  C   UNL     1       3.495   5.181  19.886  0.00  0.00    +0.059 C 
ATOM      7  H   UNL     1       1.077   5.548  21.490  0.00  0.00    +0.036 HD
ATOM      8  H   UNL     1       0.185   5.055  20.020  0.00  0.00    +0.036 HD
ATOM      9  H   UNL     1       1.860   5.684  18.554  0.00  0.00    +0.034 HD
ATOM     10  H   UNL     1       3.938   5.554  20.818  0.00  0.00    +0.055 HD
ENDROOT
BRANCH   6  11
ATOM     11  C   UNL     1       4.486   5.287  18.777  0.00  0.00    +0.011 A 
ATOM     12  C   UNL     1       5.900   5.308  18.848  0.00  0.00    +0.054 A 
ATOM     13  N   UNL     1       6.478   5.385  17.647  0.00  0.00    -0.180 NA
ATOM     14  N   UNL     1       5.438   5.412  16.797  0.00  0.00    -0.274 N 
ATOM     15  C   UNL     1       4.227   5.360  17.420  0.00  0.00    +0.030 A 
ATOM     16  H   UNL     1       6.528   5.278  19.732  0.00  0.00    +0.085 HD
ATOM     17  H   UNL     1       3.299   5.365  16.867  0.00  0.00    +0.083 HD
BRANCH  14  18
ATOM     18  C   UNL     1       5.684   5.476  15.377  0.00  0.00    +0.030 C 
ATOM     19  H   UNL     1       5.411   6.472  15.023  0.00  0.00    +0.047 HD
ATOM     20  H   UNL     1       5.077   4.721  14.869  0.00  0.00    +0.047 HD
ATOM     21  H   UNL     1       6.745   5.282  15.203  0.00  0.00    +0.047 HD
ENDBRANCH  14  18
ENDBRANCH   6  11
BRANCH   1  22
ATOM     22  C   UNL     1       4.048   2.728  20.396  0.00  0.00    +0.039 C 
ATOM     23  H   UNL     1       3.691   2.155  21.260  0.00  0.00    +0.049 HD
ATOM     24  H   UNL     1       5.010   3.164  20.684  0.00  0.00    +0.049 HD
BRANCH  22  25
ATOM     25  C   UNL     1       4.230   1.778  19.203  0.00  0.00    +0.063 C 
ATOM     26  H   UNL     1       4.804   0.894  19.507  0.00  0.00    +0.058 HD
ATOM     27  H   UNL     1       4.815   2.270  18.422  0.00  0.00    +0.058 HD
BRANCH  25  28
ATOM     28  O   UNL     1       3.000   1.374  18.596  0.00  0.00    -0.381 OA
BRANCH  28  29
ATOM     29  C   UNL     1       2.681   2.114  17.427  0.00  0.00    +0.037 C 
ATOM     30  H   UNL     1       2.640   3.184  17.656  0.00  0.00    +0.052 HD
ATOM     31  H   UNL     1       3.400   1.933  16.626  0.00  0.00    +0.052 HD
ATOM     32  H   UNL     1       1.693   1.797  17.081  0.00  0.00    +0.052 HD
ENDBRANCH  28  29
ENDBRANCH  25  28
ENDBRANCH  22  25
ENDBRANCH   1  22
BRANCH   5  33
ATOM     33  C   UNL     1       2.180   7.397  19.786  0.00  0.00    +0.002 C 
ATOM     34  H   UNL     1       1.435   7.837  19.113  0.00  0.00    +0.043 HD
ATOM     35  H   UNL     1       3.163   7.766  19.471  0.00  0.00    +0.043 HD
BRANCH  33  36
ATOM     36  N   UNL     1       1.915   7.809  21.170  0.00  0.00    -0.310 NA
ATOM     37  H   UNL     1       2.024   7.007  21.791  0.00  0.00    +0.122 HD
BRANCH  36  38
ATOM     38  C   UNL     1       0.541   8.311  21.333  0.00  0.00    +0.040 C 
ATOM     39  H   UNL     1      -0.140   7.608  20.839  0.00  0.00    +0.049 HD
ATOM     40  H   UNL     1       0.249   8.335  22.389  0.00  0.00    +0.049 HD
BRANCH  38  41
ATOM     41  C   UNL     1       0.386   9.658  20.705  0.00  0.00    +0.074 A 
ATOM     42  C   UNL     1      -0.436  10.035  19.662  0.00  0.00    +0.034 A 
ATOM     43  N   UNL     1      -0.191  11.369  19.455  0.00  0.00    -0.306 N 
ATOM     44  C   UNL     1      -0.749  12.240  18.523  0.00  0.00    +0.011 A 
ATOM     45  C   UNL     1      -0.346  13.523  18.504  0.00  0.00    -0.045 A 
ATOM     46  C   UNL     1       0.660  13.959  19.463  0.00  0.00    -0.057 A 
ATOM     47  C   UNL     1       1.193  13.108  20.362  0.00  0.00    -0.019 A 
ATOM     48  C   UNL     1       0.772  11.748  20.384  0.00  0.00    +0.138 A 
ATOM     49  N   UNL     1       1.131  10.734  21.143  0.00  0.00    -0.231 NA
ATOM     50  H   UNL     1      -1.150   9.484  19.067  0.00  0.00    +0.083 HD
ATOM     51  H   UNL     1      -1.492  11.841  17.844  0.00  0.00    +0.081 HD
ATOM     52  H   UNL     1      -0.747  14.243  17.799  0.00  0.00    +0.063 HD
ATOM     53  H   UNL     1       0.970  14.999  19.434  0.00  0.00    +0.062 HD
ATOM     54  H   UNL     1       1.941  13.429  21.078  0.00  0.00    +0.065 HD
ENDBRANCH  38  41
ENDBRANCH  36  38
ENDBRANCH  33  36
ENDBRANCH   5  33
TORSDOF 10
ENDMDL
MODEL 9
REMARK VINA RESULT:    -6.359      1.706      2.274
REMARK INTER + INTRA:         -10.655
REMARK INTER:                  -9.961
REMARK INTRA:                  -0.694
REMARK UNBOUND:                -0.951
REMARK  Name = 
REMARK  10 active torsions:
REMARK  status: ('A' for Active; 'I' for Inactive)
REMARK    1  A    between atoms: C_1  and  O_2
REMARK    2  A    between atoms: O_2  and  C_3
REMARK    3  A    between atoms: C_3  and  C_4
REMARK    4  A    between atoms: C_4  and  N_5
REMARK    5  A    between atoms: C_9  and  C_10
REMARK    6  A    between atoms: C_10  and  N_11
REMARK    7  A    between atoms: N_11  and  C_12
REMARK    8  A    between atoms: C_12  and  C_13
REMARK    9  A    between atoms: C_22  and  C_23
REMARK   10  A    between atoms: N_26  and  C_27
REMARK                            x       y       z     vdW  Elec       q    Type
REMARK                         _______ _______ _______ _____ _____    ______ ____
ROOT
ATOM      1  N   UNL     1       3.115   3.711  20.172  0.00  0.00    -0.292 N 
ATOM      2  C   UNL     1       1.825   3.571  20.672  0.00  0.00    +0.217 C 
ATOM      3  O   UNL     1       1.313   2.551  21.107  0.00  0.00    -0.276 OA
ATOM      4  C   UNL     1       1.162   4.926  20.683  0.00  0.00    +0.030 C 
ATOM      5  C   UNL     1       2.096   5.784  19.828  0.00  0.00    +0.003 C 
ATOM      6  C   UNL     1       3.461   5.112  20.015  0.00  0.00    +0.059 C 
ATOM      7  H   UNL     1       1.091   5.260  21.722  0.00  0.00    +0.036 HD
ATOM      8  H   UNL     1       0.163   4.864  20.244  0.00  0.00    +0.036 HD
ATOM      9  H   UNL     1       1.765   5.672  18.784  0.00  0.00    +0.034 HD
ATOM     10  H   UNL     1       3.924   5.419  20.961  0.00  0.00    +0.055 HD
ENDROOT
BRANCH   6  11
ATOM     11  C   UNL     1       4.408   5.345  18.887  0.00  0.00    +0.011 A 
ATOM     12  C   UNL     1       5.821   5.435  18.919  0.00  0.00    +0.054 A 
ATOM     13  N   UNL     1       6.354   5.625  17.709  0.00  0.00    -0.180 NA
ATOM     14  N   UNL     1       5.288   5.655  16.893  0.00  0.00    -0.274 N 
ATOM     15  C   UNL     1       4.102   5.497  17.547  0.00  0.00    +0.030 A 
ATOM     16  H   UNL     1       6.479   5.378  19.779  0.00  0.00    +0.085 HD
ATOM     17  H   UNL     1       3.157   5.491  17.022  0.00  0.00    +0.083 HD
BRANCH  14  18
ATOM     18  C   UNL     1       5.484   5.828  15.475  0.00  0.00    +0.030 C 
ATOM     19  H   UNL     1       4.774   6.577  15.117  0.00  0.00    +0.047 HD
ATOM     20  H   UNL     1       5.309   4.877  14.965  0.00  0.00    +0.047 HD
ATOM     21  H   UNL     1       6.512   6.159  15.308  0.00  0.00    +0.047 HD
ENDBRANCH  14  18
ENDBRANCH   6  11
BRANCH   1  22
ATOM     22  C   UNL     1       4.106   2.644  20.293  0.00  0.00    +0.039 C 
ATOM     23  H   UNL     1       3.814   2.007  21.135  0.00  0.00    +0.049 HD
ATOM     24  H   UNL     1       5.071   3.090  20.554  0.00  0.00    +0.049 HD
BRANCH  22  25
ATOM     25  C   UNL     1       4.243   1.779  19.031  0.00  0.00    +0.063 C 
ATOM     26  H   UNL     1       4.835   0.881  19.251  0.00  0.00    +0.058 HD
ATOM     27  H   UNL     1       4.793   2.328  18.262  0.00  0.00    +0.058 HD
BRANCH  25  28
ATOM     28  O   UNL     1       2.992   1.406  18.449  0.00  0.00    -0.381 OA
BRANCH  28  29
ATOM     29  C   UNL     1       2.637   2.200  17.325  0.00  0.00    +0.037 C 
ATOM     30  H   UNL     1       3.357   3.014  17.194  0.00  0.00    +0.052 HD
ATOM     31  H   UNL     1       2.582   1.604  16.412  0.00  0.00    +0.052 HD
ATOM     32  H   UNL     1       1.652   2.636  17.513  0.00  0.00    +0.052 HD
ENDBRANCH  28  29
ENDBRANCH  25  28
ENDBRANCH  22  25
ENDBRANCH   1  22
BRANCH   5  33
ATOM     33  C   UNL     1       2.076   7.283  20.149  0.00  0.00    +0.002 C 
ATOM     34  H   UNL     1       1.686   7.816  19.274  0.00  0.00    +0.043 HD
ATOM     35  H   UNL     1       3.111   7.612  20.298  0.00  0.00    +0.043 HD
BRANCH  33  36
ATOM     36  N   UNL     1       1.276   7.609  21.337  0.00  0.00    -0.310 NA
ATOM     37  H   UNL     1       0.289   7.651  21.082  0.00  0.00    +0.122 HD
BRANCH  36  38
ATOM     38  C   UNL     1       1.645   8.921  21.894  0.00  0.00    +0.040 C 
ATOM     39  H   UNL     1       1.946   8.775  22.938  0.00  0.00    +0.049 HD
ATOM     40  H   UNL     1       2.513   9.344  21.377  0.00  0.00    +0.049 HD
BRANCH  38  41
ATOM     41  C   UNL     1       0.486   9.864  21.851  0.00  0.00    +0.074 A 
ATOM     42  C   UNL     1      -0.025  10.556  20.770  0.00  0.00    +0.034 A 
ATOM     43  N   UNL     1      -1.072  11.295  21.260  0.00  0.00    -0.306 N 
ATOM     44  C   UNL     1      -1.928  12.170  20.596  0.00  0.00    +0.011 A 
ATOM     45  C   UNL     1      -2.894  12.794  21.293  0.00  0.00    -0.045 A 
ATOM     46  C   UNL     1      -3.014  12.530  22.720  0.00  0.00    -0.057 A 
ATOM     47  C   UNL     1      -2.181  11.680  23.353  0.00  0.00    -0.019 A 
ATOM     48  C   UNL     1      -1.155  11.020  22.620  0.00  0.00    +0.138 A 
ATOM     49  N   UNL     1      -0.228  10.163  22.994  0.00  0.00    -0.231 NA
ATOM     50  H   UNL     1       0.262  10.586  19.729  0.00  0.00    +0.083 HD
ATOM     51  H   UNL     1      -1.775  12.313  19.534  0.00  0.00    +0.081 HD
ATOM     52  H   UNL     1      -3.587  13.485  20.825  0.00  0.00    +0.063 HD
ATOM     53  H   UNL     1      -3.802  13.041  23.265  0.00  0.00    +0.062 HD
ATOM     54  H   UNL     1      -2.269  11.481  24.415  0.00  0.00    +0.065 HD
ENDBRANCH  38  41
ENDBRANCH  36  38
ENDBRANCH  33  36
ENDBRANCH   5  33
TORSDOF 10
ENDMDL
MODEL 10
REMARK VINA RESULT:    -6.342      3.687      8.277
REMARK INTER + INTRA:         -10.630
REMARK INTER:                  -9.464
REMARK INTRA:                  -1.166
REMARK UNBOUND:                -0.951
REMARK  Name = 
REMARK  10 active torsions:
REMARK  status: ('A' for Active; 'I' for Inactive)
REMARK    1  A    between atoms: C_1  and  O_2
REMARK    2  A    between atoms: O_2  and  C_3
REMARK    3  A    between atoms: C_3  and  C_4
REMARK    4  A    between atoms: C_4  and  N_5
REMARK    5  A    between atoms: C_9  and  C_10
REMARK    6  A    between atoms: C_10  and  N_11
REMARK    7  A    between atoms: N_11  and  C_12
REMARK    8  A    between atoms: C_12  and  C_13
REMARK    9  A    between atoms: C_22  and  C_23
REMARK   10  A    between atoms: N_26  and  C_27
REMARK                            x       y       z     vdW  Elec       q    Type
REMARK                         _______ _______ _______ _____ _____    ______ ____
ROOT
ATOM      1  N   UNL     1      -1.141  11.865  21.247  0.00  0.00    -0.292 N 
ATOM      2  C   UNL     1      -1.667  11.472  22.473  0.00  0.00    +0.217 C 
ATOM      3  O   UNL     1      -2.699  11.872  22.992  0.00  0.00    -0.276 OA
ATOM      4  C   UNL     1      -0.797  10.381  23.045  0.00  0.00    +0.030 C 
ATOM      5  C   UNL     1       0.457  10.433  22.169  0.00  0.00    +0.003 C 
ATOM      6  C   UNL     1      -0.068  10.979  20.836  0.00  0.00    +0.059 C 
ATOM      7  H   UNL     1      -1.343   9.437  22.969  0.00  0.00    +0.036 HD
ATOM      8  H   UNL     1      -0.561  10.590  24.091  0.00  0.00    +0.036 HD
ATOM      9  H   UNL     1       1.137  11.166  22.630  0.00  0.00    +0.034 HD
ATOM     10  H   UNL     1      -0.538  10.185  20.244  0.00  0.00    +0.055 HD
ENDROOT
BRANCH   6  11
ATOM     11  C   UNL     1       0.968  11.675  20.020  0.00  0.00    +0.011 A 
ATOM     12  C   UNL     1       1.427  11.365  18.716  0.00  0.00    +0.054 A 
ATOM     13  N   UNL     1       2.350  12.223  18.275  0.00  0.00    -0.180 NA
ATOM     14  N   UNL     1       2.489  13.090  19.292  0.00  0.00    -0.274 N 
ATOM     15  C   UNL     1       1.689  12.806  20.359  0.00  0.00    +0.030 A 
ATOM     16  H   UNL     1       1.128  10.542  18.077  0.00  0.00    +0.085 HD
ATOM     17  H   UNL     1       1.683  13.420  21.248  0.00  0.00    +0.083 HD
BRANCH  14  18
ATOM     18  C   UNL     1       3.410  14.192  19.164  0.00  0.00    +0.030 C 
ATOM     19  H   UNL     1       3.704  14.278  18.116  0.00  0.00    +0.047 HD
ATOM     20  H   UNL     1       4.292  14.001  19.782  0.00  0.00    +0.047 HD
ATOM     21  H   UNL     1       2.907  15.102  19.500  0.00  0.00    +0.047 HD
ENDBRANCH  14  18
ENDBRANCH   6  11
BRANCH   1  22
ATOM     22  C   UNL     1      -1.901  12.698  20.318  0.00  0.00    +0.039 C 
ATOM     23  H   UNL     1      -1.199  13.378  19.824  0.00  0.00    +0.049 HD
ATOM     24  H   UNL     1      -2.594  13.322  20.892  0.00  0.00    +0.049 HD
BRANCH  22  25
ATOM     25  C   UNL     1      -2.664  11.899  19.250  0.00  0.00    +0.063 C 
ATOM     26  H   UNL     1      -3.682  12.294  19.139  0.00  0.00    +0.058 HD
ATOM     27  H   UNL     1      -2.771  10.860  19.570  0.00  0.00    +0.058 HD
BRANCH  25  28
ATOM     28  O   UNL     1      -2.013  11.870  17.978  0.00  0.00    -0.381 OA
BRANCH  28  29
ATOM     29  C   UNL     1      -1.996  10.578  17.387  0.00  0.00    +0.037 C 
ATOM     30  H   UNL     1      -1.445  10.602  16.440  0.00  0.00    +0.052 HD
ATOM     31  H   UNL     1      -1.554   9.835  18.053  0.00  0.00    +0.052 HD
ATOM     32  H   UNL     1      -3.028  10.285  17.178  0.00  0.00    +0.052 HD
ENDBRANCH  28  29
ENDBRANCH  25  28
ENDBRANCH  22  25
ENDBRANCH   1  22
BRANCH   5  33
ATOM     33  C   UNL     1       1.226   9.112  22.057  0.00  0.00    +0.002 C 
ATOM     34  H   UNL     1       1.043   8.530  22.968  0.00  0.00    +0.043 HD
ATOM     35  H   UNL     1       2.297   9.344  22.028  0.00  0.00    +0.043 HD
BRANCH  33  36
ATOM     36  N   UNL     1       0.857   8.327  20.873  0.00  0.00    -0.310 NA
ATOM     37  H   UNL     1       0.437   7.444  21.167  0.00  0.00    +0.122 HD
BRANCH  36  38
ATOM     38  C   UNL     1       2.033   8.004  20.048  0.00  0.00    +0.040 C 
ATOM     39  H   UNL     1       1.982   8.604  19.132  0.00  0.00    +0.049 HD
ATOM     40  H   UNL     1       2.963   8.288  20.553  0.00  0.00    +0.049 HD
BRANCH  38  41
ATOM     41  C   UNL     1       2.045   6.555  19.680  0.00  0.00    +0.074 A 
ATOM     42  C   UNL     1       2.472   5.967  18.505  0.00  0.00    +0.034 A 
ATOM     43  N   UNL     1       2.258   4.621  18.662  0.00  0.00    -0.306 N 
ATOM     44  C   UNL     1       2.509   3.573  17.779  0.00  0.00    +0.011 A 
ATOM     45  C   UNL     1       2.210   2.317  18.155  0.00  0.00    -0.045 A 
ATOM     46  C   UNL     1       1.636   2.094  19.474  0.00  0.00    -0.057 A 
ATOM     47  C   UNL     1       1.397   3.115  20.322  0.00  0.00    -0.019 A 
ATOM     48  C   UNL     1       1.709   4.448  19.928  0.00  0.00    +0.138 A 
ATOM     49  N   UNL     1       1.574   5.597  20.554  0.00  0.00    -0.231 NA
ATOM     50  H   UNL     1       2.893   6.380  17.601  0.00  0.00    +0.083 HD
ATOM     51  H   UNL     1       2.938   3.820  16.817  0.00  0.00    +0.081 HD
ATOM     52  H   UNL     1       2.384   1.465  17.506  0.00  0.00    +0.063 HD
ATOM     53  H   UNL     1       1.404   1.073  19.760  0.00  0.00    +0.062 HD
ATOM     54  H   UNL     1       0.971   2.953  21.305  0.00  0.00    +0.065 HD
ENDBRANCH  38  41
ENDBRANCH  36  38
ENDBRANCH  33  36
ENDBRANCH   5  33
TORSDOF 10
ENDMDL
MODEL 11
REMARK VINA RESULT:    -6.281      1.624      2.497
REMARK INTER + INTRA:         -10.537
REMARK INTER:                  -9.661
REMARK INTRA:                  -0.875
REMARK UNBOUND:                -0.951
REMARK  Name = 
REMARK  10 active torsions:
REMARK  status: ('A' for Active; 'I' for Inactive)
REMARK    1  A    between atoms: C_1  and  O_2
REMARK    2  A    between atoms: O_2  and  C_3
REMARK    3  A    between atoms: C_3  and  C_4
REMARK    4  A    between atoms: C_4  and  N_5
REMARK    5  A    between atoms: C_9  and  C_10
REMARK    6  A    between atoms: C_10  and  N_11
REMARK    7  A    between atoms: N_11  and  C_12
REMARK    8  A    between atoms: C_12  and  C_13
REMARK    9  A    between atoms: C_22  and  C_23
REMARK   10  A    between atoms: N_26  and  C_27
REMARK                            x       y       z     vdW  Elec       q    Type
REMARK                         _______ _______ _______ _____ _____    ______ ____
ROOT
ATOM      1  N   UNL     1       3.141   3.228  18.643  0.00  0.00    -0.292 N 
ATOM      2  C   UNL     1       1.814   3.116  18.244  0.00  0.00    +0.217 C 
ATOM      3  O   UNL     1       1.140   2.097  18.212  0.00  0.00    -0.276 OA
ATOM      4  C   UNL     1       1.285   4.494  17.933  0.00  0.00    +0.030 C 
ATOM      5  C   UNL     1       2.549   5.354  17.880  0.00  0.00    +0.003 C 
ATOM      6  C   UNL     1       3.514   4.620  18.817  0.00  0.00    +0.059 C 
ATOM      7  H   UNL     1       0.595   4.781  18.732  0.00  0.00    +0.036 HD
ATOM      8  H   UNL     1       0.762   4.494  16.973  0.00  0.00    +0.036 HD
ATOM      9  H   UNL     1       2.924   5.305  16.846  0.00  0.00    +0.034 HD
ATOM     10  H   UNL     1       3.305   4.863  19.866  0.00  0.00    +0.055 HD
ENDROOT
BRANCH   6  11
ATOM     11  C   UNL     1       4.954   4.869  18.517  0.00  0.00    +0.011 A 
ATOM     12  C   UNL     1       5.655   4.673  17.303  0.00  0.00    +0.054 A 
ATOM     13  N   UNL     1       6.939   5.029  17.384  0.00  0.00    -0.180 NA
ATOM     14  N   UNL     1       7.071   5.457  18.650  0.00  0.00    -0.274 N 
ATOM     15  C   UNL     1       5.916   5.378  19.371  0.00  0.00    +0.030 A 
ATOM     16  H   UNL     1       5.278   4.278  16.366  0.00  0.00    +0.085 HD
ATOM     17  H   UNL     1       5.864   5.694  20.403  0.00  0.00    +0.083 HD
BRANCH  14  18
ATOM     18  C   UNL     1       8.348   5.947  19.105  0.00  0.00    +0.030 C 
ATOM     19  H   UNL     1       8.948   5.095  19.434  0.00  0.00    +0.047 HD
ATOM     20  H   UNL     1       8.196   6.639  19.938  0.00  0.00    +0.047 HD
ATOM     21  H   UNL     1       8.834   6.463  18.273  0.00  0.00    +0.047 HD
ENDBRANCH  14  18
ENDBRANCH   6  11
BRANCH   1  22
ATOM     22  C   UNL     1       3.849   2.118  19.276  0.00  0.00    +0.039 C 
ATOM     23  H   UNL     1       4.876   2.112  18.896  0.00  0.00    +0.049 HD
ATOM     24  H   UNL     1       3.388   1.178  18.953  0.00  0.00    +0.049 HD
BRANCH  22  25
ATOM     25  C   UNL     1       3.879   2.195  20.810  0.00  0.00    +0.063 C 
ATOM     26  H   UNL     1       4.440   3.082  21.132  0.00  0.00    +0.058 HD
ATOM     27  H   UNL     1       4.412   1.332  21.216  0.00  0.00    +0.058 HD
BRANCH  25  28
ATOM     28  O   UNL     1       2.583   2.194  21.413  0.00  0.00    -0.381 OA
BRANCH  28  29
ATOM     29  C   UNL     1       2.184   3.472  21.887  0.00  0.00    +0.037 C 
ATOM     30  H   UNL     1       1.795   4.078  21.062  0.00  0.00    +0.052 HD
ATOM     31  H   UNL     1       1.432   3.393  22.674  0.00  0.00    +0.052 HD
ATOM     32  H   UNL     1       3.063   3.974  22.299  0.00  0.00    +0.052 HD
ENDBRANCH  28  29
ENDBRANCH  25  28
ENDBRANCH  22  25
ENDBRANCH   1  22
BRANCH   5  33
ATOM     33  C   UNL     1       2.341   6.836  18.214  0.00  0.00    +0.002 C 
ATOM     34  H   UNL     1       1.295   7.091  18.007  0.00  0.00    +0.043 HD
ATOM     35  H   UNL     1       2.962   7.428  17.533  0.00  0.00    +0.043 HD
BRANCH  33  36
ATOM     36  N   UNL     1       2.676   7.167  19.604  0.00  0.00    -0.310 NA
ATOM     37  H   UNL     1       3.406   6.538  19.938  0.00  0.00    +0.122 HD
BRANCH  36  38
ATOM     38  C   UNL     1       1.515   7.007  20.495  0.00  0.00    +0.040 C 
ATOM     39  H   UNL     1       0.750   6.433  19.958  0.00  0.00    +0.049 HD
ATOM     40  H   UNL     1       1.773   6.422  21.385  0.00  0.00    +0.049 HD
BRANCH  38  41
ATOM     41  C   UNL     1       0.946   8.336  20.875  0.00  0.00    +0.074 A 
ATOM     42  C   UNL     1       1.064   9.546  20.219  0.00  0.00    +0.034 A 
ATOM     43  N   UNL     1       0.378  10.455  20.984  0.00  0.00    -0.306 N 
ATOM     44  C   UNL     1       0.184  11.819  20.781  0.00  0.00    +0.011 A 
ATOM     45  C   UNL     1      -0.532  12.518  21.680  0.00  0.00    -0.045 A 
ATOM     46  C   UNL     1      -1.083  11.823  22.835  0.00  0.00    -0.057 A 
ATOM     47  C   UNL     1      -0.890  10.502  23.022  0.00  0.00    -0.019 A 
ATOM     48  C   UNL     1      -0.130   9.758  22.075  0.00  0.00    +0.138 A 
ATOM     49  N   UNL     1       0.200   8.484  22.027  0.00  0.00    -0.231 NA
ATOM     50  H   UNL     1       1.565   9.827  19.305  0.00  0.00    +0.083 HD
ATOM     51  H   UNL     1       0.625  12.263  19.898  0.00  0.00    +0.081 HD
ATOM     52  H   UNL     1      -0.713  13.581  21.570  0.00  0.00    +0.063 HD
ATOM     53  H   UNL     1      -1.660  12.404  23.548  0.00  0.00    +0.062 HD
ATOM     54  H   UNL     1      -1.299   9.981  23.880  0.00  0.00    +0.065 HD
ENDBRANCH  38  41
ENDBRANCH  36  38
ENDBRANCH  33  36
ENDBRANCH   5  33
TORSDOF 10
ENDMDL
MODEL 12
REMARK VINA RESULT:    -6.196      2.166      3.755
REMARK INTER + INTRA:         -10.407
REMARK INTER:                  -9.682
REMARK INTRA:                  -0.726
REMARK UNBOUND:                -0.951
REMARK  Name = 
REMARK  10 active torsions:
REMARK  status: ('A' for Active; 'I' for Inactive)
REMARK    1  A    between atoms: C_1  and  O_2
REMARK    2  A    between atoms: O_2  and  C_3
REMARK    3  A    between atoms: C_3  and  C_4
REMARK    4  A    between atoms: C_4  and  N_5
REMARK    5  A    between atoms: C_9  and  C_10
REMARK    6  A    between atoms: C_10  and  N_11
REMARK    7  A    between atoms: N_11  and  C_12
REMARK    8  A    between atoms: C_12  and  C_13
REMARK    9  A    between atoms: C_22  and  C_23
REMARK   10  A    between atoms: N_26  and  C_27
REMARK                            x       y       z     vdW  Elec       q    Type
REMARK                         _______ _______ _______ _____ _____    ______ ____
ROOT
ATOM      1  N   UNL     1       4.449   5.234  16.742  0.00  0.00    -0.292 N 
ATOM      2  C   UNL     1       4.625   6.611  16.651  0.00  0.00    +0.217 C 
ATOM      3  O   UNL     1       5.253   7.216  15.796  0.00  0.00    -0.276 OA
ATOM      4  C   UNL     1       3.828   7.273  17.747  0.00  0.00    +0.030 C 
ATOM      5  C   UNL     1       3.452   6.108  18.665  0.00  0.00    +0.003 C 
ATOM      6  C   UNL     1       3.422   4.906  17.713  0.00  0.00    +0.059 C 
ATOM      7  H   UNL     1       2.965   7.764  17.290  0.00  0.00    +0.036 HD
ATOM      8  H   UNL     1       4.440   8.011  18.271  0.00  0.00    +0.036 HD
ATOM      9  H   UNL     1       4.276   5.991  19.385  0.00  0.00    +0.034 HD
ATOM     10  H   UNL     1       2.477   4.869  17.156  0.00  0.00    +0.055 HD
ENDROOT
BRANCH   6  11
ATOM     11  C   UNL     1       3.666   3.597  18.385  0.00  0.00    +0.011 A 
ATOM     12  C   UNL     1       3.183   2.314  18.031  0.00  0.00    +0.054 A 
ATOM     13  N   UNL     1       3.626   1.352  18.844  0.00  0.00    -0.180 NA
ATOM     14  N   UNL     1       4.397   2.011  19.724  0.00  0.00    -0.274 N 
ATOM     15  C   UNL     1       4.451   3.355  19.497  0.00  0.00    +0.030 A 
ATOM     16  H   UNL     1       2.520   2.048  17.215  0.00  0.00    +0.085 HD
ATOM     17  H   UNL     1       5.039   4.015  20.118  0.00  0.00    +0.083 HD
BRANCH  14  18
ATOM     18  C   UNL     1       5.072   1.277  20.765  0.00  0.00    +0.030 C 
ATOM     19  H   UNL     1       6.135   1.526  20.730  0.00  0.00    +0.047 HD
ATOM     20  H   UNL     1       4.937   0.205  20.600  0.00  0.00    +0.047 HD
ATOM     21  H   UNL     1       4.639   1.565  21.726  0.00  0.00    +0.047 HD
ENDBRANCH  14  18
ENDBRANCH   6  11
BRANCH   1  22
ATOM     22  C   UNL     1       4.858   4.336  15.665  0.00  0.00    +0.039 C 
ATOM     23  H   UNL     1       4.891   4.915  14.736  0.00  0.00    +0.049 HD
ATOM     24  H   UNL     1       4.084   3.572  15.532  0.00  0.00    +0.049 HD
BRANCH  22  25
ATOM     25  C   UNL     1       6.225   3.674  15.895  0.00  0.00    +0.063 C 
ATOM     26  H   UNL     1       6.521   3.101  15.007  0.00  0.00    +0.058 HD
ATOM     27  H   UNL     1       6.157   2.955  16.715  0.00  0.00    +0.058 HD
BRANCH  25  28
ATOM     28  O   UNL     1       7.259   4.596  16.246  0.00  0.00    -0.381 OA
BRANCH  28  29
ATOM     29  C   UNL     1       7.623   4.535  17.617  0.00  0.00    +0.037 C 
ATOM     30  H   UNL     1       7.873   3.507  17.898  0.00  0.00    +0.052 HD
ATOM     31  H   UNL     1       8.464   5.194  17.841  0.00  0.00    +0.052 HD
ATOM     32  H   UNL     1       6.765   4.857  18.213  0.00  0.00    +0.052 HD
ENDBRANCH  28  29
ENDBRANCH  25  28
ENDBRANCH  22  25
ENDBRANCH   1  22
BRANCH   5  33
ATOM     33  C   UNL     1       2.167   6.309  19.477  0.00  0.00    +0.002 C 
ATOM     34  H   UNL     1       2.200   5.637  20.342  0.00  0.00    +0.043 HD
ATOM     35  H   UNL     1       1.320   5.999  18.854  0.00  0.00    +0.043 HD
BRANCH  33  36
ATOM     36  N   UNL     1       1.975   7.695  19.921  0.00  0.00    -0.310 NA
ATOM     37  H   UNL     1       2.884   8.136  20.063  0.00  0.00    +0.122 HD
BRANCH  36  38
ATOM     38  C   UNL     1       1.248   7.759  21.199  0.00  0.00    +0.040 C 
ATOM     39  H   UNL     1       0.594   6.881  21.264  0.00  0.00    +0.049 HD
ATOM     40  H   UNL     1       1.935   7.697  22.051  0.00  0.00    +0.049 HD
BRANCH  38  41
ATOM     41  C   UNL     1       0.410   8.995  21.276  0.00  0.00    +0.074 A 
ATOM     42  C   UNL     1      -0.031   9.804  20.247  0.00  0.00    +0.034 A 
ATOM     43  N   UNL     1      -0.745  10.812  20.844  0.00  0.00    -0.306 N 
ATOM     44  C   UNL     1      -1.402  11.896  20.268  0.00  0.00    +0.011 A 
ATOM     45  C   UNL     1      -2.043  12.770  21.064  0.00  0.00    -0.045 A 
ATOM     46  C   UNL     1      -2.029  12.552  22.504  0.00  0.00    -0.057 A 
ATOM     47  C   UNL     1      -1.391  11.498  23.052  0.00  0.00    -0.019 A 
ATOM     48  C   UNL     1      -0.708  10.572  22.213  0.00  0.00    +0.138 A 
ATOM     49  N   UNL     1      -0.020   9.485  22.492  0.00  0.00    -0.231 NA
ATOM     50  H   UNL     1       0.102   9.751  19.177  0.00  0.00    +0.083 HD
ATOM     51  H   UNL     1      -1.367  11.989  19.190  0.00  0.00    +0.081 HD
ATOM     52  H   UNL     1      -2.570  13.631  20.667  0.00  0.00    +0.063 HD
ATOM     53  H   UNL     1      -2.554  13.267  23.129  0.00  0.00    +0.062 HD
ATOM     54  H   UNL     1      -1.380  11.332  24.123  0.00  0.00    +0.065 HD
ENDBRANCH  38  41
ENDBRANCH  36  38
ENDBRANCH  33  36
ENDBRANCH   5  33
TORSDOF 10
ENDMDL
MODEL 13
REMARK VINA RESULT:    -6.183      1.786      2.499
REMARK INTER + INTRA:         -10.387
REMARK INTER:                  -9.708
REMARK INTRA:                  -0.679
REMARK UNBOUND:                -0.951
REMARK  Name = 
REMARK  10 active torsions:
REMARK  status: ('A' for Active; 'I' for Inactive)
REMARK    1  A    between atoms: C_1  and  O_2
REMARK    2  A    between atoms: O_2  and  C_3
REMARK    3  A    between atoms: C_3  and  C_4
REMARK    4  A    between atoms: C_4  and  N_5
REMARK    5  A    between atoms: C_9  and  C_10
REMARK    6  A    between atoms: C_10  and  N_11
REMARK    7  A    between atoms: N_11  and  C_12
REMARK    8  A    between atoms: C_12  and  C_13
REMARK    9  A    between atoms: C_22  and  C_23
REMARK   10  A    between atoms: N_26  and  C_27
REMARK                            x       y       z     vdW  Elec       q    Type
REMARK                         _______ _______ _______ _____ _____    ______ ____
ROOT
ATOM      1  N   UNL     1       3.179   3.643  18.059  0.00  0.00    -0.292 N 
ATOM      2  C   UNL     1       1.820   3.889  18.218  0.00  0.00    +0.217 C 
ATOM      3  O   UNL     1       0.944   3.065  18.435  0.00  0.00    -0.276 OA
ATOM      4  C   UNL     1       1.590   5.379  18.173  0.00  0.00    +0.030 C 
ATOM      5  C   UNL     1       2.916   5.925  17.640  0.00  0.00    +0.003 C 
ATOM      6  C   UNL     1       3.938   4.879  18.100  0.00  0.00    +0.059 C 
ATOM      7  H   UNL     1       1.355   5.717  19.186  0.00  0.00    +0.036 HD
ATOM      8  H   UNL     1       0.762   5.617  17.501  0.00  0.00    +0.036 HD
ATOM      9  H   UNL     1       2.846   5.918  16.542  0.00  0.00    +0.034 HD
ATOM     10  H   UNL     1       4.212   5.033  19.151  0.00  0.00    +0.055 HD
ENDROOT
BRANCH   6  11
ATOM     11  C   UNL     1       5.168   4.825  17.259  0.00  0.00    +0.011 A 
ATOM     12  C   UNL     1       6.517   4.685  17.665  0.00  0.00    +0.054 A 
ATOM     13  N   UNL     1       7.366   4.646  16.636  0.00  0.00    -0.180 NA
ATOM     14  N   UNL     1       6.568   4.758  15.562  0.00  0.00    -0.274 N 
ATOM     15  C   UNL     1       5.247   4.872  15.879  0.00  0.00    +0.030 A 
ATOM     16  H   UNL     1       6.911   4.618  18.673  0.00  0.00    +0.085 HD
ATOM     17  H   UNL     1       4.483   4.962  15.119  0.00  0.00    +0.083 HD
BRANCH  14  18
ATOM     18  C   UNL     1       7.147   4.736  14.241  0.00  0.00    +0.030 C 
ATOM     19  H   UNL     1       7.854   3.905  14.188  0.00  0.00    +0.047 HD
ATOM     20  H   UNL     1       7.669   5.679  14.058  0.00  0.00    +0.047 HD
ATOM     21  H   UNL     1       6.342   4.605  13.514  0.00  0.00    +0.047 HD
ENDBRANCH  14  18
ENDBRANCH   6  11
BRANCH   1  22
ATOM     22  C   UNL     1       3.759   2.330  18.334  0.00  0.00    +0.039 C 
ATOM     23  H   UNL     1       4.635   2.206  17.688  0.00  0.00    +0.049 HD
ATOM     24  H   UNL     1       3.038   1.560  18.039  0.00  0.00    +0.049 HD
BRANCH  22  25
ATOM     25  C   UNL     1       4.180   2.132  19.798  0.00  0.00    +0.063 C 
ATOM     26  H   UNL     1       5.273   2.179  19.886  0.00  0.00    +0.058 HD
ATOM     27  H   UNL     1       3.888   1.136  20.138  0.00  0.00    +0.058 HD
BRANCH  25  28
ATOM     28  O   UNL     1       3.579   3.063  20.701  0.00  0.00    -0.381 OA
BRANCH  28  29
ATOM     29  C   UNL     1       2.564   2.486  21.509  0.00  0.00    +0.037 C 
ATOM     30  H   UNL     1       1.603   2.974  21.317  0.00  0.00    +0.052 HD
ATOM     31  H   UNL     1       2.475   1.412  21.338  0.00  0.00    +0.052 HD
ATOM     32  H   UNL     1       2.830   2.647  22.557  0.00  0.00    +0.052 HD
ENDBRANCH  28  29
ENDBRANCH  25  28
ENDBRANCH  22  25
ENDBRANCH   1  22
BRANCH   5  33
ATOM     33  C   UNL     1       3.243   7.362  18.062  0.00  0.00    +0.002 C 
ATOM     34  H   UNL     1       3.629   7.898  17.187  0.00  0.00    +0.043 HD
ATOM     35  H   UNL     1       4.050   7.323  18.803  0.00  0.00    +0.043 HD
BRANCH  33  36
ATOM     36  N   UNL     1       2.090   8.077  18.623  0.00  0.00    -0.310 NA
ATOM     37  H   UNL     1       1.302   7.435  18.711  0.00  0.00    +0.122 HD
BRANCH  36  38
ATOM     38  C   UNL     1       1.663   9.184  17.751  0.00  0.00    +0.040 C 
ATOM     39  H   UNL     1       2.407   9.298  16.955  0.00  0.00    +0.049 HD
ATOM     40  H   UNL     1       0.711   8.957  17.257  0.00  0.00    +0.049 HD
BRANCH  38  41
ATOM     41  C   UNL     1       1.574  10.464  18.519  0.00  0.00    +0.074 A 
ATOM     42  C   UNL     1       0.860  10.732  19.671  0.00  0.00    +0.034 A 
ATOM     43  N   UNL     1       1.098  12.052  19.959  0.00  0.00    -0.306 N 
ATOM     44  C   UNL     1       0.620  12.831  21.010  0.00  0.00    +0.011 A 
ATOM     45  C   UNL     1       0.992  14.121  21.089  0.00  0.00    -0.045 A 
ATOM     46  C   UNL     1       1.884  14.660  20.071  0.00  0.00    -0.057 A 
ATOM     47  C   UNL     1       2.341  13.897  19.058  0.00  0.00    -0.019 A 
ATOM     48  C   UNL     1       1.949  12.531  18.969  0.00  0.00    +0.138 A 
ATOM     49  N   UNL     1       2.245  11.592  18.096  0.00  0.00    -0.231 NA
ATOM     50  H   UNL     1       0.222  10.116  20.287  0.00  0.00    +0.083 HD
ATOM     51  H   UNL     1      -0.039  12.358  21.727  0.00  0.00    +0.081 HD
ATOM     52  H   UNL     1       0.649  14.772  21.886  0.00  0.00    +0.063 HD
ATOM     53  H   UNL     1       2.174  15.703  20.153  0.00  0.00    +0.062 HD
ATOM     54  H   UNL     1       3.006  14.294  18.300  0.00  0.00    +0.065 HD
ENDBRANCH  38  41
ENDBRANCH  36  38
ENDBRANCH  33  36
ENDBRANCH   5  33
TORSDOF 10
ENDMDL
MODEL 14
REMARK VINA RESULT:    -6.145      3.934      8.438
REMARK INTER + INTRA:         -10.330
REMARK INTER:                  -9.321
REMARK INTRA:                  -1.009
REMARK UNBOUND:                -0.951
REMARK  Name = 
REMARK  10 active torsions:
REMARK  status: ('A' for Active; 'I' for Inactive)
REMARK    1  A    between atoms: C_1  and  O_2
REMARK    2  A    between atoms: O_2  and  C_3
REMARK    3  A    between atoms: C_3  and  C_4
REMARK    4  A    between atoms: C_4  and  N_5
REMARK    5  A    between atoms: C_9  and  C_10
REMARK    6  A    between atoms: C_10  and  N_11
REMARK    7  A    between atoms: N_11  and  C_12
REMARK    8  A    between atoms: C_12  and  C_13
REMARK    9  A    between atoms: C_22  and  C_23
REMARK   10  A    between atoms: N_26  and  C_27
REMARK                            x       y       z     vdW  Elec       q    Type
REMARK                         _______ _______ _______ _____ _____    ______ ____
ROOT
ATOM      1  N   UNL     1      -0.767  12.268  19.336  0.00  0.00    -0.292 N 
ATOM      2  C   UNL     1       0.494  12.735  19.690  0.00  0.00    +0.217 C 
ATOM      3  O   UNL     1       0.761  13.810  20.206  0.00  0.00    -0.276 OA
ATOM      4  C   UNL     1       1.505  11.650  19.415  0.00  0.00    +0.030 C 
ATOM      5  C   UNL     1       0.726  10.647  18.563  0.00  0.00    +0.003 C 
ATOM      6  C   UNL     1      -0.724  10.853  19.015  0.00  0.00    +0.059 C 
ATOM      7  H   UNL     1       1.835  11.244  20.375  0.00  0.00    +0.036 HD
ATOM      8  H   UNL     1       2.361  12.056  18.871  0.00  0.00    +0.036 HD
ATOM      9  H   UNL     1       0.838  10.965  17.515  0.00  0.00    +0.034 HD
ATOM     10  H   UNL     1      -0.923  10.322  19.954  0.00  0.00    +0.055 HD
ENDROOT
BRANCH   6  11
ATOM     11  C   UNL     1      -1.737  10.467  17.991  0.00  0.00    +0.011 A 
ATOM     12  C   UNL     1      -2.896   9.668  18.145  0.00  0.00    +0.054 A 
ATOM     13  N   UNL     1      -3.597   9.550  17.015  0.00  0.00    -0.180 NA
ATOM     14  N   UNL     1      -2.893  10.273  16.128  0.00  0.00    -0.274 N 
ATOM     15  C   UNL     1      -1.772  10.839  16.659  0.00  0.00    +0.030 A 
ATOM     16  H   UNL     1      -3.250   9.163  19.037  0.00  0.00    +0.085 HD
ATOM     17  H   UNL     1      -1.110  11.456  16.069  0.00  0.00    +0.083 HD
BRANCH  14  18
ATOM     18  C   UNL     1      -3.369  10.392  14.772  0.00  0.00    +0.030 C 
ATOM     19  H   UNL     1      -2.506  10.477  14.109  0.00  0.00    +0.047 HD
ATOM     20  H   UNL     1      -3.995  11.284  14.684  0.00  0.00    +0.047 HD
ATOM     21  H   UNL     1      -3.953   9.500  14.533  0.00  0.00    +0.047 HD
ENDBRANCH  14  18
ENDBRANCH   6  11
BRANCH   1  22
ATOM     22  C   UNL     1      -1.986  12.968  19.738  0.00  0.00    +0.039 C 
ATOM     23  H   UNL     1      -2.712  12.874  18.923  0.00  0.00    +0.049 HD
ATOM     24  H   UNL     1      -1.760  14.035  19.838  0.00  0.00    +0.049 HD
BRANCH  22  25
ATOM     25  C   UNL     1      -2.611  12.431  21.034  0.00  0.00    +0.063 C 
ATOM     26  H   UNL     1      -2.758  11.346  20.961  0.00  0.00    +0.058 HD
ATOM     27  H   UNL     1      -3.603  12.866  21.176  0.00  0.00    +0.058 HD
BRANCH  25  28
ATOM     28  O   UNL     1      -1.858  12.742  22.208  0.00  0.00    -0.381 OA
BRANCH  28  29
ATOM     29  C   UNL     1      -1.397  11.591  22.901  0.00  0.00    +0.037 C 
ATOM     30  H   UNL     1      -1.231  11.826  23.958  0.00  0.00    +0.052 HD
ATOM     31  H   UNL     1      -2.098  10.759  22.812  0.00  0.00    +0.052 HD
ATOM     32  H   UNL     1      -0.443  11.287  22.461  0.00  0.00    +0.052 HD
ENDBRANCH  28  29
ENDBRANCH  25  28
ENDBRANCH  22  25
ENDBRANCH   1  22
BRANCH   5  33
ATOM     33  C   UNL     1       1.220   9.199  18.651  0.00  0.00    +0.002 C 
ATOM     34  H   UNL     1       0.354   8.550  18.824  0.00  0.00    +0.043 HD
ATOM     35  H   UNL     1       1.872   9.115  19.528  0.00  0.00    +0.043 HD
BRANCH  33  36
ATOM     36  N   UNL     1       1.945   8.762  17.451  0.00  0.00    -0.310 NA
ATOM     37  H   UNL     1       1.325   8.205  16.863  0.00  0.00    +0.122 HD
BRANCH  36  38
ATOM     38  C   UNL     1       3.103   7.920  17.794  0.00  0.00    +0.040 C 
ATOM     39  H   UNL     1       3.616   7.650  16.863  0.00  0.00    +0.049 HD
ATOM     40  H   UNL     1       3.830   8.472  18.400  0.00  0.00    +0.049 HD
BRANCH  38  41
ATOM     41  C   UNL     1       2.668   6.670  18.488  0.00  0.00    +0.074 A 
ATOM     42  C   UNL     1       2.654   6.393  19.841  0.00  0.00    +0.034 A 
ATOM     43  N   UNL     1       2.185   5.109  19.956  0.00  0.00    -0.306 N 
ATOM     44  C   UNL     1       1.978   4.338  21.097  0.00  0.00    +0.011 A 
ATOM     45  C   UNL     1       1.507   3.086  20.963  0.00  0.00    -0.045 A 
ATOM     46  C   UNL     1       1.228   2.578  19.627  0.00  0.00    -0.057 A 
ATOM     47  C   UNL     1       1.431   3.333  18.528  0.00  0.00    -0.019 A 
ATOM     48  C   UNL     1       1.932   4.658  18.665  0.00  0.00    +0.138 A 
ATOM     49  N   UNL     1       2.215   5.581  17.770  0.00  0.00    -0.231 NA
ATOM     50  H   UNL     1       2.933   6.982  20.703  0.00  0.00    +0.083 HD
ATOM     51  H   UNL     1       2.209   4.787  22.055  0.00  0.00    +0.081 HD
ATOM     52  H   UNL     1       1.329   2.443  21.818  0.00  0.00    +0.063 HD
ATOM     53  H   UNL     1       0.846   1.566  19.540  0.00  0.00    +0.062 HD
ATOM     54  H   UNL     1       1.223   2.958  17.532  0.00  0.00    +0.065 HD
ENDBRANCH  38  41
ENDBRANCH  36  38
ENDBRANCH  33  36
ENDBRANCH   5  33
TORSDOF 10
ENDMDL
MODEL 15
REMARK VINA RESULT:    -6.121      1.947      2.932
REMARK INTER + INTRA:         -10.293
REMARK INTER:                  -9.480
REMARK INTRA:                  -0.813
REMARK UNBOUND:                -0.951
REMARK  Name = 
REMARK  10 active torsions:
REMARK  status: ('A' for Active; 'I' for Inactive)
REMARK    1  A    between atoms: C_1  and  O_2
REMARK    2  A    between atoms: O_2  and  C_3
REMARK    3  A    between atoms: C_3  and  C_4
REMARK    4  A    between atoms: C_4  and  N_5
REMARK    5  A    between atoms: C_9  and  C_10
REMARK    6  A    between atoms: C_10  and  N_11
REMARK    7  A    between atoms: N_11  and  C_12
REMARK    8  A    between atoms: C_12  and  C_13
REMARK    9  A    between atoms: C_22  and  C_23
REMARK   10  A    between atoms: N_26  and  C_27
REMARK                            x       y       z     vdW  Elec       q    Type
REMARK                         _______ _______ _______ _____ _____    ______ ____
ROOT
ATOM      1  N   UNL     1       2.673   3.249  18.663  0.00  0.00    -0.292 N 
ATOM      2  C   UNL     1       1.365   2.938  19.018  0.00  0.00    +0.217 C 
ATOM      3  O   UNL     1       0.750   1.920  18.736  0.00  0.00    -0.276 OA
ATOM      4  C   UNL     1       0.832   4.035  19.905  0.00  0.00    +0.030 C 
ATOM      5  C   UNL     1       1.860   5.155  19.740  0.00  0.00    +0.003 C 
ATOM      6  C   UNL     1       3.152   4.400  19.406  0.00  0.00    +0.059 C 
ATOM      7  H   UNL     1       0.769   3.646  20.925  0.00  0.00    +0.036 HD
ATOM      8  H   UNL     1      -0.159   4.350  19.567  0.00  0.00    +0.036 HD
ATOM      9  H   UNL     1       1.544   5.754  18.872  0.00  0.00    +0.034 HD
ATOM     10  H   UNL     1       3.622   4.002  20.314  0.00  0.00    +0.055 HD
ENDROOT
BRANCH   6  11
ATOM     11  C   UNL     1       4.142   5.208  18.636  0.00  0.00    +0.011 A 
ATOM     12  C   UNL     1       3.925   6.048  17.518  0.00  0.00    +0.054 A 
ATOM     13  N   UNL     1       5.041   6.645  17.094  0.00  0.00    -0.180 NA
ATOM     14  N   UNL     1       5.983   6.193  17.939  0.00  0.00    -0.274 N 
ATOM     15  C   UNL     1       5.499   5.329  18.876  0.00  0.00    +0.030 A 
ATOM     16  H   UNL     1       2.996   6.241  16.993  0.00  0.00    +0.085 HD
ATOM     17  H   UNL     1       6.136   4.888  19.630  0.00  0.00    +0.083 HD
BRANCH  14  18
ATOM     18  C   UNL     1       7.343   6.648  17.795  0.00  0.00    +0.030 C 
ATOM     19  H   UNL     1       7.943   5.825  17.399  0.00  0.00    +0.047 HD
ATOM     20  H   UNL     1       7.729   6.953  18.772  0.00  0.00    +0.047 HD
ATOM     21  H   UNL     1       7.351   7.497  17.108  0.00  0.00    +0.047 HD
ENDBRANCH  14  18
ENDBRANCH   6  11
BRANCH   1  22
ATOM     22  C   UNL     1       3.557   2.263  18.045  0.00  0.00    +0.039 C 
ATOM     23  H   UNL     1       4.362   2.803  17.535  0.00  0.00    +0.049 HD
ATOM     24  H   UNL     1       2.997   1.727  17.271  0.00  0.00    +0.049 HD
BRANCH  22  25
ATOM     25  C   UNL     1       4.170   1.269  19.043  0.00  0.00    +0.063 C 
ATOM     26  H   UNL     1       4.923   0.647  18.542  0.00  0.00    +0.058 HD
ATOM     27  H   UNL     1       3.400   0.585  19.407  0.00  0.00    +0.058 HD
BRANCH  25  28
ATOM     28  O   UNL     1       4.743   1.890  20.196  0.00  0.00    -0.381 OA
BRANCH  28  29
ATOM     29  C   UNL     1       5.333   0.964  21.097  0.00  0.00    +0.037 C 
ATOM     30  H   UNL     1       5.430   1.413  22.091  0.00  0.00    +0.052 HD
ATOM     31  H   UNL     1       4.754   0.041  21.162  0.00  0.00    +0.052 HD
ATOM     32  H   UNL     1       6.333   0.719  20.729  0.00  0.00    +0.052 HD
ENDBRANCH  28  29
ENDBRANCH  25  28
ENDBRANCH  22  25
ENDBRANCH   1  22
BRANCH   5  33
ATOM     33  C   UNL     1       1.974   6.113  20.932  0.00  0.00    +0.002 C 
ATOM     34  H   UNL     1       2.862   5.836  21.512  0.00  0.00    +0.043 HD
ATOM     35  H   UNL     1       1.101   5.957  21.576  0.00  0.00    +0.043 HD
BRANCH  33  36
ATOM     36  N   UNL     1       2.050   7.524  20.534  0.00  0.00    -0.310 NA
ATOM     37  H   UNL     1       3.024   7.778  20.366  0.00  0.00    +0.122 HD
BRANCH  36  38
ATOM     38  C   UNL     1       1.536   8.413  21.588  0.00  0.00    +0.040 C 
ATOM     39  H   UNL     1       0.993   7.800  22.317  0.00  0.00    +0.049 HD
ATOM     40  H   UNL     1       2.354   8.894  22.136  0.00  0.00    +0.049 HD
BRANCH  38  41
ATOM     41  C   UNL     1       0.602   9.432  21.019  0.00  0.00    +0.074 A 
ATOM     42  C   UNL     1      -0.109  10.416  21.678  0.00  0.00    +0.034 A 
ATOM     43  N   UNL     1      -0.828  11.071  20.710  0.00  0.00    -0.306 N 
ATOM     44  C   UNL     1      -1.710  12.141  20.831  0.00  0.00    +0.011 A 
ATOM     45  C   UNL     1      -2.309  12.622  19.728  0.00  0.00    -0.045 A 
ATOM     46  C   UNL     1      -2.013  12.007  18.441  0.00  0.00    -0.057 A 
ATOM     47  C   UNL     1      -1.157  10.971  18.335  0.00  0.00    -0.019 A 
ATOM     48  C   UNL     1      -0.522  10.457  19.501  0.00  0.00    +0.138 A 
ATOM     49  N   UNL     1       0.335   9.471  19.665  0.00  0.00    -0.231 NA
ATOM     50  H   UNL     1      -0.164  10.693  22.721  0.00  0.00    +0.083 HD
ATOM     51  H   UNL     1      -1.877  12.544  21.822  0.00  0.00    +0.081 HD
ATOM     52  H   UNL     1      -3.005  13.453  19.766  0.00  0.00    +0.063 HD
ATOM     53  H   UNL     1      -2.505  12.411  17.562  0.00  0.00    +0.062 HD
ATOM     54  H   UNL     1      -0.933  10.512  17.378  0.00  0.00    +0.065 HD
ENDBRANCH  38  41
ENDBRANCH  36  38
ENDBRANCH  33  36
ENDBRANCH   5  33
TORSDOF 10
ENDMDL
MODEL 16
REMARK VINA RESULT:    -6.114      1.977      3.124
REMARK INTER + INTRA:         -10.282
REMARK INTER:                  -9.412
REMARK INTRA:                  -0.870
REMARK UNBOUND:                -0.951
REMARK  Name = 
REMARK  10 active torsions:
REMARK  status: ('A' for Active; 'I' for Inactive)
REMARK    1  A    between atoms: C_1  and  O_2
REMARK    2  A    between atoms: O_2  and  C_3
REMARK    3  A    between atoms: C_3  and  C_4
REMARK    4  A    between atoms: C_4  and  N_5
REMARK    5  A    between atoms: C_9  and  C_10
REMARK    6  A    between atoms: C_10  and  N_11
REMARK    7  A    between atoms: N_11  and  C_12
REMARK    8  A    between atoms: C_12  and  C_13
REMARK    9  A    between atoms: C_22  and  C_23
REMARK   10  A    between atoms: N_26  and  C_27
REMARK                            x       y       z     vdW  Elec       q    Type
REMARK                         _______ _______ _______ _____ _____    ______ ____
ROOT
ATOM      1  N   UNL     1       4.565   3.975  17.197  0.00  0.00    -0.292 N 
ATOM      2  C   UNL     1       3.215   3.687  17.021  0.00  0.00    +0.217 C 
ATOM      3  O   UNL     1       2.719   3.001  16.140  0.00  0.00    -0.276 OA
ATOM      4  C   UNL     1       2.440   4.290  18.166  0.00  0.00    +0.030 C 
ATOM      5  C   UNL     1       3.454   5.227  18.825  0.00  0.00    +0.003 C 
ATOM      6  C   UNL     1       4.801   4.575  18.497  0.00  0.00    +0.059 C 
ATOM      7  H   UNL     1       2.110   3.477  18.818  0.00  0.00    +0.036 HD
ATOM      8  H   UNL     1       1.573   4.840  17.791  0.00  0.00    +0.036 HD
ATOM      9  H   UNL     1       3.374   6.196  18.309  0.00  0.00    +0.034 HD
ATOM     10  H   UNL     1       5.014   3.744  19.182  0.00  0.00    +0.055 HD
ENDROOT
BRANCH   6  11
ATOM     11  C   UNL     1       5.948   5.528  18.487  0.00  0.00    +0.011 A 
ATOM     12  C   UNL     1       7.177   5.447  19.185  0.00  0.00    +0.054 A 
ATOM     13  N   UNL     1       7.992   6.470  18.920  0.00  0.00    -0.180 NA
ATOM     14  N   UNL     1       7.292   7.215  18.048  0.00  0.00    -0.274 N 
ATOM     15  C   UNL     1       6.064   6.699  17.760  0.00  0.00    +0.030 A 
ATOM     16  H   UNL     1       7.504   4.683  19.883  0.00  0.00    +0.085 HD
ATOM     17  H   UNL     1       5.390   7.183  17.067  0.00  0.00    +0.083 HD
BRANCH  14  18
ATOM     18  C   UNL     1       7.878   8.420  17.514  0.00  0.00    +0.030 C 
ATOM     19  H   UNL     1       7.357   8.677  16.589  0.00  0.00    +0.047 HD
ATOM     20  H   UNL     1       8.938   8.248  17.308  0.00  0.00    +0.047 HD
ATOM     21  H   UNL     1       7.765   9.214  18.255  0.00  0.00    +0.047 HD
ENDBRANCH  14  18
ENDBRANCH   6  11
BRANCH   1  22
ATOM     22  C   UNL     1       5.601   3.300  16.418  0.00  0.00    +0.039 C 
ATOM     23  H   UNL     1       5.179   2.367  16.031  0.00  0.00    +0.049 HD
ATOM     24  H   UNL     1       6.420   3.022  17.091  0.00  0.00    +0.049 HD
BRANCH  22  25
ATOM     25  C   UNL     1       6.137   4.135  15.245  0.00  0.00    +0.063 C 
ATOM     26  H   UNL     1       7.173   3.851  15.022  0.00  0.00    +0.058 HD
ATOM     27  H   UNL     1       6.162   5.192  15.522  0.00  0.00    +0.058 HD
BRANCH  25  28
ATOM     28  O   UNL     1       5.341   4.042  14.062  0.00  0.00    -0.381 OA
BRANCH  28  29
ATOM     29  C   UNL     1       6.080   3.637  12.918  0.00  0.00    +0.037 C 
ATOM     30  H   UNL     1       5.810   4.253  12.055  0.00  0.00    +0.052 HD
ATOM     31  H   UNL     1       7.156   3.695  13.093  0.00  0.00    +0.052 HD
ATOM     32  H   UNL     1       5.822   2.598  12.696  0.00  0.00    +0.052 HD
ENDBRANCH  28  29
ENDBRANCH  25  28
ENDBRANCH  22  25
ENDBRANCH   1  22
BRANCH   5  33
ATOM     33  C   UNL     1       3.221   5.490  20.317  0.00  0.00    +0.002 C 
ATOM     34  H   UNL     1       4.127   5.945  20.732  0.00  0.00    +0.043 HD
ATOM     35  H   UNL     1       3.084   4.523  20.815  0.00  0.00    +0.043 HD
BRANCH  33  36
ATOM     36  N   UNL     1       2.060   6.350  20.578  0.00  0.00    -0.310 NA
ATOM     37  H   UNL     1       1.205   5.857  20.318  0.00  0.00    +0.122 HD
BRANCH  36  38
ATOM     38  C   UNL     1       2.114   7.589  19.784  0.00  0.00    +0.040 C 
ATOM     39  H   UNL     1       3.151   7.944  19.775  0.00  0.00    +0.049 HD
ATOM     40  H   UNL     1       1.840   7.404  18.739  0.00  0.00    +0.049 HD
BRANCH  38  41
ATOM     41  C   UNL     1       1.245   8.646  20.385  0.00  0.00    +0.074 A 
ATOM     42  C   UNL     1       0.783   9.814  19.811  0.00  0.00    +0.034 A 
ATOM     43  N   UNL     1       0.043  10.442  20.781  0.00  0.00    -0.306 N 
ATOM     44  C   UNL     1      -0.642  11.653  20.730  0.00  0.00    +0.011 A 
ATOM     45  C   UNL     1      -1.305  12.075  21.821  0.00  0.00    -0.045 A 
ATOM     46  C   UNL     1      -1.286  11.248  23.020  0.00  0.00    -0.057 A 
ATOM     47  C   UNL     1      -0.620  10.077  23.058  0.00  0.00    -0.019 A 
ATOM     48  C   UNL     1       0.086   9.627  21.906  0.00  0.00    +0.138 A 
ATOM     49  N   UNL     1       0.802   8.544  21.688  0.00  0.00    -0.231 NA
ATOM     50  H   UNL     1       0.917  10.239  18.826  0.00  0.00    +0.083 HD
ATOM     51  H   UNL     1      -0.609  12.211  19.802  0.00  0.00    +0.081 HD
ATOM     52  H   UNL     1      -1.853  13.011  21.836  0.00  0.00    +0.063 HD
ATOM     53  H   UNL     1      -1.829  11.605  23.890  0.00  0.00    +0.062 HD
ATOM     54  H   UNL     1      -0.605   9.458  23.948  0.00  0.00    +0.065 HD
ENDBRANCH  38  41
ENDBRANCH  36  38
ENDBRANCH  33  36
ENDBRANCH   5  33
TORSDOF 10
ENDMDL
MODEL 17
REMARK VINA RESULT:    -6.090      4.103      9.032
REMARK INTER + INTRA:         -10.245
REMARK INTER:                  -9.230
REMARK INTRA:                  -1.016
REMARK UNBOUND:                -0.951
REMARK  Name = 
REMARK  10 active torsions:
REMARK  status: ('A' for Active; 'I' for Inactive)
REMARK    1  A    between atoms: C_1  and  O_2
REMARK    2  A    between atoms: O_2  and  C_3
REMARK    3  A    between atoms: C_3  and  C_4
REMARK    4  A    between atoms: C_4  and  N_5
REMARK    5  A    between atoms: C_9  and  C_10
REMARK    6  A    between atoms: C_10  and  N_11
REMARK    7  A    between atoms: N_11  and  C_12
REMARK    8  A    between atoms: C_12  and  C_13
REMARK    9  A    between atoms: C_22  and  C_23
REMARK   10  A    between atoms: N_26  and  C_27
REMARK                            x       y       z     vdW  Elec       q    Type
REMARK                         _______ _______ _______ _____ _____    ______ ____
ROOT
ATOM      1  N   UNL     1       0.613  13.283  18.553  0.00  0.00    -0.292 N 
ATOM      2  C   UNL     1       1.957  13.222  18.203  0.00  0.00    +0.217 C 
ATOM      3  O   UNL     1       2.715  14.165  18.030  0.00  0.00    -0.276 OA
ATOM      4  C   UNL     1       2.379  11.775  18.157  0.00  0.00    +0.030 C 
ATOM      5  C   UNL     1       1.050  11.017  18.191  0.00  0.00    +0.003 C 
ATOM      6  C   UNL     1       0.119  11.975  18.943  0.00  0.00    +0.059 C 
ATOM      7  H   UNL     1       3.015  11.578  19.024  0.00  0.00    +0.036 HD
ATOM      8  H   UNL     1       2.932  11.568  17.236  0.00  0.00    +0.036 HD
ATOM      9  H   UNL     1       0.714  10.915  17.148  0.00  0.00    +0.034 HD
ATOM     10  H   UNL     1       0.273  11.903  20.027  0.00  0.00    +0.055 HD
ENDROOT
BRANCH   6  11
ATOM     11  C   UNL     1      -1.326  11.789  18.624  0.00  0.00    +0.011 A 
ATOM     12  C   UNL     1      -2.448  11.915  19.478  0.00  0.00    +0.054 A 
ATOM     13  N   UNL     1      -3.605  11.703  18.847  0.00  0.00    -0.180 NA
ATOM     14  N   UNL     1      -3.234  11.443  17.582  0.00  0.00    -0.274 N 
ATOM     15  C   UNL     1      -1.884  11.477  17.397  0.00  0.00    +0.030 A 
ATOM     16  H   UNL     1      -2.463  12.145  20.537  0.00  0.00    +0.085 HD
ATOM     17  H   UNL     1      -1.435  11.296  16.431  0.00  0.00    +0.083 HD
BRANCH  14  18
ATOM     18  C   UNL     1      -4.243  11.178  16.587  0.00  0.00    +0.030 C 
ATOM     19  H   UNL     1      -3.830  11.417  15.604  0.00  0.00    +0.047 HD
ATOM     20  H   UNL     1      -5.119  11.802  16.783  0.00  0.00    +0.047 HD
ATOM     21  H   UNL     1      -4.515  10.121  16.646  0.00  0.00    +0.047 HD
ENDBRANCH  14  18
ENDBRANCH   6  11
BRANCH   1  22
ATOM     22  C   UNL     1      -0.020  14.537  18.954  0.00  0.00    +0.039 C 
ATOM     23  H   UNL     1      -1.095  14.451  18.757  0.00  0.00    +0.049 HD
ATOM     24  H   UNL     1       0.354  15.341  18.310  0.00  0.00    +0.049 HD
BRANCH  22  25
ATOM     25  C   UNL     1       0.194  14.896  20.432  0.00  0.00    +0.063 C 
ATOM     26  H   UNL     1       0.396  15.969  20.535  0.00  0.00    +0.058 HD
ATOM     27  H   UNL     1       1.077  14.379  20.815  0.00  0.00    +0.058 HD
BRANCH  25  28
ATOM     28  O   UNL     1      -0.895  14.523  21.279  0.00  0.00    -0.381 OA
BRANCH  28  29
ATOM     29  C   UNL     1      -0.529  13.595  22.289  0.00  0.00    +0.037 C 
ATOM     30  H   UNL     1       0.079  12.790  21.862  0.00  0.00    +0.052 HD
ATOM     31  H   UNL     1       0.015  14.078  23.103  0.00  0.00    +0.052 HD
ATOM     32  H   UNL     1      -1.443  13.157  22.698  0.00  0.00    +0.052 HD
ENDBRANCH  28  29
ENDBRANCH  25  28
ENDBRANCH  22  25
ENDBRANCH   1  22
BRANCH   5  33
ATOM     33  C   UNL     1       1.122   9.605  18.782  0.00  0.00    +0.002 C 
ATOM     34  H   UNL     1       0.141   9.359  19.205  0.00  0.00    +0.043 HD
ATOM     35  H   UNL     1       1.841   9.620  19.610  0.00  0.00    +0.043 HD
BRANCH  33  36
ATOM     36  N   UNL     1       1.518   8.587  17.801  0.00  0.00    -0.310 NA
ATOM     37  H   UNL     1       0.785   7.882  17.727  0.00  0.00    +0.122 HD
BRANCH  36  38
ATOM     38  C   UNL     1       2.755   7.897  18.205  0.00  0.00    +0.040 C 
ATOM     39  H   UNL     1       3.417   7.847  17.333  0.00  0.00    +0.049 HD
ATOM     40  H   UNL     1       3.294   8.464  18.972  0.00  0.00    +0.049 HD
BRANCH  38  41
ATOM     41  C   UNL     1       2.462   6.508  18.673  0.00  0.00    +0.074 A 
ATOM     42  C   UNL     1       2.294   5.361  17.922  0.00  0.00    +0.034 A 
ATOM     43  N   UNL     1       2.028   4.360  18.822  0.00  0.00    -0.306 N 
ATOM     44  C   UNL     1       1.776   3.009  18.598  0.00  0.00    +0.011 A 
ATOM     45  C   UNL     1       1.536   2.206  19.650  0.00  0.00    -0.045 A 
ATOM     46  C   UNL     1       1.548   2.778  20.989  0.00  0.00    -0.057 A 
ATOM     47  C   UNL     1       1.794   4.087  21.195  0.00  0.00    -0.019 A 
ATOM     48  C   UNL     1       2.047   4.942  20.085  0.00  0.00    +0.138 A 
ATOM     49  N   UNL     1       2.306   6.231  20.016  0.00  0.00    -0.231 NA
ATOM     50  H   UNL     1       2.336   5.180  16.858  0.00  0.00    +0.083 HD
ATOM     51  H   UNL     1       1.785   2.660  17.573  0.00  0.00    +0.081 HD
ATOM     52  H   UNL     1       1.333   1.147  19.532  0.00  0.00    +0.063 HD
ATOM     53  H   UNL     1       1.354   2.113  21.825  0.00  0.00    +0.062 HD
ATOM     54  H   UNL     1       1.806   4.516  22.191  0.00  0.00    +0.065 HD
ENDBRANCH  38  41
ENDBRANCH  36  38
ENDBRANCH  33  36
ENDBRANCH   5  33
TORSDOF 10
ENDMDL
MODEL 18
REMARK VINA RESULT:    -6.008      2.095      3.037
REMARK INTER + INTRA:         -10.120
REMARK INTER:                  -9.359
REMARK INTRA:                  -0.762
REMARK UNBOUND:                -0.951
REMARK  Name = 
REMARK  10 active torsions:
REMARK  status: ('A' for Active; 'I' for Inactive)
REMARK    1  A    between atoms: C_1  and  O_2
REMARK    2  A    between atoms: O_2  and  C_3
REMARK    3  A    between atoms: C_3  and  C_4
REMARK    4  A    between atoms: C_4  and  N_5
REMARK    5  A    between atoms: C_9  and  C_10
REMARK    6  A    between atoms: C_10  and  N_11
REMARK    7  A    between atoms: N_11  and  C_12
REMARK    8  A    between atoms: C_12  and  C_13
REMARK    9  A    between atoms: C_22  and  C_23
REMARK   10  A    between atoms: N_26  and  C_27
REMARK                            x       y       z     vdW  Elec       q    Type
REMARK                         _______ _______ _______ _____ _____    ______ ____
ROOT
ATOM      1  N   UNL     1       2.618   3.344  18.702  0.00  0.00    -0.292 N 
ATOM      2  C   UNL     1       1.319   3.053  19.104  0.00  0.00    +0.217 C 
ATOM      3  O   UNL     1       0.681   2.041  18.852  0.00  0.00    -0.276 OA
ATOM      4  C   UNL     1       0.830   4.163  20.000  0.00  0.00    +0.030 C 
ATOM      5  C   UNL     1       1.867   5.269  19.792  0.00  0.00    +0.003 C 
ATOM      6  C   UNL     1       3.137   4.494  19.419  0.00  0.00    +0.059 C 
ATOM      7  H   UNL     1       0.798   3.783  21.025  0.00  0.00    +0.036 HD
ATOM      8  H   UNL     1      -0.167   4.489  19.694  0.00  0.00    +0.036 HD
ATOM      9  H   UNL     1       1.529   5.865  18.930  0.00  0.00    +0.034 HD
ATOM     10  H   UNL     1       3.632   4.097  20.313  0.00  0.00    +0.055 HD
ENDROOT
BRANCH   6  11
ATOM     11  C   UNL     1       4.110   5.283  18.609  0.00  0.00    +0.011 A 
ATOM     12  C   UNL     1       3.864   6.120  17.494  0.00  0.00    +0.054 A 
ATOM     13  N   UNL     1       4.974   6.698  17.027  0.00  0.00    -0.180 NA
ATOM     14  N   UNL     1       5.938   6.236  17.840  0.00  0.00    -0.274 N 
ATOM     15  C   UNL     1       5.476   5.385  18.799  0.00  0.00    +0.030 A 
ATOM     16  H   UNL     1       2.920   6.324  17.002  0.00  0.00    +0.085 HD
ATOM     17  H   UNL     1       6.133   4.939  19.532  0.00  0.00    +0.083 HD
BRANCH  14  18
ATOM     18  C   UNL     1       7.299   6.670  17.644  0.00  0.00    +0.030 C 
ATOM     19  H   UNL     1       7.604   6.405  16.630  0.00  0.00    +0.047 HD
ATOM     20  H   UNL     1       7.948   6.170  18.369  0.00  0.00    +0.047 HD
ATOM     21  H   UNL     1       7.340   7.752  17.790  0.00  0.00    +0.047 HD
ENDBRANCH  14  18
ENDBRANCH   6  11
BRANCH   1  22
ATOM     22  C   UNL     1       3.466   2.341  18.062  0.00  0.00    +0.039 C 
ATOM     23  H   UNL     1       4.270   2.867  17.534  0.00  0.00    +0.049 HD
ATOM     24  H   UNL     1       2.878   1.818  17.301  0.00  0.00    +0.049 HD
BRANCH  22  25
ATOM     25  C   UNL     1       4.083   1.333  19.043  0.00  0.00    +0.063 C 
ATOM     26  H   UNL     1       4.832   0.717  18.531  0.00  0.00    +0.058 HD
ATOM     27  H   UNL     1       3.314   0.646  19.402  0.00  0.00    +0.058 HD
BRANCH  25  28
ATOM     28  O   UNL     1       4.661   1.938  20.202  0.00  0.00    -0.381 OA
BRANCH  28  29
ATOM     29  C   UNL     1       5.330   1.010  21.045  0.00  0.00    +0.037 C 
ATOM     30  H   UNL     1       4.700   0.757  21.904  0.00  0.00    +0.052 HD
ATOM     31  H   UNL     1       5.605   0.102  20.507  0.00  0.00    +0.052 HD
ATOM     32  H   UNL     1       6.244   1.483  21.415  0.00  0.00    +0.052 HD
ENDBRANCH  28  29
ENDBRANCH  25  28
ENDBRANCH  22  25
ENDBRANCH   1  22
BRANCH   5  33
ATOM     33  C   UNL     1       2.034   6.234  20.971  0.00  0.00    +0.002 C 
ATOM     34  H   UNL     1       3.008   6.042  21.436  0.00  0.00    +0.043 HD
ATOM     35  H   UNL     1       1.264   5.998  21.714  0.00  0.00    +0.043 HD
BRANCH  33  36
ATOM     36  N   UNL     1       1.930   7.646  20.581  0.00  0.00    -0.310 NA
ATOM     37  H   UNL     1       2.746   8.154  20.922  0.00  0.00    +0.122 HD
BRANCH  36  38
ATOM     38  C   UNL     1       0.738   8.282  21.163  0.00  0.00    +0.040 C 
ATOM     39  H   UNL     1      -0.131   7.654  20.934  0.00  0.00    +0.049 HD
ATOM     40  H   UNL     1       0.805   8.331  22.256  0.00  0.00    +0.049 HD
BRANCH  38  41
ATOM     41  C   UNL     1       0.520   9.642  20.581  0.00  0.00    +0.074 A 
ATOM     42  C   UNL     1      -0.275  10.006  19.512  0.00  0.00    +0.034 A 
ATOM     43  N   UNL     1      -0.114  11.361  19.370  0.00  0.00    -0.306 N 
ATOM     44  C   UNL     1      -0.685  12.232  18.445  0.00  0.00    +0.011 A 
ATOM     45  C   UNL     1      -0.372  13.538  18.497  0.00  0.00    -0.045 A 
ATOM     46  C   UNL     1       0.553  14.000  19.523  0.00  0.00    -0.057 A 
ATOM     47  C   UNL     1       1.100  13.150  20.414  0.00  0.00    -0.019 A 
ATOM     48  C   UNL     1       0.774  11.765  20.361  0.00  0.00    +0.138 A 
ATOM     49  N   UNL     1       1.166  10.746  21.098  0.00  0.00    -0.231 NA
ATOM     50  H   UNL     1      -0.919   9.434  18.860  0.00  0.00    +0.083 HD
ATOM     51  H   UNL     1      -1.364  11.812  17.714  0.00  0.00    +0.081 HD
ATOM     52  H   UNL     1      -0.788  14.259  17.801  0.00  0.00    +0.063 HD
ATOM     53  H   UNL     1       0.792  15.059  19.550  0.00  0.00    +0.062 HD
ATOM     54  H   UNL     1       1.788  13.490  21.180  0.00  0.00    +0.065 HD
ENDBRANCH  38  41
ENDBRANCH  36  38
ENDBRANCH  33  36
ENDBRANCH   5  33
TORSDOF 10
ENDMDL
MODEL 19
REMARK VINA RESULT:    -6.006      3.101      9.278
REMARK INTER + INTRA:         -10.118
REMARK INTER:                  -9.304
REMARK INTRA:                  -0.814
REMARK UNBOUND:                -0.951
REMARK  Name = 
REMARK  10 active torsions:
REMARK  status: ('A' for Active; 'I' for Inactive)
REMARK    1  A    between atoms: C_1  and  O_2
REMARK    2  A    between atoms: O_2  and  C_3
REMARK    3  A    between atoms: C_3  and  C_4
REMARK    4  A    between atoms: C_4  and  N_5
REMARK    5  A    between atoms: C_9  and  C_10
REMARK    6  A    between atoms: C_10  and  N_11
REMARK    7  A    between atoms: N_11  and  C_12
REMARK    8  A    between atoms: C_12  and  C_13
REMARK    9  A    between atoms: C_22  and  C_23
REMARK   10  A    between atoms: N_26  and  C_27
REMARK                            x       y       z     vdW  Elec       q    Type
REMARK                         _______ _______ _______ _____ _____    ______ ____
ROOT
ATOM      1  N   UNL     1       0.951  11.865  19.896  0.00  0.00    -0.292 N 
ATOM      2  C   UNL     1       1.591  11.206  18.851  0.00  0.00    +0.217 C 
ATOM      3  O   UNL     1       2.213  11.717  17.932  0.00  0.00    -0.276 OA
ATOM      4  C   UNL     1       1.475   9.719  19.076  0.00  0.00    +0.030 C 
ATOM      5  C   UNL     1       0.420   9.608  20.179  0.00  0.00    +0.003 C 
ATOM      6  C   UNL     1       0.565  10.932  20.938  0.00  0.00    +0.059 C 
ATOM      7  H   UNL     1       2.458   9.344  19.374  0.00  0.00    +0.036 HD
ATOM      8  H   UNL     1       1.149   9.219  18.160  0.00  0.00    +0.036 HD
ATOM      9  H   UNL     1      -0.560   9.572  19.679  0.00  0.00    +0.034 HD
ATOM     10  H   UNL     1       1.408  10.893  21.639  0.00  0.00    +0.055 HD
ENDROOT
BRANCH   6  11
ATOM     11  C   UNL     1      -0.671  11.355  21.656  0.00  0.00    +0.011 A 
ATOM     12  C   UNL     1      -1.028  11.145  23.011  0.00  0.00    +0.054 A 
ATOM     13  N   UNL     1      -2.206  11.688  23.326  0.00  0.00    -0.180 NA
ATOM     14  N   UNL     1      -2.613  12.252  22.176  0.00  0.00    -0.274 N 
ATOM     15  C   UNL     1      -1.735  12.078  21.148  0.00  0.00    +0.030 A 
ATOM     16  H   UNL     1      -0.475  10.610  23.775  0.00  0.00    +0.085 HD
ATOM     17  H   UNL     1      -1.922  12.483  20.163  0.00  0.00    +0.083 HD
BRANCH  14  18
ATOM     18  C   UNL     1      -3.867  12.963  22.140  0.00  0.00    +0.030 C 
ATOM     19  H   UNL     1      -4.449  12.683  23.021  0.00  0.00    +0.047 HD
ATOM     20  H   UNL     1      -4.413  12.689  21.232  0.00  0.00    +0.047 HD
ATOM     21  H   UNL     1      -3.655  14.034  22.140  0.00  0.00    +0.047 HD
ENDBRANCH  14  18
ENDBRANCH   6  11
BRANCH   1  22
ATOM     22  C   UNL     1       1.124  13.299  20.119  0.00  0.00    +0.039 C 
ATOM     23  H   UNL     1       0.305  13.641  20.761  0.00  0.00    +0.049 HD
ATOM     24  H   UNL     1       1.014  13.819  19.162  0.00  0.00    +0.049 HD
BRANCH  22  25
ATOM     25  C   UNL     1       2.464  13.667  20.774  0.00  0.00    +0.063 C 
ATOM     26  H   UNL     1       2.957  12.765  21.158  0.00  0.00    +0.058 HD
ATOM     27  H   UNL     1       2.291  14.314  21.637  0.00  0.00    +0.058 HD
BRANCH  25  28
ATOM     28  O   UNL     1       3.353  14.375  19.906  0.00  0.00    -0.381 OA
BRANCH  28  29
ATOM     29  C   UNL     1       2.684  15.079  18.870  0.00  0.00    +0.037 C 
ATOM     30  H   UNL     1       3.238  15.987  18.610  0.00  0.00    +0.052 HD
ATOM     31  H   UNL     1       2.550  14.459  17.982  0.00  0.00    +0.052 HD
ATOM     32  H   UNL     1       1.697  15.372  19.239  0.00  0.00    +0.052 HD
ENDBRANCH  28  29
ENDBRANCH  25  28
ENDBRANCH  22  25
ENDBRANCH   1  22
BRANCH   5  33
ATOM     33  C   UNL     1       0.527   8.356  21.056  0.00  0.00    +0.002 C 
ATOM     34  H   UNL     1      -0.306   7.689  20.805  0.00  0.00    +0.043 HD
ATOM     35  H   UNL     1       0.396   8.662  22.101  0.00  0.00    +0.043 HD
BRANCH  33  36
ATOM     36  N   UNL     1       1.804   7.649  20.902  0.00  0.00    -0.310 NA
ATOM     37  H   UNL     1       2.329   8.059  20.129  0.00  0.00    +0.122 HD
BRANCH  36  38
ATOM     38  C   UNL     1       1.601   6.225  20.592  0.00  0.00    +0.040 C 
ATOM     39  H   UNL     1       1.856   5.641  21.485  0.00  0.00    +0.049 HD
ATOM     40  H   UNL     1       0.549   6.011  20.372  0.00  0.00    +0.049 HD
BRANCH  38  41
ATOM     41  C   UNL     1       2.481   5.793  19.463  0.00  0.00    +0.074 A 
ATOM     42  C   UNL     1       2.778   4.512  19.040  0.00  0.00    +0.034 A 
ATOM     43  N   UNL     1       3.641   4.658  17.984  0.00  0.00    -0.306 N 
ATOM     44  C   UNL     1       4.250   3.685  17.195  0.00  0.00    +0.011 A 
ATOM     45  C   UNL     1       5.073   4.069  16.203  0.00  0.00    -0.045 A 
ATOM     46  C   UNL     1       5.298   5.492  15.986  0.00  0.00    -0.057 A 
ATOM     47  C   UNL     1       4.703   6.426  16.755  0.00  0.00    -0.019 A 
ATOM     48  C   UNL     1       3.833   6.024  17.808  0.00  0.00    +0.138 A 
ATOM     49  N   UNL     1       3.145   6.722  18.687  0.00  0.00    -0.231 NA
ATOM     50  H   UNL     1       2.460   3.542  19.393  0.00  0.00    +0.083 HD
ATOM     51  H   UNL     1       4.032   2.649  17.418  0.00  0.00    +0.081 HD
ATOM     52  H   UNL     1       5.573   3.354  15.560  0.00  0.00    +0.063 HD
ATOM     53  H   UNL     1       5.963   5.782  15.179  0.00  0.00    +0.062 HD
ATOM     54  H   UNL     1       4.867   7.485  16.596  0.00  0.00    +0.065 HD
ENDBRANCH  38  41
ENDBRANCH  36  38
ENDBRANCH  33  36
ENDBRANCH   5  33
TORSDOF 10
ENDMDL
MODEL 20
REMARK VINA RESULT:    -5.995      1.615      2.405
REMARK INTER + INTRA:         -10.100
REMARK INTER:                  -9.369
REMARK INTRA:                  -0.730
REMARK UNBOUND:                -0.951
REMARK  Name = 
REMARK  10 active torsions:
REMARK  status: ('A' for Active; 'I' for Inactive)
REMARK    1  A    between atoms: C_1  and  O_2
REMARK    2  A    between atoms: O_2  and  C_3
REMARK    3  A    between atoms: C_3  and  C_4
REMARK    4  A    between atoms: C_4  and  N_5
REMARK    5  A    between atoms: C_9  and  C_10
REMARK    6  A    between atoms: C_10  and  N_11
REMARK    7  A    between atoms: N_11  and  C_12
REMARK    8  A    between atoms: C_12  and  C_13
REMARK    9  A    between atoms: C_22  and  C_23
REMARK   10  A    between atoms: N_26  and  C_27
REMARK                            x       y       z     vdW  Elec       q    Type
REMARK                         _______ _______ _______ _____ _____    ______ ____
ROOT
ATOM      1  N   UNL     1       3.082   3.133  19.701  0.00  0.00    -0.292 N 
ATOM      2  C   UNL     1       1.936   3.344  20.459  0.00  0.00    +0.217 C 
ATOM      3  O   UNL     1       1.295   2.503  21.072  0.00  0.00    -0.276 OA
ATOM      4  C   UNL     1       1.642   4.824  20.489  0.00  0.00    +0.030 C 
ATOM      5  C   UNL     1       2.552   5.387  19.395  0.00  0.00    +0.003 C 
ATOM      6  C   UNL     1       3.718   4.392  19.361  0.00  0.00    +0.059 C 
ATOM      7  H   UNL     1       1.880   5.196  21.489  0.00  0.00    +0.036 HD
ATOM      8  H   UNL     1       0.588   5.008  20.266  0.00  0.00    +0.036 HD
ATOM      9  H   UNL     1       1.987   5.332  18.452  0.00  0.00    +0.034 HD
ATOM     10  H   UNL     1       4.434   4.598  20.165  0.00  0.00    +0.055 HD
ENDROOT
BRANCH   6  11
ATOM     11  C   UNL     1       4.428   4.340  18.051  0.00  0.00    +0.011 A 
ATOM     12  C   UNL     1       3.928   3.951  16.784  0.00  0.00    +0.054 A 
ATOM     13  N   UNL     1       4.840   4.052  15.814  0.00  0.00    -0.180 NA
ATOM     14  N   UNL     1       5.931   4.509  16.451  0.00  0.00    -0.274 N 
ATOM     15  C   UNL     1       5.739   4.694  17.789  0.00  0.00    +0.030 A 
ATOM     16  H   UNL     1       2.936   3.590  16.536  0.00  0.00    +0.085 HD
ATOM     17  H   UNL     1       6.524   5.065  18.432  0.00  0.00    +0.083 HD
BRANCH  14  18
ATOM     18  C   UNL     1       7.137   4.763  15.702  0.00  0.00    +0.030 C 
ATOM     19  H   UNL     1       7.752   5.468  16.265  0.00  0.00    +0.047 HD
ATOM     20  H   UNL     1       6.877   5.190  14.730  0.00  0.00    +0.047 HD
ATOM     21  H   UNL     1       7.662   3.815  15.565  0.00  0.00    +0.047 HD
ENDBRANCH  14  18
ENDBRANCH   6  11
BRANCH   1  22
ATOM     22  C   UNL     1       3.783   1.851  19.710  0.00  0.00    +0.039 C 
ATOM     23  H   UNL     1       4.122   1.644  18.689  0.00  0.00    +0.049 HD
ATOM     24  H   UNL     1       3.069   1.063  19.971  0.00  0.00    +0.049 HD
BRANCH  22  25
ATOM     25  C   UNL     1       4.990   1.812  20.659  0.00  0.00    +0.063 C 
ATOM     26  H   UNL     1       4.715   2.227  21.637  0.00  0.00    +0.058 HD
ATOM     27  H   UNL     1       5.790   2.446  20.270  0.00  0.00    +0.058 HD
BRANCH  25  28
ATOM     28  O   UNL     1       5.549   0.507  20.825  0.00  0.00    -0.381 OA
BRANCH  28  29
ATOM     29  C   UNL     1       6.100   0.293  22.117  0.00  0.00    +0.037 C 
ATOM     30  H   UNL     1       7.076   0.783  22.199  0.00  0.00    +0.052 HD
ATOM     31  H   UNL     1       5.436   0.655  22.904  0.00  0.00    +0.052 HD
ATOM     32  H   UNL     1       6.241  -0.783  22.254  0.00  0.00    +0.052 HD
ENDBRANCH  28  29
ENDBRANCH  25  28
ENDBRANCH  22  25
ENDBRANCH   1  22
BRANCH   5  33
ATOM     33  C   UNL     1       2.968   6.850  19.587  0.00  0.00    +0.002 C 
ATOM     34  H   UNL     1       3.092   7.304  18.597  0.00  0.00    +0.043 HD
ATOM     35  H   UNL     1       3.949   6.862  20.077  0.00  0.00    +0.043 HD
BRANCH  33  36
ATOM     36  N   UNL     1       2.008   7.625  20.381  0.00  0.00    -0.310 NA
ATOM     37  H   UNL     1       1.277   7.006  20.732  0.00  0.00    +0.122 HD
BRANCH  36  38
ATOM     38  C   UNL     1       1.353   8.667  19.573  0.00  0.00    +0.040 C 
ATOM     39  H   UNL     1       2.118   9.154  18.958  0.00  0.00    +0.049 HD
ATOM     40  H   UNL     1       0.626   8.233  18.877  0.00  0.00    +0.049 HD
BRANCH  38  41
ATOM     41  C   UNL     1       0.708   9.694  20.447  0.00  0.00    +0.074 A 
ATOM     42  C   UNL     1      -0.166   9.507  21.500  0.00  0.00    +0.034 A 
ATOM     43  N   UNL     1      -0.476  10.763  21.957  0.00  0.00    -0.306 N 
ATOM     44  C   UNL     1      -1.317  11.146  22.999  0.00  0.00    +0.011 A 
ATOM     45  C   UNL     1      -1.472  12.454  23.266  0.00  0.00    -0.045 A 
ATOM     46  C   UNL     1      -0.753  13.428  22.456  0.00  0.00    -0.057 A 
ATOM     47  C   UNL     1       0.059  13.047  21.450  0.00  0.00    -0.019 A 
ATOM     48  C   UNL     1       0.225  11.663  21.162  0.00  0.00    +0.138 A 
ATOM     49  N   UNL     1       0.942  11.040  20.250  0.00  0.00    -0.231 NA
ATOM     50  H   UNL     1      -0.582   8.615  21.945  0.00  0.00    +0.083 HD
ATOM     51  H   UNL     1      -1.816  10.362  23.555  0.00  0.00    +0.081 HD
ATOM     52  H   UNL     1      -2.115  12.807  24.065  0.00  0.00    +0.063 HD
ATOM     53  H   UNL     1      -0.889  14.480  22.689  0.00  0.00    +0.062 HD
ATOM     54  H   UNL     1       0.597  13.769  20.846  0.00  0.00    +0.065 HD
ENDBRANCH  38  41
ENDBRANCH  36  38
ENDBRANCH  33  36
ENDBRANCH   5  33
TORSDOF 10
ENDMDL
MODEL 21
REMARK VINA RESULT:    -5.992      3.232      8.771
REMARK INTER + INTRA:         -10.096
REMARK INTER:                  -9.384
REMARK INTRA:                  -0.712
REMARK UNBOUND:                -0.951
REMARK  Name = 
REMARK  10 active torsions:
REMARK  status: ('A' for Active; 'I' for Inactive)
REMARK    1  A    between atoms: C_1  and  O_2
REMARK    2  A    between atoms: O_2  and  C_3
REMARK    3  A    between atoms: C_3  and  C_4
REMARK    4  A    between atoms: C_4  and  N_5
REMARK    5  A    between atoms: C_9  and  C_10
REMARK    6  A    between atoms: C_10  and  N_11
REMARK    7  A    between atoms: N_11  and  C_12
REMARK    8  A    between atoms: C_12  and  C_13
REMARK    9  A    between atoms: C_22  and  C_23
REMARK   10  A    between atoms: N_26  and  C_27
REMARK                            x       y       z     vdW  Elec       q    Type
REMARK                         _______ _______ _______ _____ _____    ______ ____
ROOT
ATOM      1  N   UNL     1      -0.501  11.532  21.501  0.00  0.00    -0.292 N 
ATOM      2  C   UNL     1      -0.843  10.618  22.491  0.00  0.00    +0.217 C 
ATOM      3  O   UNL     1      -1.642  10.783  23.400  0.00  0.00    -0.276 OA
ATOM      4  C   UNL     1      -0.125   9.319  22.217  0.00  0.00    +0.030 C 
ATOM      5  C   UNL     1       0.911   9.704  21.159  0.00  0.00    +0.003 C 
ATOM      6  C   UNL     1       0.258  10.892  20.443  0.00  0.00    +0.059 C 
ATOM      7  H   UNL     1      -0.862   8.593  21.862  0.00  0.00    +0.036 HD
ATOM      8  H   UNL     1       0.353   8.949  23.127  0.00  0.00    +0.036 HD
ATOM      9  H   UNL     1       1.808  10.043  21.699  0.00  0.00    +0.034 HD
ATOM     10  H   UNL     1      -0.478  10.550  19.704  0.00  0.00    +0.055 HD
ENDROOT
BRANCH   6  11
ATOM     11  C   UNL     1       1.232  11.817  19.796  0.00  0.00    +0.011 A 
ATOM     12  C   UNL     1       1.617  11.892  18.435  0.00  0.00    +0.054 A 
ATOM     13  N   UNL     1       2.500  12.866  18.200  0.00  0.00    -0.180 NA
ATOM     14  N   UNL     1       2.685  13.424  19.407  0.00  0.00    -0.274 N 
ATOM     15  C   UNL     1       1.955  12.832  20.395  0.00  0.00    +0.030 A 
ATOM     16  H   UNL     1       1.293  11.267  17.610  0.00  0.00    +0.085 HD
ATOM     17  H   UNL     1       1.994  13.178  21.418  0.00  0.00    +0.083 HD
BRANCH  14  18
ATOM     18  C   UNL     1       3.581  14.546  19.540  0.00  0.00    +0.030 C 
ATOM     19  H   UNL     1       4.085  14.474  20.506  0.00  0.00    +0.047 HD
ATOM     20  H   UNL     1       3.008  15.476  19.488  0.00  0.00    +0.047 HD
ATOM     21  H   UNL     1       4.305  14.507  18.723  0.00  0.00    +0.047 HD
ENDBRANCH  14  18
ENDBRANCH   6  11
BRANCH   1  22
ATOM     22  C   UNL     1      -1.238  12.782  21.323  0.00  0.00    +0.039 C 
ATOM     23  H   UNL     1      -0.530  13.545  20.983  0.00  0.00    +0.049 HD
ATOM     24  H   UNL     1      -1.613  13.110  22.298  0.00  0.00    +0.049 HD
BRANCH  22  25
ATOM     25  C   UNL     1      -2.394  12.682  20.315  0.00  0.00    +0.063 C 
ATOM     26  H   UNL     1      -2.619  11.629  20.102  0.00  0.00    +0.058 HD
ATOM     27  H   UNL     1      -2.098  13.131  19.364  0.00  0.00    +0.058 HD
BRANCH  25  28
ATOM     28  O   UNL     1      -3.582  13.358  20.733  0.00  0.00    -0.381 OA
BRANCH  28  29
ATOM     29  C   UNL     1      -4.221  12.738  21.840  0.00  0.00    +0.037 C 
ATOM     30  H   UNL     1      -3.847  13.162  22.779  0.00  0.00    +0.052 HD
ATOM     31  H   UNL     1      -5.305  12.845  21.791  0.00  0.00    +0.052 HD
ATOM     32  H   UNL     1      -3.977  11.673  21.822  0.00  0.00    +0.052 HD
ENDBRANCH  28  29
ENDBRANCH  25  28
ENDBRANCH  22  25
ENDBRANCH   1  22
BRANCH   5  33
ATOM     33  C   UNL     1       1.347   8.563  20.232  0.00  0.00    +0.002 C 
ATOM     34  H   UNL     1       2.029   8.975  19.479  0.00  0.00    +0.043 HD
ATOM     35  H   UNL     1       0.459   8.198  19.703  0.00  0.00    +0.043 HD
BRANCH  33  36
ATOM     36  N   UNL     1       1.991   7.453  20.944  0.00  0.00    -0.310 NA
ATOM     37  H   UNL     1       2.990   7.639  21.032  0.00  0.00    +0.122 HD
BRANCH  36  38
ATOM     38  C   UNL     1       1.840   6.182  20.218  0.00  0.00    +0.040 C 
ATOM     39  H   UNL     1       1.761   5.375  20.955  0.00  0.00    +0.049 HD
ATOM     40  H   UNL     1       0.910   6.163  19.638  0.00  0.00    +0.049 HD
BRANCH  38  41
ATOM     41  C   UNL     1       3.022   5.925  19.341  0.00  0.00    +0.074 A 
ATOM     42  C   UNL     1       4.152   5.178  19.611  0.00  0.00    +0.034 A 
ATOM     43  N   UNL     1       4.939   5.271  18.492  0.00  0.00    -0.306 N 
ATOM     44  C   UNL     1       6.188   4.710  18.235  0.00  0.00    +0.011 A 
ATOM     45  C   UNL     1       6.779   4.945  17.050  0.00  0.00    -0.045 A 
ATOM     46  C   UNL     1       6.091   5.777  16.073  0.00  0.00    -0.057 A 
ATOM     47  C   UNL     1       4.882   6.315  16.331  0.00  0.00    -0.019 A 
ATOM     48  C   UNL     1       4.253   6.071  17.585  0.00  0.00    +0.138 A 
ATOM     49  N   UNL     1       3.100   6.474  18.077  0.00  0.00    -0.231 NA
ATOM     50  H   UNL     1       4.453   4.610  20.479  0.00  0.00    +0.083 HD
ATOM     51  H   UNL     1       6.635   4.102  19.012  0.00  0.00    +0.081 HD
ATOM     52  H   UNL     1       7.750   4.533  16.799  0.00  0.00    +0.063 HD
ATOM     53  H   UNL     1       6.583   5.953  15.122  0.00  0.00    +0.062 HD
ATOM     54  H   UNL     1       4.366   6.934  15.605  0.00  0.00    +0.065 HD
ENDBRANCH  38  41
ENDBRANCH  36  38
ENDBRANCH  33  36
ENDBRANCH   5  33
TORSDOF 10
ENDMDL
MODEL 22
REMARK VINA RESULT:    -5.982      3.368      8.533
REMARK INTER + INTRA:         -10.080
REMARK INTER:                  -9.005
REMARK INTRA:                  -1.075
REMARK UNBOUND:                -0.951
REMARK  Name = 
REMARK  10 active torsions:
REMARK  status: ('A' for Active; 'I' for Inactive)
REMARK    1  A    between atoms: C_1  and  O_2
REMARK    2  A    between atoms: O_2  and  C_3
REMARK    3  A    between atoms: C_3  and  C_4
REMARK    4  A    between atoms: C_4  and  N_5
REMARK    5  A    between atoms: C_9  and  C_10
REMARK    6  A    between atoms: C_10  and  N_11
REMARK    7  A    between atoms: N_11  and  C_12
REMARK    8  A    between atoms: C_12  and  C_13
REMARK    9  A    between atoms: C_22  and  C_23
REMARK   10  A    between atoms: N_26  and  C_27
REMARK                            x       y       z     vdW  Elec       q    Type
REMARK                         _______ _______ _______ _____ _____    ______ ____
ROOT
ATOM      1  N   UNL     1      -0.596  11.015  21.437  0.00  0.00    -0.292 N 
ATOM      2  C   UNL     1      -0.266   9.837  22.098  0.00  0.00    +0.217 C 
ATOM      3  O   UNL     1      -0.620   9.499  23.218  0.00  0.00    -0.276 OA
ATOM      4  C   UNL     1       0.545   8.971  21.166  0.00  0.00    +0.030 C 
ATOM      5  C   UNL     1       0.917   9.926  20.030  0.00  0.00    +0.003 C 
ATOM      6  C   UNL     1      -0.231  10.942  20.035  0.00  0.00    +0.059 C 
ATOM      7  H   UNL     1      -0.083   8.136  20.846  0.00  0.00    +0.036 HD
ATOM      8  H   UNL     1       1.435   8.592  21.676  0.00  0.00    +0.036 HD
ATOM      9  H   UNL     1       1.854  10.423  20.325  0.00  0.00    +0.034 HD
ATOM     10  H   UNL     1      -1.109  10.545  19.512  0.00  0.00    +0.055 HD
ENDROOT
BRANCH   6  11
ATOM     11  C   UNL     1       0.137  12.272  19.469  0.00  0.00    +0.011 A 
ATOM     12  C   UNL     1      -0.698  13.240  18.860  0.00  0.00    +0.054 A 
ATOM     13  N   UNL     1      -0.033  14.337  18.489  0.00  0.00    -0.180 NA
ATOM     14  N   UNL     1       1.232  14.081  18.859  0.00  0.00    -0.274 N 
ATOM     15  C   UNL     1       1.389  12.860  19.444  0.00  0.00    +0.030 A 
ATOM     16  H   UNL     1      -1.763  13.182  18.667  0.00  0.00    +0.085 HD
ATOM     17  H   UNL     1       2.349  12.517  19.802  0.00  0.00    +0.083 HD
BRANCH  14  18
ATOM     18  C   UNL     1       2.253  15.073  18.628  0.00  0.00    +0.030 C 
ATOM     19  H   UNL     1       2.999  14.993  19.422  0.00  0.00    +0.047 HD
ATOM     20  H   UNL     1       1.802  16.069  18.643  0.00  0.00    +0.047 HD
ATOM     21  H   UNL     1       2.704  14.882  17.652  0.00  0.00    +0.047 HD
ENDBRANCH  14  18
ENDBRANCH   6  11
BRANCH   1  22
ATOM     22  C   UNL     1      -1.604  11.934  21.962  0.00  0.00    +0.039 C 
ATOM     23  H   UNL     1      -2.361  11.340  22.485  0.00  0.00    +0.049 HD
ATOM     24  H   UNL     1      -2.109  12.419  21.120  0.00  0.00    +0.049 HD
BRANCH  22  25
ATOM     25  C   UNL     1      -1.039  12.990  22.924  0.00  0.00    +0.063 C 
ATOM     26  H   UNL     1      -0.009  12.735  23.203  0.00  0.00    +0.058 HD
ATOM     27  H   UNL     1      -1.616  12.994  23.852  0.00  0.00    +0.058 HD
BRANCH  25  28
ATOM     28  O   UNL     1      -1.088  14.322  22.409  0.00  0.00    -0.381 OA
BRANCH  28  29
ATOM     29  C   UNL     1       0.195  14.915  22.264  0.00  0.00    +0.037 C 
ATOM     30  H   UNL     1       0.455  15.001  21.204  0.00  0.00    +0.052 HD
ATOM     31  H   UNL     1       0.241  15.897  22.738  0.00  0.00    +0.052 HD
ATOM     32  H   UNL     1       0.928  14.264  22.748  0.00  0.00    +0.052 HD
ENDBRANCH  28  29
ENDBRANCH  25  28
ENDBRANCH  22  25
ENDBRANCH   1  22
BRANCH   5  33
ATOM     33  C   UNL     1       1.169   9.256  18.675  0.00  0.00    +0.002 C 
ATOM     34  H   UNL     1       0.901   9.968  17.885  0.00  0.00    +0.043 HD
ATOM     35  H   UNL     1       0.490   8.400  18.588  0.00  0.00    +0.043 HD
BRANCH  33  36
ATOM     36  N   UNL     1       2.556   8.807  18.500  0.00  0.00    -0.310 NA
ATOM     37  H   UNL     1       3.097   9.542  18.044  0.00  0.00    +0.122 HD
BRANCH  36  38
ATOM     38  C   UNL     1       2.635   7.608  17.651  0.00  0.00    +0.040 C 
ATOM     39  H   UNL     1       1.879   7.698  16.862  0.00  0.00    +0.049 HD
ATOM     40  H   UNL     1       3.604   7.542  17.144  0.00  0.00    +0.049 HD
BRANCH  38  41
ATOM     41  C   UNL     1       2.362   6.372  18.446  0.00  0.00    +0.074 A 
ATOM     42  C   UNL     1       2.457   6.184  19.811  0.00  0.00    +0.034 A 
ATOM     43  N   UNL     1       2.118   4.873  20.033  0.00  0.00    -0.306 N 
ATOM     44  C   UNL     1       2.054   4.163  21.229  0.00  0.00    +0.011 A 
ATOM     45  C   UNL     1       1.696   2.867  21.202  0.00  0.00    -0.045 A 
ATOM     46  C   UNL     1       1.384   2.250  19.920  0.00  0.00    -0.057 A 
ATOM     47  C   UNL     1       1.448   2.947  18.767  0.00  0.00    -0.019 A 
ATOM     48  C   UNL     1       1.830   4.318  18.791  0.00  0.00    +0.138 A 
ATOM     49  N   UNL     1       1.970   5.202  17.826  0.00  0.00    -0.231 NA
ATOM     50  H   UNL     1       2.731   6.850  20.615  0.00  0.00    +0.083 HD
ATOM     51  H   UNL     1       2.301   4.692  22.141  0.00  0.00    +0.081 HD
ATOM     52  H   UNL     1       1.630   2.268  22.103  0.00  0.00    +0.063 HD
ATOM     53  H   UNL     1       1.094   1.204  19.918  0.00  0.00    +0.062 HD
ATOM     54  H   UNL     1       1.215   2.491  17.811  0.00  0.00    +0.065 HD
ENDBRANCH  38  41
ENDBRANCH  36  38
ENDBRANCH  33  36
ENDBRANCH   5  33
TORSDOF 10
ENDMDL
MODEL 23
REMARK VINA RESULT:    -5.940      3.630      8.560
REMARK INTER + INTRA:         -10.016
REMARK INTER:                  -9.515
REMARK INTRA:                  -0.502
REMARK UNBOUND:                -0.951
REMARK  Name = 
REMARK  10 active torsions:
REMARK  status: ('A' for Active; 'I' for Inactive)
REMARK    1  A    between atoms: C_1  and  O_2
REMARK    2  A    between atoms: O_2  and  C_3
REMARK    3  A    between atoms: C_3  and  C_4
REMARK    4  A    between atoms: C_4  and  N_5
REMARK    5  A    between atoms: C_9  and  C_10
REMARK    6  A    between atoms: C_10  and  N_11
REMARK    7  A    between atoms: N_11  and  C_12
REMARK    8  A    between atoms: C_12  and  C_13
REMARK    9  A    between atoms: C_22  and  C_23
REMARK   10  A    between atoms: N_26  and  C_27
REMARK                            x       y       z     vdW  Elec       q    Type
REMARK                         _______ _______ _______ _____ _____    ______ ____
ROOT
ATOM      1  N   UNL     1      -0.552  12.087  20.143  0.00  0.00    -0.292 N 
ATOM      2  C   UNL     1       0.775  12.483  20.278  0.00  0.00    +0.217 C 
ATOM      3  O   UNL     1       1.214  13.329  21.042  0.00  0.00    -0.276 OA
ATOM      4  C   UNL     1       1.629  11.624  19.379  0.00  0.00    +0.030 C 
ATOM      5  C   UNL     1       0.606  10.928  18.479  0.00  0.00    +0.003 C 
ATOM      6  C   UNL     1      -0.652  10.874  19.352  0.00  0.00    +0.059 C 
ATOM      7  H   UNL     1       2.197  10.934  20.009  0.00  0.00    +0.036 HD
ATOM      8  H   UNL     1       2.315  12.245  18.798  0.00  0.00    +0.036 HD
ATOM      9  H   UNL     1       0.435  11.592  17.619  0.00  0.00    +0.034 HD
ATOM     10  H   UNL     1      -0.602  10.041  20.064  0.00  0.00    +0.055 HD
ENDROOT
BRANCH   6  11
ATOM     11  C   UNL     1      -1.923  10.801  18.576  0.00  0.00    +0.011 A 
ATOM     12  C   UNL     1      -2.487   9.694  17.896  0.00  0.00    +0.054 A 
ATOM     13  N   UNL     1      -3.659   9.979  17.324  0.00  0.00    -0.180 NA
ATOM     14  N   UNL     1      -3.857  11.271  17.634  0.00  0.00    -0.274 N 
ATOM     15  C   UNL     1      -2.848  11.810  18.377  0.00  0.00    +0.030 A 
ATOM     16  H   UNL     1      -2.081   8.693  17.791  0.00  0.00    +0.085 HD
ATOM     17  H   UNL     1      -2.871  12.838  18.709  0.00  0.00    +0.083 HD
BRANCH  14  18
ATOM     18  C   UNL     1      -5.060  11.931  17.190  0.00  0.00    +0.030 C 
ATOM     19  H   UNL     1      -5.153  11.790  16.111  0.00  0.00    +0.047 HD
ATOM     20  H   UNL     1      -4.995  12.998  17.422  0.00  0.00    +0.047 HD
ATOM     21  H   UNL     1      -5.909  11.486  17.713  0.00  0.00    +0.047 HD
ENDBRANCH  14  18
ENDBRANCH   6  11
BRANCH   1  22
ATOM     22  C   UNL     1      -1.584  12.528  21.079  0.00  0.00    +0.039 C 
ATOM     23  H   UNL     1      -2.514  12.661  20.516  0.00  0.00    +0.049 HD
ATOM     24  H   UNL     1      -1.307  13.514  21.467  0.00  0.00    +0.049 HD
BRANCH  22  25
ATOM     25  C   UNL     1      -1.830  11.550  22.237  0.00  0.00    +0.063 C 
ATOM     26  H   UNL     1      -2.294  10.629  21.862  0.00  0.00    +0.058 HD
ATOM     27  H   UNL     1      -2.540  11.984  22.946  0.00  0.00    +0.058 HD
BRANCH  25  28
ATOM     28  O   UNL     1      -0.653  11.232  22.983  0.00  0.00    -0.381 OA
BRANCH  28  29
ATOM     29  C   UNL     1      -0.395   9.837  23.057  0.00  0.00    +0.037 C 
ATOM     30  H   UNL     1      -0.630   9.357  22.101  0.00  0.00    +0.052 HD
ATOM     31  H   UNL     1       0.641   9.632  23.329  0.00  0.00    +0.052 HD
ATOM     32  H   UNL     1      -1.045   9.410  23.826  0.00  0.00    +0.052 HD
ENDBRANCH  28  29
ENDBRANCH  25  28
ENDBRANCH  22  25
ENDBRANCH   1  22
BRANCH   5  33
ATOM     33  C   UNL     1       1.051   9.571  17.919  0.00  0.00    +0.002 C 
ATOM     34  H   UNL     1       1.550   9.743  16.959  0.00  0.00    +0.043 HD
ATOM     35  H   UNL     1       0.153   8.976  17.718  0.00  0.00    +0.043 HD
BRANCH  33  36
ATOM     36  N   UNL     1       1.940   8.835  18.826  0.00  0.00    -0.310 NA
ATOM     37  H   UNL     1       2.630   9.475  19.220  0.00  0.00    +0.122 HD
BRANCH  36  38
ATOM     38  C   UNL     1       2.675   7.773  18.121  0.00  0.00    +0.040 C 
ATOM     39  H   UNL     1       2.361   7.780  17.071  0.00  0.00    +0.049 HD
ATOM     40  H   UNL     1       3.754   7.965  18.124  0.00  0.00    +0.049 HD
BRANCH  38  41
ATOM     41  C   UNL     1       2.370   6.432  18.709  0.00  0.00    +0.074 A 
ATOM     42  C   UNL     1       2.288   6.071  20.039  0.00  0.00    +0.034 A 
ATOM     43  N   UNL     1       2.002   4.729  20.046  0.00  0.00    -0.306 N 
ATOM     44  C   UNL     1       1.817   3.867  21.123  0.00  0.00    +0.011 A 
ATOM     45  C   UNL     1       1.544   2.572  20.884  0.00  0.00    -0.045 A 
ATOM     46  C   UNL     1       1.450   2.116  19.504  0.00  0.00    -0.057 A 
ATOM     47  C   UNL     1       1.630   2.959  18.468  0.00  0.00    -0.019 A 
ATOM     48  C   UNL     1       1.921   4.331  18.716  0.00  0.00    +0.138 A 
ATOM     49  N   UNL     1       2.139   5.339  17.899  0.00  0.00    -0.231 NA
ATOM     50  H   UNL     1       2.408   6.637  20.951  0.00  0.00    +0.083 HD
ATOM     51  H   UNL     1       1.903   4.282  22.119  0.00  0.00    +0.081 HD
ATOM     52  H   UNL     1       1.392   1.857  21.685  0.00  0.00    +0.063 HD
ATOM     53  H   UNL     1       1.226   1.067  19.331  0.00  0.00    +0.062 HD
ATOM     54  H   UNL     1       1.559   2.624  17.440  0.00  0.00    +0.065 HD
ENDBRANCH  38  41
ENDBRANCH  36  38
ENDBRANCH  33  36
ENDBRANCH   5  33
TORSDOF 10
ENDMDL
MODEL 24
REMARK VINA RESULT:    -5.916      2.393      4.106
REMARK INTER + INTRA:          -9.980
REMARK INTER:                  -9.070
REMARK INTRA:                  -0.910
REMARK UNBOUND:                -0.951
REMARK  Name = 
REMARK  10 active torsions:
REMARK  status: ('A' for Active; 'I' for Inactive)
REMARK    1  A    between atoms: C_1  and  O_2
REMARK    2  A    between atoms: O_2  and  C_3
REMARK    3  A    between atoms: C_3  and  C_4
REMARK    4  A    between atoms: C_4  and  N_5
REMARK    5  A    between atoms: C_9  and  C_10
REMARK    6  A    between atoms: C_10  and  N_11
REMARK    7  A    between atoms: N_11  and  C_12
REMARK    8  A    between atoms: C_12  and  C_13
REMARK    9  A    between atoms: C_22  and  C_23
REMARK   10  A    between atoms: N_26  and  C_27
REMARK                            x       y       z     vdW  Elec       q    Type
REMARK                         _______ _______ _______ _____ _____    ______ ____
ROOT
ATOM      1  N   UNL     1       3.837   5.407  17.307  0.00  0.00    -0.292 N 
ATOM      2  C   UNL     1       4.606   6.532  17.029  0.00  0.00    +0.217 C 
ATOM      3  O   UNL     1       5.629   6.576  16.362  0.00  0.00    -0.276 OA
ATOM      4  C   UNL     1       3.920   7.742  17.613  0.00  0.00    +0.030 C 
ATOM      5  C   UNL     1       2.858   7.136  18.533  0.00  0.00    +0.003 C 
ATOM      6  C   UNL     1       2.558   5.782  17.881  0.00  0.00    +0.059 C 
ATOM      7  H   UNL     1       3.502   8.326  16.789  0.00  0.00    +0.036 HD
ATOM      8  H   UNL     1       4.634   8.350  18.174  0.00  0.00    +0.036 HD
ATOM      9  H   UNL     1       3.336   6.980  19.512  0.00  0.00    +0.034 HD
ATOM     10  H   UNL     1       1.867   5.896  17.037  0.00  0.00    +0.055 HD
ENDROOT
BRANCH   6  11
ATOM     11  C   UNL     1       2.034   4.758  18.830  0.00  0.00    +0.011 A 
ATOM     12  C   UNL     1       1.035   3.778  18.615  0.00  0.00    +0.054 A 
ATOM     13  N   UNL     1       0.833   3.002  19.683  0.00  0.00    -0.180 NA
ATOM     14  N   UNL     1       1.703   3.477  20.589  0.00  0.00    -0.274 N 
ATOM     15  C   UNL     1       2.441   4.528  20.131  0.00  0.00    +0.030 A 
ATOM     16  H   UNL     1       0.442   3.607  17.723  0.00  0.00    +0.085 HD
ATOM     17  H   UNL     1       3.189   5.011  20.745  0.00  0.00    +0.083 HD
BRANCH  14  18
ATOM     18  C   UNL     1       1.783   2.858  21.889  0.00  0.00    +0.030 C 
ATOM     19  H   UNL     1       2.507   2.042  21.839  0.00  0.00    +0.047 HD
ATOM     20  H   UNL     1       0.800   2.467  22.166  0.00  0.00    +0.047 HD
ATOM     21  H   UNL     1       2.102   3.614  22.611  0.00  0.00    +0.047 HD
ENDBRANCH  14  18
ENDBRANCH   6  11
BRANCH   1  22
ATOM     22  C   UNL     1       4.080   4.128  16.643  0.00  0.00    +0.039 C 
ATOM     23  H   UNL     1       4.832   4.290  15.863  0.00  0.00    +0.049 HD
ATOM     24  H   UNL     1       3.161   3.816  16.136  0.00  0.00    +0.049 HD
BRANCH  22  25
ATOM     25  C   UNL     1       4.568   3.021  17.590  0.00  0.00    +0.063 C 
ATOM     26  H   UNL     1       4.752   3.433  18.590  0.00  0.00    +0.058 HD
ATOM     27  H   UNL     1       5.525   2.627  17.239  0.00  0.00    +0.058 HD
BRANCH  25  28
ATOM     28  O   UNL     1       3.678   1.906  17.679  0.00  0.00    -0.381 OA
BRANCH  28  29
ATOM     29  C   UNL     1       3.844   1.149  18.870  0.00  0.00    +0.037 C 
ATOM     30  H   UNL     1       2.941   1.211  19.487  0.00  0.00    +0.052 HD
ATOM     31  H   UNL     1       4.075   0.105  18.655  0.00  0.00    +0.052 HD
ATOM     32  H   UNL     1       4.676   1.578  19.433  0.00  0.00    +0.052 HD
ENDBRANCH  28  29
ENDBRANCH  25  28
ENDBRANCH  22  25
ENDBRANCH   1  22
BRANCH   5  33
ATOM     33  C   UNL     1       1.625   8.016  18.769  0.00  0.00    +0.002 C 
ATOM     34  H   UNL     1       1.658   8.385  19.800  0.00  0.00    +0.043 HD
ATOM     35  H   UNL     1       0.735   7.384  18.676  0.00  0.00    +0.043 HD
BRANCH  33  36
ATOM     36  N   UNL     1       1.532   9.143  17.833  0.00  0.00    -0.310 NA
ATOM     37  H   UNL     1       2.369   9.171  17.249  0.00  0.00    +0.122 HD
BRANCH  36  38
ATOM     38  C   UNL     1       1.444  10.430  18.541  0.00  0.00    +0.040 C 
ATOM     39  H   UNL     1       1.910  10.311  19.526  0.00  0.00    +0.049 HD
ATOM     40  H   UNL     1       2.012  11.210  18.022  0.00  0.00    +0.049 HD
BRANCH  38  41
ATOM     41  C   UNL     1       0.018  10.842  18.726  0.00  0.00    +0.074 A 
ATOM     42  C   UNL     1      -1.084  10.500  17.967  0.00  0.00    +0.034 A 
ATOM     43  N   UNL     1      -2.149  11.149  18.540  0.00  0.00    -0.306 N 
ATOM     44  C   UNL     1      -3.491  11.151  18.170  0.00  0.00    +0.011 A 
ATOM     45  C   UNL     1      -4.366  11.875  18.890  0.00  0.00    -0.045 A 
ATOM     46  C   UNL     1      -3.880  12.630  20.037  0.00  0.00    -0.057 A 
ATOM     47  C   UNL     1      -2.578  12.620  20.387  0.00  0.00    -0.019 A 
ATOM     48  C   UNL     1      -1.647  11.858  19.626  0.00  0.00    +0.138 A 
ATOM     49  N   UNL     1      -0.348  11.686  19.754  0.00  0.00    -0.231 NA
ATOM     50  H   UNL     1      -1.196   9.873  17.095  0.00  0.00    +0.083 HD
ATOM     51  H   UNL     1      -3.774  10.564  17.306  0.00  0.00    +0.081 HD
ATOM     52  H   UNL     1      -5.422  11.912  18.645  0.00  0.00    +0.063 HD
ATOM     53  H   UNL     1      -4.602  13.206  20.607  0.00  0.00    +0.062 HD
ATOM     54  H   UNL     1      -2.213  13.180  21.241  0.00  0.00    +0.065 HD
ENDBRANCH  38  41
ENDBRANCH  36  38
ENDBRANCH  33  36
ENDBRANCH   5  33
TORSDOF 10
ENDMDL
MODEL 25
REMARK VINA RESULT:    -5.850      2.400      4.330
REMARK INTER + INTRA:          -9.878
REMARK INTER:                  -9.025
REMARK INTRA:                  -0.853
REMARK UNBOUND:                -0.951
REMARK  Name = 
REMARK  10 active torsions:
REMARK  status: ('A' for Active; 'I' for Inactive)
REMARK    1  A    between atoms: C_1  and  O_2
REMARK    2  A    between atoms: O_2  and  C_3
REMARK    3  A    between atoms: C_3  and  C_4
REMARK    4  A    between atoms: C_4  and  N_5
REMARK    5  A    between atoms: C_9  and  C_10
REMARK    6  A    between atoms: C_10  and  N_11
REMARK    7  A    between atoms: N_11  and  C_12
REMARK    8  A    between atoms: C_12  and  C_13
REMARK    9  A    between atoms: C_22  and  C_23
REMARK   10  A    between atoms: N_26  and  C_27
REMARK                            x       y       z     vdW  Elec       q    Type
REMARK                         _______ _______ _______ _____ _____    ______ ____
ROOT
ATOM      1  N   UNL     1       4.734   5.300  17.680  0.00  0.00    -0.292 N 
ATOM      2  C   UNL     1       5.432   6.493  17.531  0.00  0.00    +0.217 C 
ATOM      3  O   UNL     1       6.625   6.623  17.301  0.00  0.00    -0.276 OA
ATOM      4  C   UNL     1       4.453   7.638  17.608  0.00  0.00    +0.030 C 
ATOM      5  C   UNL     1       3.181   6.981  18.147  0.00  0.00    +0.003 C 
ATOM      6  C   UNL     1       3.302   5.532  17.662  0.00  0.00    +0.059 C 
ATOM      7  H   UNL     1       4.337   8.053  16.603  0.00  0.00    +0.036 HD
ATOM      8  H   UNL     1       4.822   8.410  18.288  0.00  0.00    +0.036 HD
ATOM      9  H   UNL     1       3.247   7.012  19.245  0.00  0.00    +0.034 HD
ATOM     10  H   UNL     1       2.992   5.441  16.613  0.00  0.00    +0.055 HD
ENDROOT
BRANCH   6  11
ATOM     11  C   UNL     1       2.552   4.551  18.497  0.00  0.00    +0.011 A 
ATOM     12  C   UNL     1       1.603   3.581  18.092  0.00  0.00    +0.054 A 
ATOM     13  N   UNL     1       1.147   2.846  19.110  0.00  0.00    -0.180 NA
ATOM     14  N   UNL     1       1.801   3.339  20.175  0.00  0.00    -0.274 N 
ATOM     15  C   UNL     1       2.648   4.361  19.864  0.00  0.00    +0.030 A 
ATOM     16  H   UNL     1       1.224   3.388  17.095  0.00  0.00    +0.085 HD
ATOM     17  H   UNL     1       3.250   4.852  20.616  0.00  0.00    +0.083 HD
BRANCH  14  18
ATOM     18  C   UNL     1       1.570   2.765  21.477  0.00  0.00    +0.030 C 
ATOM     19  H   UNL     1       0.509   2.520  21.564  0.00  0.00    +0.047 HD
ATOM     20  H   UNL     1       1.848   3.489  22.248  0.00  0.00    +0.047 HD
ATOM     21  H   UNL     1       2.183   1.865  21.570  0.00  0.00    +0.047 HD
ENDBRANCH  14  18
ENDBRANCH   6  11
BRANCH   1  22
ATOM     22  C   UNL     1       5.347   4.009  17.376  0.00  0.00    +0.039 C 
ATOM     23  H   UNL     1       4.712   3.225  17.804  0.00  0.00    +0.049 HD
ATOM     24  H   UNL     1       6.312   3.949  17.891  0.00  0.00    +0.049 HD
BRANCH  22  25
ATOM     25  C   UNL     1       5.529   3.747  15.874  0.00  0.00    +0.063 C 
ATOM     26  H   UNL     1       4.797   4.328  15.298  0.00  0.00    +0.058 HD
ATOM     27  H   UNL     1       5.328   2.696  15.653  0.00  0.00    +0.058 HD
BRANCH  25  28
ATOM     28  O   UNL     1       6.849   4.019  15.397  0.00  0.00    -0.381 OA
BRANCH  28  29
ATOM     29  C   UNL     1       6.868   4.800  14.211  0.00  0.00    +0.037 C 
ATOM     30  H   UNL     1       6.388   5.769  14.388  0.00  0.00    +0.052 HD
ATOM     31  H   UNL     1       7.884   4.952  13.845  0.00  0.00    +0.052 HD
ATOM     32  H   UNL     1       6.300   4.269  13.443  0.00  0.00    +0.052 HD
ENDBRANCH  28  29
ENDBRANCH  25  28
ENDBRANCH  22  25
ENDBRANCH   1  22
BRANCH   5  33
ATOM     33  C   UNL     1       1.873   7.677  17.753  0.00  0.00    +0.002 C 
ATOM     34  H   UNL     1       1.048   7.174  18.270  0.00  0.00    +0.043 HD
ATOM     35  H   UNL     1       1.722   7.532  16.677  0.00  0.00    +0.043 HD
BRANCH  33  36
ATOM     36  N   UNL     1       1.865   9.112  18.066  0.00  0.00    -0.310 NA
ATOM     37  H   UNL     1       2.825   9.448  18.145  0.00  0.00    +0.122 HD
BRANCH  36  38
ATOM     38  C   UNL     1       1.195   9.383  19.347  0.00  0.00    +0.040 C 
ATOM     39  H   UNL     1       0.312   8.736  19.415  0.00  0.00    +0.049 HD
ATOM     40  H   UNL     1       1.836   9.122  20.196  0.00  0.00    +0.049 HD
BRANCH  38  41
ATOM     41  C   UNL     1       0.757  10.811  19.429  0.00  0.00    +0.074 A 
ATOM     42  C   UNL     1      -0.395  11.330  19.987  0.00  0.00    +0.034 A 
ATOM     43  N   UNL     1      -0.329  12.686  19.787  0.00  0.00    -0.306 N 
ATOM     44  C   UNL     1      -1.233  13.681  20.150  0.00  0.00    +0.011 A 
ATOM     45  C   UNL     1      -0.954  14.960  19.841  0.00  0.00    -0.045 A 
ATOM     46  C   UNL     1       0.285  15.261  19.138  0.00  0.00    -0.057 A 
ATOM     47  C   UNL     1       1.154  14.290  18.792  0.00  0.00    -0.019 A 
ATOM     48  C   UNL     1       0.862  12.934  19.114  0.00  0.00    +0.138 A 
ATOM     49  N   UNL     1       1.528  11.820  18.891  0.00  0.00    -0.231 NA
ATOM     50  H   UNL     1      -1.229  10.864  20.490  0.00  0.00    +0.083 HD
ATOM     51  H   UNL     1      -2.132  13.378  20.670  0.00  0.00    +0.081 HD
ATOM     52  H   UNL     1      -1.623  15.774  20.099  0.00  0.00    +0.063 HD
ATOM     53  H   UNL     1       0.494  16.299  18.900  0.00  0.00    +0.062 HD
ATOM     54  H   UNL     1       2.078  14.510  18.270  0.00  0.00    +0.065 HD
ENDBRANCH  38  41
ENDBRANCH  36  38
ENDBRANCH  33  36
ENDBRANCH   5  33
TORSDOF 10
ENDMDL
MODEL 26
REMARK VINA RESULT:    -5.842      1.836      3.619
REMARK INTER + INTRA:          -9.867
REMARK INTER:                  -9.031
REMARK INTRA:                  -0.836
REMARK UNBOUND:                -0.951
REMARK  Name = 
REMARK  10 active torsions:
REMARK  status: ('A' for Active; 'I' for Inactive)
REMARK    1  A    between atoms: C_1  and  O_2
REMARK    2  A    between atoms: O_2  and  C_3
REMARK    3  A    between atoms: C_3  and  C_4
REMARK    4  A    between atoms: C_4  and  N_5
REMARK    5  A    between atoms: C_9  and  C_10
REMARK    6  A    between atoms: C_10  and  N_11
REMARK    7  A    between atoms: N_11  and  C_12
REMARK    8  A    between atoms: C_12  and  C_13
REMARK    9  A    between atoms: C_22  and  C_23
REMARK   10  A    between atoms: N_26  and  C_27
REMARK                            x       y       z     vdW  Elec       q    Type
REMARK                         _______ _______ _______ _____ _____    ______ ____
ROOT
ATOM      1  N   UNL     1       3.895   5.318  17.268  0.00  0.00    -0.292 N 
ATOM      2  C   UNL     1       4.680   6.419  16.944  0.00  0.00    +0.217 C 
ATOM      3  O   UNL     1       5.701   6.422  16.273  0.00  0.00    -0.276 OA
ATOM      4  C   UNL     1       4.016   7.661  17.485  0.00  0.00    +0.030 C 
ATOM      5  C   UNL     1       2.948   7.109  18.431  0.00  0.00    +0.003 C 
ATOM      6  C   UNL     1       2.624   5.735  17.832  0.00  0.00    +0.059 C 
ATOM      7  H   UNL     1       3.603   8.220  16.640  0.00  0.00    +0.036 HD
ATOM      8  H   UNL     1       4.741   8.279  18.019  0.00  0.00    +0.036 HD
ATOM      9  H   UNL     1       3.428   6.982  19.414  0.00  0.00    +0.034 HD
ATOM     10  H   UNL     1       1.932   5.828  16.987  0.00  0.00    +0.055 HD
ENDROOT
BRANCH   6  11
ATOM     11  C   UNL     1       2.088   4.757  18.821  0.00  0.00    +0.011 A 
ATOM     12  C   UNL     1       1.045   3.812  18.660  0.00  0.00    +0.054 A 
ATOM     13  N   UNL     1       0.844   3.072  19.753  0.00  0.00    -0.180 NA
ATOM     14  N   UNL     1       1.757   3.534  20.622  0.00  0.00    -0.274 N 
ATOM     15  C   UNL     1       2.523   4.543  20.117  0.00  0.00    +0.030 A 
ATOM     16  H   UNL     1       0.421   3.643  17.790  0.00  0.00    +0.085 HD
ATOM     17  H   UNL     1       3.306   5.011  20.696  0.00  0.00    +0.083 HD
BRANCH  14  18
ATOM     18  C   UNL     1       1.851   2.945  21.935  0.00  0.00    +0.030 C 
ATOM     19  H   UNL     1       2.540   2.099  21.886  0.00  0.00    +0.047 HD
ATOM     20  H   UNL     1       0.862   2.600  22.249  0.00  0.00    +0.047 HD
ATOM     21  H   UNL     1       2.219   3.705  22.627  0.00  0.00    +0.047 HD
ENDBRANCH  14  18
ENDBRANCH   6  11
BRANCH   1  22
ATOM     22  C   UNL     1       4.114   4.011  16.653  0.00  0.00    +0.039 C 
ATOM     23  H   UNL     1       4.875   4.129  15.873  0.00  0.00    +0.049 HD
ATOM     24  H   UNL     1       3.192   3.700  16.150  0.00  0.00    +0.049 HD
BRANCH  22  25
ATOM     25  C   UNL     1       4.571   2.929  17.643  0.00  0.00    +0.063 C 
ATOM     26  H   UNL     1       4.732   3.368  18.636  0.00  0.00    +0.058 HD
ATOM     27  H   UNL     1       5.535   2.520  17.329  0.00  0.00    +0.058 HD
BRANCH  25  28
ATOM     28  O   UNL     1       3.672   1.822  17.741  0.00  0.00    -0.381 OA
BRANCH  28  29
ATOM     29  C   UNL     1       3.832   1.073  18.938  0.00  0.00    +0.037 C 
ATOM     30  H   UNL     1       2.930   1.147  19.554  0.00  0.00    +0.052 HD
ATOM     31  H   UNL     1       4.055   0.025  18.731  0.00  0.00    +0.052 HD
ATOM     32  H   UNL     1       4.668   1.500  19.498  0.00  0.00    +0.052 HD
ENDBRANCH  28  29
ENDBRANCH  25  28
ENDBRANCH  22  25
ENDBRANCH   1  22
BRANCH   5  33
ATOM     33  C   UNL     1       1.730   8.016  18.637  0.00  0.00    +0.002 C 
ATOM     34  H   UNL     1       1.781   8.434  19.649  0.00  0.00    +0.043 HD
ATOM     35  H   UNL     1       0.830   7.393  18.585  0.00  0.00    +0.043 HD
BRANCH  33  36
ATOM     36  N   UNL     1       1.641   9.098  17.648  0.00  0.00    -0.310 NA
ATOM     37  H   UNL     1       2.315   8.931  16.900  0.00  0.00    +0.122 HD
BRANCH  36  38
ATOM     38  C   UNL     1       1.958  10.406  18.245  0.00  0.00    +0.040 C 
ATOM     39  H   UNL     1       2.878  10.299  18.833  0.00  0.00    +0.049 HD
ATOM     40  H   UNL     1       2.169  11.155  17.474  0.00  0.00    +0.049 HD
BRANCH  38  41
ATOM     41  C   UNL     1       0.857  10.862  19.147  0.00  0.00    +0.074 A 
ATOM     42  C   UNL     1      -0.337  11.470  18.812  0.00  0.00    +0.034 A 
ATOM     43  N   UNL     1      -0.985  11.702  19.999  0.00  0.00    -0.306 N 
ATOM     44  C   UNL     1      -2.223  12.295  20.234  0.00  0.00    +0.011 A 
ATOM     45  C   UNL     1      -2.658  12.420  21.500  0.00  0.00    -0.045 A 
ATOM     46  C   UNL     1      -1.819  11.929  22.584  0.00  0.00    -0.057 A 
ATOM     47  C   UNL     1      -0.622  11.356  22.346  0.00  0.00    -0.019 A 
ATOM     48  C   UNL     1      -0.156  11.223  21.008  0.00  0.00    +0.138 A 
ATOM     49  N   UNL     1       0.955  10.715  20.516  0.00  0.00    -0.231 NA
ATOM     50  H   UNL     1      -0.764  11.751  17.861  0.00  0.00    +0.083 HD
ATOM     51  H   UNL     1      -2.788  12.634  19.375  0.00  0.00    +0.081 HD
ATOM     52  H   UNL     1      -3.613  12.874  21.739  0.00  0.00    +0.063 HD
ATOM     53  H   UNL     1      -2.188  12.037  23.599  0.00  0.00    +0.062 HD
ATOM     54  H   UNL     1       0.005  10.988  23.151  0.00  0.00    +0.065 HD
ENDBRANCH  38  41
ENDBRANCH  36  38
ENDBRANCH  33  36
ENDBRANCH   5  33
TORSDOF 10
ENDMDL
MODEL 27
REMARK VINA RESULT:    -5.842      2.633      4.558
REMARK INTER + INTRA:          -9.866
REMARK INTER:                  -8.988
REMARK INTRA:                  -0.878
REMARK UNBOUND:                -0.951
REMARK  Name = 
REMARK  10 active torsions:
REMARK  status: ('A' for Active; 'I' for Inactive)
REMARK    1  A    between atoms: C_1  and  O_2
REMARK    2  A    between atoms: O_2  and  C_3
REMARK    3  A    between atoms: C_3  and  C_4
REMARK    4  A    between atoms: C_4  and  N_5
REMARK    5  A    between atoms: C_9  and  C_10
REMARK    6  A    between atoms: C_10  and  N_11
REMARK    7  A    between atoms: N_11  and  C_12
REMARK    8  A    between atoms: C_12  and  C_13
REMARK    9  A    between atoms: C_22  and  C_23
REMARK   10  A    between atoms: N_26  and  C_27
REMARK                            x       y       z     vdW  Elec       q    Type
REMARK                         _______ _______ _______ _____ _____    ______ ____
ROOT
ATOM      1  N   UNL     1       4.602   5.284  17.623  0.00  0.00    -0.292 N 
ATOM      2  C   UNL     1       5.309   6.475  17.505  0.00  0.00    +0.217 C 
ATOM      3  O   UNL     1       6.479   6.605  17.178  0.00  0.00    -0.276 OA
ATOM      4  C   UNL     1       4.366   7.624  17.761  0.00  0.00    +0.030 C 
ATOM      5  C   UNL     1       3.134   6.944  18.361  0.00  0.00    +0.003 C 
ATOM      6  C   UNL     1       3.179   5.537  17.754  0.00  0.00    +0.059 C 
ATOM      7  H   UNL     1       4.169   8.121  16.807  0.00  0.00    +0.036 HD
ATOM      8  H   UNL     1       4.812   8.333  18.464  0.00  0.00    +0.036 HD
ATOM      9  H   UNL     1       3.300   6.885  19.448  0.00  0.00    +0.034 HD
ATOM     10  H   UNL     1       2.774   5.536  16.734  0.00  0.00    +0.055 HD
ENDROOT
BRANCH   6  11
ATOM     11  C   UNL     1       2.486   4.503  18.575  0.00  0.00    +0.011 A 
ATOM     12  C   UNL     1       1.597   3.484  18.154  0.00  0.00    +0.054 A 
ATOM     13  N   UNL     1       1.182   2.711  19.161  0.00  0.00    -0.180 NA
ATOM     14  N   UNL     1       1.804   3.227  20.234  0.00  0.00    -0.274 N 
ATOM     15  C   UNL     1       2.591   4.301  19.939  0.00  0.00    +0.030 A 
ATOM     16  H   UNL     1       1.232   3.283  17.154  0.00  0.00    +0.085 HD
ATOM     17  H   UNL     1       3.160   4.817  20.699  0.00  0.00    +0.083 HD
BRANCH  14  18
ATOM     18  C   UNL     1       1.604   2.623  21.528  0.00  0.00    +0.030 C 
ATOM     19  H   UNL     1       2.425   1.927  21.715  0.00  0.00    +0.047 HD
ATOM     20  H   UNL     1       0.652   2.086  21.535  0.00  0.00    +0.047 HD
ATOM     21  H   UNL     1       1.592   3.416  22.280  0.00  0.00    +0.047 HD
ENDBRANCH  14  18
ENDBRANCH   6  11
BRANCH   1  22
ATOM     22  C   UNL     1       5.156   4.013  17.163  0.00  0.00    +0.039 C 
ATOM     23  H   UNL     1       4.584   3.205  17.633  0.00  0.00    +0.049 HD
ATOM     24  H   UNL     1       6.185   3.925  17.530  0.00  0.00    +0.049 HD
BRANCH  22  25
ATOM     25  C   UNL     1       5.119   3.835  15.638  0.00  0.00    +0.063 C 
ATOM     26  H   UNL     1       4.619   4.693  15.170  0.00  0.00    +0.058 HD
ATOM     27  H   UNL     1       4.525   2.955  15.380  0.00  0.00    +0.058 HD
BRANCH  25  28
ATOM     28  O   UNL     1       6.407   3.644  15.048  0.00  0.00    -0.381 OA
BRANCH  28  29
ATOM     29  C   UNL     1       6.843   4.755  14.278  0.00  0.00    +0.037 C 
ATOM     30  H   UNL     1       6.324   5.664  14.598  0.00  0.00    +0.052 HD
ATOM     31  H   UNL     1       7.922   4.897  14.351  0.00  0.00    +0.052 HD
ATOM     32  H   UNL     1       6.590   4.564  13.231  0.00  0.00    +0.052 HD
ENDBRANCH  28  29
ENDBRANCH  25  28
ENDBRANCH  22  25
ENDBRANCH   1  22
BRANCH   5  33
ATOM     33  C   UNL     1       1.812   7.688  18.146  0.00  0.00    +0.002 C 
ATOM     34  H   UNL     1       0.992   6.967  18.243  0.00  0.00    +0.043 HD
ATOM     35  H   UNL     1       1.797   8.063  17.116  0.00  0.00    +0.043 HD
BRANCH  33  36
ATOM     36  N   UNL     1       1.617   8.803  19.081  0.00  0.00    -0.310 NA
ATOM     37  H   UNL     1       1.134   8.467  19.915  0.00  0.00    +0.122 HD
BRANCH  36  38
ATOM     38  C   UNL     1       0.790   9.868  18.490  0.00  0.00    +0.040 C 
ATOM     39  H   UNL     1       0.863   9.791  17.399  0.00  0.00    +0.049 HD
ATOM     40  H   UNL     1      -0.268   9.736  18.741  0.00  0.00    +0.049 HD
BRANCH  38  41
ATOM     41  C   UNL     1       1.275  11.217  18.914  0.00  0.00    +0.074 A 
ATOM     42  C   UNL     1       0.923  11.950  20.031  0.00  0.00    +0.034 A 
ATOM     43  N   UNL     1       1.632  13.122  19.949  0.00  0.00    -0.306 N 
ATOM     44  C   UNL     1       1.647  14.213  20.814  0.00  0.00    +0.011 A 
ATOM     45  C   UNL     1       2.429  15.267  20.522  0.00  0.00    -0.045 A 
ATOM     46  C   UNL     1       3.238  15.230  19.312  0.00  0.00    -0.057 A 
ATOM     47  C   UNL     1       3.217  14.169  18.481  0.00  0.00    -0.019 A 
ATOM     48  C   UNL     1       2.388  13.051  18.784  0.00  0.00    +0.138 A 
ATOM     49  N   UNL     1       2.187  11.916  18.149  0.00  0.00    -0.231 NA
ATOM     50  H   UNL     1       0.247  11.744  20.848  0.00  0.00    +0.083 HD
ATOM     51  H   UNL     1       1.018  14.164  21.694  0.00  0.00    +0.081 HD
ATOM     52  H   UNL     1       2.478  16.142  21.161  0.00  0.00    +0.063 HD
ATOM     53  H   UNL     1       3.865  16.090  19.095  0.00  0.00    +0.062 HD
ATOM     54  H   UNL     1       3.818  14.137  17.579  0.00  0.00    +0.065 HD
ENDBRANCH  38  41
ENDBRANCH  36  38
ENDBRANCH  33  36
ENDBRANCH   5  33
TORSDOF 10
ENDMDL
MODEL 28
REMARK VINA RESULT:    -5.796      3.788      9.206
REMARK INTER + INTRA:          -9.796
REMARK INTER:                  -8.790
REMARK INTRA:                  -1.005
REMARK UNBOUND:                -0.951
REMARK  Name = 
REMARK  10 active torsions:
REMARK  status: ('A' for Active; 'I' for Inactive)
REMARK    1  A    between atoms: C_1  and  O_2
REMARK    2  A    between atoms: O_2  and  C_3
REMARK    3  A    between atoms: C_3  and  C_4
REMARK    4  A    between atoms: C_4  and  N_5
REMARK    5  A    between atoms: C_9  and  C_10
REMARK    6  A    between atoms: C_10  and  N_11
REMARK    7  A    between atoms: N_11  and  C_12
REMARK    8  A    between atoms: C_12  and  C_13
REMARK    9  A    between atoms: C_22  and  C_23
REMARK   10  A    between atoms: N_26  and  C_27
REMARK                            x       y       z     vdW  Elec       q    Type
REMARK                         _______ _______ _______ _____ _____    ______ ____
ROOT
ATOM      1  N   UNL     1      -2.754  11.470  18.653  0.00  0.00    -0.292 N 
ATOM      2  C   UNL     1      -2.851  10.510  17.652  0.00  0.00    +0.217 C 
ATOM      3  O   UNL     1      -3.832  10.258  16.969  0.00  0.00    -0.276 OA
ATOM      4  C   UNL     1      -1.500   9.865  17.468  0.00  0.00    +0.030 C 
ATOM      5  C   UNL     1      -0.715  10.331  18.696  0.00  0.00    +0.003 C 
ATOM      6  C   UNL     1      -1.371  11.673  19.044  0.00  0.00    +0.059 C 
ATOM      7  H   UNL     1      -1.081  10.220  16.522  0.00  0.00    +0.036 HD
ATOM      8  H   UNL     1      -1.597   8.777  17.446  0.00  0.00    +0.036 HD
ATOM      9  H   UNL     1      -0.913   9.602  19.496  0.00  0.00    +0.034 HD
ATOM     10  H   UNL     1      -0.988  12.476  18.403  0.00  0.00    +0.055 HD
ENDROOT
BRANCH   6  11
ATOM     11  C   UNL     1      -1.232  12.059  20.478  0.00  0.00    +0.011 A 
ATOM     12  C   UNL     1      -1.059  11.226  21.609  0.00  0.00    +0.054 A 
ATOM     13  N   UNL     1      -0.942  11.915  22.747  0.00  0.00    -0.180 NA
ATOM     14  N   UNL     1      -1.035  13.196  22.352  0.00  0.00    -0.274 N 
ATOM     15  C   UNL     1      -1.213  13.336  21.008  0.00  0.00    +0.030 A 
ATOM     16  H   UNL     1      -1.024  10.143  21.647  0.00  0.00    +0.085 HD
ATOM     17  H   UNL     1      -1.297  14.308  20.542  0.00  0.00    +0.083 HD
BRANCH  14  18
ATOM     18  C   UNL     1      -0.930  14.249  23.331  0.00  0.00    +0.030 C 
ATOM     19  H   UNL     1      -1.130  15.202  22.836  0.00  0.00    +0.047 HD
ATOM     20  H   UNL     1       0.079  14.254  23.753  0.00  0.00    +0.047 HD
ATOM     21  H   UNL     1      -1.664  14.061  24.119  0.00  0.00    +0.047 HD
ENDBRANCH  14  18
ENDBRANCH   6  11
BRANCH   1  22
ATOM     22  C   UNL     1      -3.808  12.457  18.875  0.00  0.00    +0.039 C 
ATOM     23  H   UNL     1      -4.407  12.523  17.960  0.00  0.00    +0.049 HD
ATOM     24  H   UNL     1      -3.345  13.439  19.019  0.00  0.00    +0.049 HD
BRANCH  22  25
ATOM     25  C   UNL     1      -4.730  12.125  20.058  0.00  0.00    +0.063 C 
ATOM     26  H   UNL     1      -4.378  11.219  20.568  0.00  0.00    +0.058 HD
ATOM     27  H   UNL     1      -5.735  11.901  19.695  0.00  0.00    +0.058 HD
BRANCH  25  28
ATOM     28  O   UNL     1      -4.865  13.192  21.000  0.00  0.00    -0.381 OA
BRANCH  28  29
ATOM     29  C   UNL     1      -4.637  12.787  22.343  0.00  0.00    +0.037 C 
ATOM     30  H   UNL     1      -5.145  11.838  22.544  0.00  0.00    +0.052 HD
ATOM     31  H   UNL     1      -3.572  12.691  22.560  0.00  0.00    +0.052 HD
ATOM     32  H   UNL     1      -5.057  13.549  23.005  0.00  0.00    +0.052 HD
ENDBRANCH  28  29
ENDBRANCH  25  28
ENDBRANCH  22  25
ENDBRANCH   1  22
BRANCH   5  33
ATOM     33  C   UNL     1       0.805  10.396  18.509  0.00  0.00    +0.002 C 
ATOM     34  H   UNL     1       1.277  10.277  19.492  0.00  0.00    +0.043 HD
ATOM     35  H   UNL     1       1.060  11.397  18.143  0.00  0.00    +0.043 HD
BRANCH  33  36
ATOM     36  N   UNL     1       1.316   9.382  17.578  0.00  0.00    -0.310 NA
ATOM     37  H   UNL     1       0.641   8.621  17.499  0.00  0.00    +0.122 HD
BRANCH  36  38
ATOM     38  C   UNL     1       2.583   8.802  18.051  0.00  0.00    +0.040 C 
ATOM     39  H   UNL     1       3.272   8.746  17.200  0.00  0.00    +0.049 HD
ATOM     40  H   UNL     1       3.063   9.446  18.796  0.00  0.00    +0.049 HD
BRANCH  38  41
ATOM     41  C   UNL     1       2.370   7.425  18.593  0.00  0.00    +0.074 A 
ATOM     42  C   UNL     1       2.194   7.031  19.905  0.00  0.00    +0.034 A 
ATOM     43  N   UNL     1       2.059   5.666  19.870  0.00  0.00    -0.306 N 
ATOM     44  C   UNL     1       1.862   4.767  20.915  0.00  0.00    +0.011 A 
ATOM     45  C   UNL     1       1.759   3.455  20.638  0.00  0.00    -0.045 A 
ATOM     46  C   UNL     1       1.856   3.019  19.252  0.00  0.00    -0.057 A 
ATOM     47  C   UNL     1       2.045   3.897  18.247  0.00  0.00    -0.019 A 
ATOM     48  C   UNL     1       2.157   5.287  18.536  0.00  0.00    +0.138 A 
ATOM     49  N   UNL     1       2.344   6.329  17.754  0.00  0.00    -0.231 NA
ATOM     50  H   UNL     1       2.159   7.588  20.829  0.00  0.00    +0.083 HD
ATOM     51  H   UNL     1       1.801   5.169  21.919  0.00  0.00    +0.081 HD
ATOM     52  H   UNL     1       1.606   2.712  21.414  0.00  0.00    +0.063 HD
ATOM     53  H   UNL     1       1.768   1.956  19.048  0.00  0.00    +0.062 HD
ATOM     54  H   UNL     1       2.116   3.576  17.214  0.00  0.00    +0.065 HD
ENDBRANCH  38  41
ENDBRANCH  36  38
ENDBRANCH  33  36
ENDBRANCH   5  33
TORSDOF 10
ENDMDL
MODEL 29
REMARK VINA RESULT:    -5.795      2.157      4.176
REMARK INTER + INTRA:          -9.795
REMARK INTER:                  -8.748
REMARK INTRA:                  -1.047
REMARK UNBOUND:                -0.951
REMARK  Name = 
REMARK  10 active torsions:
REMARK  status: ('A' for Active; 'I' for Inactive)
REMARK    1  A    between atoms: C_1  and  O_2
REMARK    2  A    between atoms: O_2  and  C_3
REMARK    3  A    between atoms: C_3  and  C_4
REMARK    4  A    between atoms: C_4  and  N_5
REMARK    5  A    between atoms: C_9  and  C_10
REMARK    6  A    between atoms: C_10  and  N_11
REMARK    7  A    between atoms: N_11  and  C_12
REMARK    8  A    between atoms: C_12  and  C_13
REMARK    9  A    between atoms: C_22  and  C_23
REMARK   10  A    between atoms: N_26  and  C_27
REMARK                            x       y       z     vdW  Elec       q    Type
REMARK                         _______ _______ _______ _____ _____    ______ ____
ROOT
ATOM      1  N   UNL     1       3.656   5.273  17.417  0.00  0.00    -0.292 N 
ATOM      2  C   UNL     1       4.486   6.352  17.133  0.00  0.00    +0.217 C 
ATOM      3  O   UNL     1       5.425   6.371  16.352  0.00  0.00    -0.276 OA
ATOM      4  C   UNL     1       3.984   7.558  17.888  0.00  0.00    +0.030 C 
ATOM      5  C   UNL     1       2.985   6.963  18.882  0.00  0.00    +0.003 C 
ATOM      6  C   UNL     1       2.491   5.698  18.170  0.00  0.00    +0.059 C 
ATOM      7  H   UNL     1       3.528   8.243  17.168  0.00  0.00    +0.036 HD
ATOM      8  H   UNL     1       4.810   8.056  18.402  0.00  0.00    +0.036 HD
ATOM      9  H   UNL     1       3.557   6.684  19.780  0.00  0.00    +0.034 HD
ATOM     10  H   UNL     1       1.721   5.940  17.428  0.00  0.00    +0.055 HD
ENDROOT
BRANCH   6  11
ATOM     11  C   UNL     1       1.990   4.641  19.095  0.00  0.00    +0.011 A 
ATOM     12  C   UNL     1       0.940   3.712  18.895  0.00  0.00    +0.054 A 
ATOM     13  N   UNL     1       0.778   2.885  19.930  0.00  0.00    -0.180 NA
ATOM     14  N   UNL     1       1.724   3.276  20.800  0.00  0.00    -0.274 N 
ATOM     15  C   UNL     1       2.472   4.323  20.351  0.00  0.00    +0.030 A 
ATOM     16  H   UNL     1       0.284   3.614  18.038  0.00  0.00    +0.085 HD
ATOM     17  H   UNL     1       3.277   4.742  20.938  0.00  0.00    +0.083 HD
BRANCH  14  18
ATOM     18  C   UNL     1       1.864   2.581  22.056  0.00  0.00    +0.030 C 
ATOM     19  H   UNL     1       2.085   3.314  22.834  0.00  0.00    +0.047 HD
ATOM     20  H   UNL     1       2.682   1.859  21.982  0.00  0.00    +0.047 HD
ATOM     21  H   UNL     1       0.926   2.062  22.269  0.00  0.00    +0.047 HD
ENDBRANCH  14  18
ENDBRANCH   6  11
BRANCH   1  22
ATOM     22  C   UNL     1       3.704   4.041  16.632  0.00  0.00    +0.039 C 
ATOM     23  H   UNL     1       4.256   4.249  15.709  0.00  0.00    +0.049 HD
ATOM     24  H   UNL     1       2.684   3.773  16.337  0.00  0.00    +0.049 HD
BRANCH  22  25
ATOM     25  C   UNL     1       4.372   2.866  17.363  0.00  0.00    +0.063 C 
ATOM     26  H   UNL     1       4.864   3.220  18.278  0.00  0.00    +0.058 HD
ATOM     27  H   UNL     1       5.159   2.438  16.738  0.00  0.00    +0.058 HD
BRANCH  25  28
ATOM     28  O   UNL     1       3.475   1.798  17.676  0.00  0.00    -0.381 OA
BRANCH  28  29
ATOM     29  C   UNL     1       3.821   1.105  18.867  0.00  0.00    +0.037 C 
ATOM     30  H   UNL     1       4.904   0.947  18.912  0.00  0.00    +0.052 HD
ATOM     31  H   UNL     1       3.487   1.642  19.757  0.00  0.00    +0.052 HD
ATOM     32  H   UNL     1       3.330   0.128  18.848  0.00  0.00    +0.052 HD
ENDBRANCH  28  29
ENDBRANCH  25  28
ENDBRANCH  22  25
ENDBRANCH   1  22
BRANCH   5  33
ATOM     33  C   UNL     1       1.872   7.915  19.333  0.00  0.00    +0.002 C 
ATOM     34  H   UNL     1       0.954   7.648  18.798  0.00  0.00    +0.043 HD
ATOM     35  H   UNL     1       2.147   8.930  19.023  0.00  0.00    +0.043 HD
BRANCH  33  36
ATOM     36  N   UNL     1       1.639   7.887  20.782  0.00  0.00    -0.310 NA
ATOM     37  H   UNL     1       1.578   6.918  21.098  0.00  0.00    +0.122 HD
BRANCH  36  38
ATOM     38  C   UNL     1       0.374   8.549  21.141  0.00  0.00    +0.040 C 
ATOM     39  H   UNL     1      -0.449   7.972  20.704  0.00  0.00    +0.049 HD
ATOM     40  H   UNL     1       0.216   8.543  22.225  0.00  0.00    +0.049 HD
BRANCH  38  41
ATOM     41  C   UNL     1       0.330   9.942  20.602  0.00  0.00    +0.074 A 
ATOM     42  C   UNL     1       1.049  11.049  21.008  0.00  0.00    +0.034 A 
ATOM     43  N   UNL     1       0.629  12.082  20.209  0.00  0.00    -0.306 N 
ATOM     44  C   UNL     1       1.029  13.416  20.200  0.00  0.00    +0.011 A 
ATOM     45  C   UNL     1       0.468  14.260  19.316  0.00  0.00    -0.045 A 
ATOM     46  C   UNL     1      -0.538  13.749  18.396  0.00  0.00    -0.057 A 
ATOM     47  C   UNL     1      -0.918  12.456  18.412  0.00  0.00    -0.019 A 
ATOM     48  C   UNL     1      -0.329  11.559  19.348  0.00  0.00    +0.138 A 
ATOM     49  N   UNL     1      -0.522  10.275  19.568  0.00  0.00    -0.231 NA
ATOM     50  H   UNL     1       1.797  11.184  21.776  0.00  0.00    +0.083 HD
ATOM     51  H   UNL     1       1.783  13.719  20.915  0.00  0.00    +0.081 HD
ATOM     52  H   UNL     1       0.743  15.308  19.266  0.00  0.00    +0.063 HD
ATOM     53  H   UNL     1      -0.977  14.445  17.688  0.00  0.00    +0.062 HD
ATOM     54  H   UNL     1      -1.665  12.072  17.728  0.00  0.00    +0.065 HD
ENDBRANCH  38  41
ENDBRANCH  36  38
ENDBRANCH  33  36
ENDBRANCH   5  33
TORSDOF 10
ENDMDL
MODEL 30
REMARK VINA RESULT:    -5.788      3.846      8.686
REMARK INTER + INTRA:          -9.784
REMARK INTER:                  -8.823
REMARK INTRA:                  -0.961
REMARK UNBOUND:                -0.951
REMARK  Name = 
REMARK  10 active torsions:
REMARK  status: ('A' for Active; 'I' for Inactive)
REMARK    1  A    between atoms: C_1  and  O_2
REMARK    2  A    between atoms: O_2  and  C_3
REMARK    3  A    between atoms: C_3  and  C_4
REMARK    4  A    between atoms: C_4  and  N_5
REMARK    5  A    between atoms: C_9  and  C_10
REMARK    6  A    between atoms: C_10  and  N_11
REMARK    7  A    between atoms: N_11  and  C_12
REMARK    8  A    between atoms: C_12  and  C_13
REMARK    9  A    between atoms: C_22  and  C_23
REMARK   10  A    between atoms: N_26  and  C_27
REMARK                            x       y       z     vdW  Elec       q    Type
REMARK                         _______ _______ _______ _____ _____    ______ ____
ROOT
ATOM      1  N   UNL     1      -0.277  12.608  18.988  0.00  0.00    -0.292 N 
ATOM      2  C   UNL     1      -1.131  11.511  18.978  0.00  0.00    +0.217 C 
ATOM      3  O   UNL     1      -2.347  11.526  19.098  0.00  0.00    -0.276 OA
ATOM      4  C   UNL     1      -0.321  10.270  18.699  0.00  0.00    +0.030 C 
ATOM      5  C   UNL     1       1.123  10.741  18.882  0.00  0.00    +0.003 C 
ATOM      6  C   UNL     1       1.052  12.234  18.540  0.00  0.00    +0.059 C 
ATOM      7  H   UNL     1      -0.546   9.940  17.681  0.00  0.00    +0.036 HD
ATOM      8  H   UNL     1      -0.576   9.480  19.410  0.00  0.00    +0.036 HD
ATOM      9  H   UNL     1       1.366  10.616  19.948  0.00  0.00    +0.034 HD
ATOM     10  H   UNL     1       1.062  12.389  17.454  0.00  0.00    +0.055 HD
ENDROOT
BRANCH   6  11
ATOM     11  C   UNL     1       2.123  13.052  19.178  0.00  0.00    +0.011 A 
ATOM     12  C   UNL     1       3.039  13.945  18.571  0.00  0.00    +0.054 A 
ATOM     13  N   UNL     1       3.849  14.535  19.453  0.00  0.00    -0.180 NA
ATOM     14  N   UNL     1       3.458  14.025  20.633  0.00  0.00    -0.274 N 
ATOM     15  C   UNL     1       2.434  13.131  20.523  0.00  0.00    +0.030 A 
ATOM     16  H   UNL     1       3.149  14.182  17.518  0.00  0.00    +0.085 HD
ATOM     17  H   UNL     1       2.006  12.644  21.388  0.00  0.00    +0.083 HD
BRANCH  14  18
ATOM     18  C   UNL     1       4.112  14.455  21.844  0.00  0.00    +0.030 C 
ATOM     19  H   UNL     1       3.707  13.879  22.679  0.00  0.00    +0.047 HD
ATOM     20  H   UNL     1       3.921  15.520  22.000  0.00  0.00    +0.047 HD
ATOM     21  H   UNL     1       5.185  14.279  21.736  0.00  0.00    +0.047 HD
ENDBRANCH  14  18
ENDBRANCH   6  11
BRANCH   1  22
ATOM     22  C   UNL     1      -0.785  13.978  18.952  0.00  0.00    +0.039 C 
ATOM     23  H   UNL     1      -1.719  13.976  18.380  0.00  0.00    +0.049 HD
ATOM     24  H   UNL     1      -0.076  14.600  18.396  0.00  0.00    +0.049 HD
BRANCH  22  25
ATOM     25  C   UNL     1      -1.045  14.579  20.341  0.00  0.00    +0.063 C 
ATOM     26  H   UNL     1      -0.923  15.669  20.309  0.00  0.00    +0.058 HD
ATOM     27  H   UNL     1      -0.303  14.208  21.052  0.00  0.00    +0.058 HD
BRANCH  25  28
ATOM     28  O   UNL     1      -2.326  14.249  20.881  0.00  0.00    -0.381 OA
BRANCH  28  29
ATOM     29  C   UNL     1      -2.252  13.507  22.090  0.00  0.00    +0.037 C 
ATOM     30  H   UNL     1      -1.846  12.508  21.897  0.00  0.00    +0.052 HD
ATOM     31  H   UNL     1      -1.643  14.016  22.839  0.00  0.00    +0.052 HD
ATOM     32  H   UNL     1      -3.265  13.397  22.485  0.00  0.00    +0.052 HD
ENDBRANCH  28  29
ENDBRANCH  25  28
ENDBRANCH  22  25
ENDBRANCH   1  22
BRANCH   5  33
ATOM     33  C   UNL     1       2.170   9.954  18.085  0.00  0.00    +0.002 C 
ATOM     34  H   UNL     1       3.106   9.953  18.655  0.00  0.00    +0.043 HD
ATOM     35  H   UNL     1       2.358  10.492  17.149  0.00  0.00    +0.043 HD
BRANCH  33  36
ATOM     36  N   UNL     1       1.756   8.577  17.791  0.00  0.00    -0.310 NA
ATOM     37  H   UNL     1       1.099   8.259  18.503  0.00  0.00    +0.122 HD
BRANCH  36  38
ATOM     38  C   UNL     1       2.902   7.653  17.804  0.00  0.00    +0.040 C 
ATOM     39  H   UNL     1       3.151   7.403  16.766  0.00  0.00    +0.049 HD
ATOM     40  H   UNL     1       3.792   8.128  18.230  0.00  0.00    +0.049 HD
BRANCH  38  41
ATOM     41  C   UNL     1       2.565   6.395  18.538  0.00  0.00    +0.074 A 
ATOM     42  C   UNL     1       2.454   6.193  19.900  0.00  0.00    +0.034 A 
ATOM     43  N   UNL     1       2.146   4.866  20.058  0.00  0.00    -0.306 N 
ATOM     44  C   UNL     1       1.928   4.137  21.225  0.00  0.00    +0.011 A 
ATOM     45  C   UNL     1       1.638   2.827  21.133  0.00  0.00    -0.045 A 
ATOM     46  C   UNL     1       1.559   2.215  19.814  0.00  0.00    -0.057 A 
ATOM     47  C   UNL     1       1.770   2.929  18.691  0.00  0.00    -0.019 A 
ATOM     48  C   UNL     1       2.081   4.315  18.783  0.00  0.00    +0.138 A 
ATOM     49  N   UNL     1       2.329   5.218  17.857  0.00  0.00    -0.231 NA
ATOM     50  H   UNL     1       2.569   6.860  20.742  0.00  0.00    +0.083 HD
ATOM     51  H   UNL     1       2.005   4.665  22.167  0.00  0.00    +0.081 HD
ATOM     52  H   UNL     1       1.460   2.214  22.010  0.00  0.00    +0.063 HD
ATOM     53  H   UNL     1       1.321   1.157  19.761  0.00  0.00    +0.062 HD
ATOM     54  H   UNL     1       1.711   2.476  17.707  0.00  0.00    +0.065 HD
ENDBRANCH  38  41
ENDBRANCH  36  38
ENDBRANCH  33  36
ENDBRANCH   5  33
TORSDOF 10
ENDMDL
MODEL 31
REMARK VINA RESULT:    -5.775      3.283      8.778
REMARK INTER + INTRA:          -9.765
REMARK INTER:                  -8.967
REMARK INTRA:                  -0.798
REMARK UNBOUND:                -0.951
REMARK  Name = 
REMARK  10 active torsions:
REMARK  status: ('A' for Active; 'I' for Inactive)
REMARK    1  A    between atoms: C_1  and  O_2
REMARK    2  A    between atoms: O_2  and  C_3
REMARK    3  A    between atoms: C_3  and  C_4
REMARK    4  A    between atoms: C_4  and  N_5
REMARK    5  A    between atoms: C_9  and  C_10
REMARK    6  A    between atoms: C_10  and  N_11
REMARK    7  A    between atoms: N_11  and  C_12
REMARK    8  A    between atoms: C_12  and  C_13
REMARK    9  A    between atoms: C_22  and  C_23
REMARK   10  A    between atoms: N_26  and  C_27
REMARK                            x       y       z     vdW  Elec       q    Type
REMARK                         _______ _______ _______ _____ _____    ______ ____
ROOT
ATOM      1  N   UNL     1      -0.358  11.907  21.712  0.00  0.00    -0.292 N 
ATOM      2  C   UNL     1      -0.694  10.731  22.375  0.00  0.00    +0.217 C 
ATOM      3  O   UNL     1      -1.396  10.623  23.369  0.00  0.00    -0.276 OA
ATOM      4  C   UNL     1      -0.119   9.565  21.610  0.00  0.00    +0.030 C 
ATOM      5  C   UNL     1       0.854  10.227  20.633  0.00  0.00    +0.003 C 
ATOM      6  C   UNL     1       0.250  11.621  20.426  0.00  0.00    +0.059 C 
ATOM      7  H   UNL     1      -0.944   9.043  21.118  0.00  0.00    +0.036 HD
ATOM      8  H   UNL     1       0.400   8.883  22.289  0.00  0.00    +0.036 HD
ATOM      9  H   UNL     1       1.820  10.314  21.154  0.00  0.00    +0.034 HD
ATOM     10  H   UNL     1      -0.572  11.590  19.700  0.00  0.00    +0.055 HD
ENDROOT
BRANCH   6  11
ATOM     11  C   UNL     1       1.244  12.656  20.020  0.00  0.00    +0.011 A 
ATOM     12  C   UNL     1       2.299  13.220  20.778  0.00  0.00    +0.054 A 
ATOM     13  N   UNL     1       3.017  14.107  20.085  0.00  0.00    -0.180 NA
ATOM     14  N   UNL     1       2.429  14.117  18.877  0.00  0.00    -0.274 N 
ATOM     15  C   UNL     1       1.364  13.272  18.787  0.00  0.00    +0.030 A 
ATOM     16  H   UNL     1       2.565  13.022  21.810  0.00  0.00    +0.085 HD
ATOM     17  H   UNL     1       0.795  13.165  17.874  0.00  0.00    +0.083 HD
BRANCH  14  18
ATOM     18  C   UNL     1       2.958  14.965  17.838  0.00  0.00    +0.030 C 
ATOM     19  H   UNL     1       2.721  16.002  18.083  0.00  0.00    +0.047 HD
ATOM     20  H   UNL     1       2.501  14.695  16.882  0.00  0.00    +0.047 HD
ATOM     21  H   UNL     1       4.040  14.817  17.790  0.00  0.00    +0.047 HD
ENDBRANCH  14  18
ENDBRANCH   6  11
BRANCH   1  22
ATOM     22  C   UNL     1      -0.994  13.181  22.039  0.00  0.00    +0.039 C 
ATOM     23  H   UNL     1      -0.218  13.954  22.048  0.00  0.00    +0.049 HD
ATOM     24  H   UNL     1      -1.393  13.123  23.057  0.00  0.00    +0.049 HD
BRANCH  22  25
ATOM     25  C   UNL     1      -2.102  13.591  21.056  0.00  0.00    +0.063 C 
ATOM     26  H   UNL     1      -1.671  13.807  20.071  0.00  0.00    +0.058 HD
ATOM     27  H   UNL     1      -2.575  14.516  21.394  0.00  0.00    +0.058 HD
BRANCH  25  28
ATOM     28  O   UNL     1      -3.146  12.623  20.929  0.00  0.00    -0.381 OA
BRANCH  28  29
ATOM     29  C   UNL     1      -3.396  12.241  19.583  0.00  0.00    +0.037 C 
ATOM     30  H   UNL     1      -3.684  13.115  18.989  0.00  0.00    +0.052 HD
ATOM     31  H   UNL     1      -2.527  11.757  19.134  0.00  0.00    +0.052 HD
ATOM     32  H   UNL     1      -4.227  11.531  19.579  0.00  0.00    +0.052 HD
ENDBRANCH  28  29
ENDBRANCH  25  28
ENDBRANCH  22  25
ENDBRANCH   1  22
BRANCH   5  33
ATOM     33  C   UNL     1       1.109   9.445  19.339  0.00  0.00    +0.002 C 
ATOM     34  H   UNL     1       1.600  10.115  18.624  0.00  0.00    +0.043 HD
ATOM     35  H   UNL     1       0.137   9.169  18.913  0.00  0.00    +0.043 HD
BRANCH  33  36
ATOM     36  N   UNL     1       1.922   8.240  19.543  0.00  0.00    -0.310 NA
ATOM     37  H   UNL     1       2.768   8.483  20.058  0.00  0.00    +0.122 HD
BRANCH  36  38
ATOM     38  C   UNL     1       2.339   7.646  18.263  0.00  0.00    +0.040 C 
ATOM     39  H   UNL     1       1.498   7.716  17.563  0.00  0.00    +0.049 HD
ATOM     40  H   UNL     1       3.165   8.208  17.813  0.00  0.00    +0.049 HD
BRANCH  38  41
ATOM     41  C   UNL     1       2.706   6.207  18.437  0.00  0.00    +0.074 A 
ATOM     42  C   UNL     1       3.684   5.656  19.242  0.00  0.00    +0.034 A 
ATOM     43  N   UNL     1       3.627   4.302  19.027  0.00  0.00    -0.306 N 
ATOM     44  C   UNL     1       4.395   3.282  19.584  0.00  0.00    +0.011 A 
ATOM     45  C   UNL     1       4.158   2.011  19.214  0.00  0.00    -0.045 A 
ATOM     46  C   UNL     1       3.105   1.744  18.245  0.00  0.00    -0.057 A 
ATOM     47  C   UNL     1       2.367   2.739  17.713  0.00  0.00    -0.019 A 
ATOM     48  C   UNL     1       2.615   4.087  18.098  0.00  0.00    +0.138 A 
ATOM     49  N   UNL     1       2.050   5.218  17.732  0.00  0.00    -0.231 NA
ATOM     50  H   UNL     1       4.393   6.100  19.925  0.00  0.00    +0.083 HD
ATOM     51  H   UNL     1       5.159   3.561  20.298  0.00  0.00    +0.081 HD
ATOM     52  H   UNL     1       4.726   1.179  19.616  0.00  0.00    +0.063 HD
ATOM     53  H   UNL     1       2.927   0.711  17.961  0.00  0.00    +0.062 HD
ATOM     54  H   UNL     1       1.581   2.543  16.992  0.00  0.00    +0.065 HD
ENDBRANCH  38  41
ENDBRANCH  36  38
ENDBRANCH  33  36
ENDBRANCH   5  33
TORSDOF 10
ENDMDL
MODEL 32
REMARK VINA RESULT:    -5.660      3.721      9.659
REMARK INTER + INTRA:          -9.589
REMARK INTER:                  -8.652
REMARK INTRA:                  -0.937
REMARK UNBOUND:                -0.951
REMARK  Name = 
REMARK  10 active torsions:
REMARK  status: ('A' for Active; 'I' for Inactive)
REMARK    1  A    between atoms: C_1  and  O_2
REMARK    2  A    between atoms: O_2  and  C_3
REMARK    3  A    between atoms: C_3  and  C_4
REMARK    4  A    between atoms: C_4  and  N_5
REMARK    5  A    between atoms: C_9  and  C_10
REMARK    6  A    between atoms: C_10  and  N_11
REMARK    7  A    between atoms: N_11  and  C_12
REMARK    8  A    between atoms: C_12  and  C_13
REMARK    9  A    between atoms: C_22  and  C_23
REMARK   10  A    between atoms: N_26  and  C_27
REMARK                            x       y       z     vdW  Elec       q    Type
REMARK                         _______ _______ _______ _____ _____    ______ ____
ROOT
ATOM      1  N   UNL     1       0.474  13.187  20.050  0.00  0.00    -0.292 N 
ATOM      2  C   UNL     1       1.269  12.780  18.985  0.00  0.00    +0.217 C 
ATOM      3  O   UNL     1       1.944  13.493  18.257  0.00  0.00    -0.276 OA
ATOM      4  C   UNL     1       1.248  11.273  18.914  0.00  0.00    +0.030 C 
ATOM      5  C   UNL     1       0.094  10.892  19.843  0.00  0.00    +0.003 C 
ATOM      6  C   UNL     1       0.054  12.049  20.847  0.00  0.00    +0.059 C 
ATOM      7  H   UNL     1       2.220  10.904  19.251  0.00  0.00    +0.036 HD
ATOM      8  H   UNL     1       1.060  10.943  17.889  0.00  0.00    +0.036 HD
ATOM      9  H   UNL     1      -0.822  10.897  19.233  0.00  0.00    +0.034 HD
ATOM     10  H   UNL     1       0.818  11.923  21.624  0.00  0.00    +0.055 HD
ENDROOT
BRANCH   6  11
ATOM     11  C   UNL     1      -1.281  12.254  21.480  0.00  0.00    +0.011 A 
ATOM     12  C   UNL     1      -2.523  12.536  20.861  0.00  0.00    +0.054 A 
ATOM     13  N   UNL     1      -3.527  12.632  21.736  0.00  0.00    -0.180 NA
ATOM     14  N   UNL     1      -2.937  12.409  22.921  0.00  0.00    -0.274 N 
ATOM     15  C   UNL     1      -1.596  12.183  22.824  0.00  0.00    +0.030 A 
ATOM     16  H   UNL     1      -2.730  12.683  19.807  0.00  0.00    +0.085 HD
ATOM     17  H   UNL     1      -0.987  11.981  23.694  0.00  0.00    +0.083 HD
BRANCH  14  18
ATOM     18  C   UNL     1      -3.734  12.416  24.123  0.00  0.00    +0.030 C 
ATOM     19  H   UNL     1      -4.769  12.632  23.850  0.00  0.00    +0.047 HD
ATOM     20  H   UNL     1      -3.361  13.188  24.802  0.00  0.00    +0.047 HD
ATOM     21  H   UNL     1      -3.655  11.434  24.594  0.00  0.00    +0.047 HD
ENDBRANCH  14  18
ENDBRANCH   6  11
BRANCH   1  22
ATOM     22  C   UNL     1       0.509  14.557  20.555  0.00  0.00    +0.039 C 
ATOM     23  H   UNL     1      -0.471  14.783  20.988  0.00  0.00    +0.049 HD
ATOM     24  H   UNL     1       0.645  15.240  19.709  0.00  0.00    +0.049 HD
BRANCH  22  25
ATOM     25  C   UNL     1       1.596  14.800  21.614  0.00  0.00    +0.063 C 
ATOM     26  H   UNL     1       1.687  13.924  22.269  0.00  0.00    +0.058 HD
ATOM     27  H   UNL     1       1.308  15.635  22.257  0.00  0.00    +0.058 HD
BRANCH  25  28
ATOM     28  O   UNL     1       2.872  15.132  21.064  0.00  0.00    -0.381 OA
BRANCH  28  29
ATOM     29  C   UNL     1       3.905  14.242  21.465  0.00  0.00    +0.037 C 
ATOM     30  H   UNL     1       4.385  13.798  20.587  0.00  0.00    +0.052 HD
ATOM     31  H   UNL     1       4.652  14.744  22.082  0.00  0.00    +0.052 HD
ATOM     32  H   UNL     1       3.453  13.440  22.054  0.00  0.00    +0.052 HD
ENDBRANCH  28  29
ENDBRANCH  25  28
ENDBRANCH  22  25
ENDBRANCH   1  22
BRANCH   5  33
ATOM     33  C   UNL     1       0.205   9.501  20.479  0.00  0.00    +0.002 C 
ATOM     34  H   UNL     1      -0.735   8.966  20.300  0.00  0.00    +0.043 HD
ATOM     35  H   UNL     1       0.306   9.631  21.563  0.00  0.00    +0.043 HD
BRANCH  33  36
ATOM     36  N   UNL     1       1.336   8.720  19.965  0.00  0.00    -0.310 NA
ATOM     37  H   UNL     1       1.083   8.302  19.070  0.00  0.00    +0.122 HD
BRANCH  36  38
ATOM     38  C   UNL     1       1.696   7.623  20.879  0.00  0.00    +0.040 C 
ATOM     39  H   UNL     1       2.649   7.876  21.358  0.00  0.00    +0.049 HD
ATOM     40  H   UNL     1       0.961   7.519  21.685  0.00  0.00    +0.049 HD
BRANCH  38  41
ATOM     41  C   UNL     1       1.855   6.337  20.132  0.00  0.00    +0.074 A 
ATOM     42  C   UNL     1       2.529   6.103  18.950  0.00  0.00    +0.034 A 
ATOM     43  N   UNL     1       2.360   4.768  18.681  0.00  0.00    -0.306 N 
ATOM     44  C   UNL     1       2.830   4.012  17.610  0.00  0.00    +0.011 A 
ATOM     45  C   UNL     1       2.532   2.702  17.555  0.00  0.00    -0.045 A 
ATOM     46  C   UNL     1       1.729   2.117  18.620  0.00  0.00    -0.057 A 
ATOM     47  C   UNL     1       1.279   2.858  19.653  0.00  0.00    -0.019 A 
ATOM     48  C   UNL     1       1.590   4.246  19.714  0.00  0.00    +0.138 A 
ATOM     49  N   UNL     1       1.277   5.172  20.595  0.00  0.00    -0.231 NA
ATOM     50  H   UNL     1       3.093   6.753  18.297  0.00  0.00    +0.083 HD
ATOM     51  H   UNL     1       3.421   4.519  16.858  0.00  0.00    +0.081 HD
ATOM     52  H   UNL     1       2.872   2.067  16.744  0.00  0.00    +0.063 HD
ATOM     53  H   UNL     1       1.501   1.057  18.559  0.00  0.00    +0.062 HD
ATOM     54  H   UNL     1       0.683   2.425  20.448  0.00  0.00    +0.065 HD
ENDBRANCH  38  41
ENDBRANCH  36  38
ENDBRANCH  33  36
ENDBRANCH   5  33
TORSDOF 10
ENDMDL
MODEL 33
REMARK VINA RESULT:    -5.610      4.061      8.838
REMARK INTER + INTRA:          -9.512
REMARK INTER:                  -8.561
REMARK INTRA:                  -0.951
REMARK UNBOUND:                -0.951
REMARK  Name = 
REMARK  10 active torsions:
REMARK  status: ('A' for Active; 'I' for Inactive)
REMARK    1  A    between atoms: C_1  and  O_2
REMARK    2  A    between atoms: O_2  and  C_3
REMARK    3  A    between atoms: C_3  and  C_4
REMARK    4  A    between atoms: C_4  and  N_5
REMARK    5  A    between atoms: C_9  and  C_10
REMARK    6  A    between atoms: C_10  and  N_11
REMARK    7  A    between atoms: N_11  and  C_12
REMARK    8  A    between atoms: C_12  and  C_13
REMARK    9  A    between atoms: C_22  and  C_23
REMARK   10  A    between atoms: N_26  and  C_27
REMARK                            x       y       z     vdW  Elec       q    Type
REMARK                         _______ _______ _______ _____ _____    ______ ____
ROOT
ATOM      1  N   UNL     1      -0.907  12.457  19.686  0.00  0.00    -0.292 N 
ATOM      2  C   UNL     1       0.305  13.010  20.084  0.00  0.00    +0.217 C 
ATOM      3  O   UNL     1       0.472  14.067  20.673  0.00  0.00    -0.276 OA
ATOM      4  C   UNL     1       1.411  12.040  19.751  0.00  0.00    +0.030 C 
ATOM      5  C   UNL     1       0.730  11.031  18.825  0.00  0.00    +0.003 C 
ATOM      6  C   UNL     1      -0.735  11.076  19.272  0.00  0.00    +0.059 C 
ATOM      7  H   UNL     1       1.771  11.601  20.686  0.00  0.00    +0.036 HD
ATOM      8  H   UNL     1       2.231  12.556  19.244  0.00  0.00    +0.036 HD
ATOM      9  H   UNL     1       0.819  11.426  17.802  0.00  0.00    +0.034 HD
ATOM     10  H   UNL     1      -0.891  10.468  20.171  0.00  0.00    +0.055 HD
ENDROOT
BRANCH   6  11
ATOM     11  C   UNL     1      -1.703  10.671  18.213  0.00  0.00    +0.011 A 
ATOM     12  C   UNL     1      -2.721   9.688  18.268  0.00  0.00    +0.054 A 
ATOM     13  N   UNL     1      -3.425   9.607  17.136  0.00  0.00    -0.180 NA
ATOM     14  N   UNL     1      -2.864  10.539  16.347  0.00  0.00    -0.274 N 
ATOM     15  C   UNL     1      -1.830  11.199  16.941  0.00  0.00    +0.030 A 
ATOM     16  H   UNL     1      -2.969   9.025  19.089  0.00  0.00    +0.085 HD
ATOM     17  H   UNL     1      -1.286  11.983  16.432  0.00  0.00    +0.083 HD
BRANCH  14  18
ATOM     18  C   UNL     1      -3.388  10.754  15.021  0.00  0.00    +0.030 C 
ATOM     19  H   UNL     1      -2.876  11.613  14.582  0.00  0.00    +0.047 HD
ATOM     20  H   UNL     1      -4.461  10.954  15.083  0.00  0.00    +0.047 HD
ATOM     21  H   UNL     1      -3.209   9.853  14.430  0.00  0.00    +0.047 HD
ENDBRANCH  14  18
ENDBRANCH   6  11
BRANCH   1  22
ATOM     22  C   UNL     1      -2.185  13.017  20.117  0.00  0.00    +0.039 C 
ATOM     23  H   UNL     1      -2.943  12.740  19.376  0.00  0.00    +0.049 HD
ATOM     24  H   UNL     1      -2.113  14.110  20.101  0.00  0.00    +0.049 HD
BRANCH  22  25
ATOM     25  C   UNL     1      -2.637  12.535  21.504  0.00  0.00    +0.063 C 
ATOM     26  H   UNL     1      -1.874  12.774  22.254  0.00  0.00    +0.058 HD
ATOM     27  H   UNL     1      -2.738  11.447  21.504  0.00  0.00    +0.058 HD
BRANCH  25  28
ATOM     28  O   UNL     1      -3.902  13.061  21.912  0.00  0.00    -0.381 OA
BRANCH  28  29
ATOM     29  C   UNL     1      -4.976  12.654  21.075  0.00  0.00    +0.037 C 
ATOM     30  H   UNL     1      -5.553  13.526  20.749  0.00  0.00    +0.052 HD
ATOM     31  H   UNL     1      -4.621  12.098  20.206  0.00  0.00    +0.052 HD
ATOM     32  H   UNL     1      -5.634  12.003  21.657  0.00  0.00    +0.052 HD
ENDBRANCH  28  29
ENDBRANCH  25  28
ENDBRANCH  22  25
ENDBRANCH   1  22
BRANCH   5  33
ATOM     33  C   UNL     1       1.352   9.629  18.822  0.00  0.00    +0.002 C 
ATOM     34  H   UNL     1       2.441   9.736  18.879  0.00  0.00    +0.043 HD
ATOM     35  H   UNL     1       1.119   9.156  17.861  0.00  0.00    +0.043 HD
BRANCH  33  36
ATOM     36  N   UNL     1       0.871   8.782  19.921  0.00  0.00    -0.310 NA
ATOM     37  H   UNL     1       0.471   9.368  20.653  0.00  0.00    +0.122 HD
BRANCH  36  38
ATOM     38  C   UNL     1       1.965   8.004  20.525  0.00  0.00    +0.040 C 
ATOM     39  H   UNL     1       2.913   8.483  20.254  0.00  0.00    +0.049 HD
ATOM     40  H   UNL     1       1.909   8.023  21.619  0.00  0.00    +0.049 HD
BRANCH  38  41
ATOM     41  C   UNL     1       1.967   6.599  20.014  0.00  0.00    +0.074 A 
ATOM     42  C   UNL     1       2.433   6.121  18.805  0.00  0.00    +0.034 A 
ATOM     43  N   UNL     1       2.188   4.771  18.817  0.00  0.00    -0.306 N 
ATOM     44  C   UNL     1       2.458   3.811  17.845  0.00  0.00    +0.011 A 
ATOM     45  C   UNL     1       2.121   2.530  18.081  0.00  0.00    -0.045 A 
ATOM     46  C   UNL     1       1.486   2.191  19.347  0.00  0.00    -0.057 A 
ATOM     47  C   UNL     1       1.230   3.128  20.282  0.00  0.00    -0.019 A 
ATOM     48  C   UNL     1       1.583   4.485  20.036  0.00  0.00    +0.138 A 
ATOM     49  N   UNL     1       1.441   5.570  20.768  0.00  0.00    -0.231 NA
ATOM     50  H   UNL     1       2.900   6.612  17.964  0.00  0.00    +0.083 HD
ATOM     51  H   UNL     1       2.933   4.142  16.931  0.00  0.00    +0.081 HD
ATOM     52  H   UNL     1       2.308   1.743  17.358  0.00  0.00    +0.063 HD
ATOM     53  H   UNL     1       1.224   1.151  19.519  0.00  0.00    +0.062 HD
ATOM     54  H   UNL     1       0.759   2.878  21.226  0.00  0.00    +0.065 HD
ENDBRANCH  38  41
ENDBRANCH  36  38
ENDBRANCH  33  36
ENDBRANCH   5  33
TORSDOF 10
ENDMDL
