MODEL 1
REMARK VINA RESULT:    -8.313      0.000      0.000
REMARK INTER + INTRA:         -10.738
REMARK INTER:                 -10.174
REMARK INTRA:                  -0.563
REMARK UNBOUND:                 0.005
REMARK  Name = 
REMARK  5 active torsions:
REMARK  status: ('A' for Active; 'I' for Inactive)
REMARK    1  A    between atoms: C_2  and  C_19
REMARK    2  A    between atoms: N_3  and  C_4
REMARK    3  A    between atoms: C_9  and  C_11
REMARK    4  A    between atoms: C_11  and  C_12
REMARK    5  A    between atoms: C_24  and  C_25
REMARK                            x       y       z     vdW  Elec       q    Type
REMARK                         _______ _______ _______ _____ _____    ______ ____
ROOT
ATOM      1  C   UNL     1       1.575   4.113  20.420  0.00  0.00    +0.039 C 
ATOM      2  C   UNL     1       0.487   3.145  19.922  0.00  0.00    -0.032 C 
ATOM      3  C   UNL     1       0.979   2.186  18.835  0.00  0.00    -0.035 C 
ATOM      4  C   UNL     1       2.053   2.806  17.953  0.00  0.00    +0.015 C 
ATOM      5  N   UNL     1       3.199   3.285  18.723  0.00  0.00    -0.299 N 
ATOM      6  C   UNL     1       4.363   3.603  18.025  0.00  0.00    +0.220 C 
ATOM      7  O   UNL     1       4.384   3.586  16.792  0.00  0.00    -0.275 OA
ATOM      8  C   UNL     1       2.985   3.549  20.156  0.00  0.00    +0.033 C 
ATOM      9  H   UNL     1       1.447   4.263  21.498  0.00  0.00    +0.051 HD
ATOM     10  H   UNL     1       0.125   2.542  20.765  0.00  0.00    +0.028 HD
ATOM     11  H   UNL     1      -0.382   3.702  19.554  0.00  0.00    +0.028 HD
ATOM     12  H   UNL     1       1.391   1.289  19.318  0.00  0.00    +0.028 HD
ATOM     13  H   UNL     1       0.134   1.845  18.226  0.00  0.00    +0.028 HD
ATOM     14  H   UNL     1       1.648   3.660  17.397  0.00  0.00    +0.046 HD
ATOM     15  H   UNL     1       2.402   2.075  17.213  0.00  0.00    +0.046 HD
ATOM     16  H   UNL     1       3.740   4.241  20.535  0.00  0.00    +0.048 HD
ATOM     17  H   UNL     1       3.116   2.597  20.682  0.00  0.00    +0.048 HD
ENDROOT
BRANCH   1  20
ATOM     18  O   UNL     1       2.353   6.592  21.529  0.00  0.00    -0.270 OA
ATOM     19  C   UNL     1       1.841   6.571  20.418  0.00  0.00    +0.246 C 
ATOM     20  N   UNL     1       1.411   5.426  19.789  0.00  0.00    -0.307 N 
ATOM     21  H   UNL     1       1.250   5.441  18.787  0.00  0.00    +0.149 HD
BRANCH  19  22
ATOM     22  C   UNL     1       1.724   7.823  19.646  0.00  0.00    +0.067 A 
ATOM     23  C   UNL     1       2.440   7.908  18.444  0.00  0.00    -0.046 A 
ATOM     24  C   UNL     1       2.344   9.055  17.665  0.00  0.00    -0.043 A 
ATOM     25  C   UNL     1       1.546  10.088  18.119  0.00  0.00    +0.028 A 
ATOM     26  N   UNL     1       0.862  10.048  19.285  0.00  0.00    -0.250 NA
ATOM     27  C   UNL     1       0.964   8.920  20.059  0.00  0.00    +0.156 A 
ATOM     28  H   UNL     1       3.058   7.076  18.114  0.00  0.00    +0.063 HD
ATOM     29  H   UNL     1       2.873   9.134  16.722  0.00  0.00    +0.063 HD
ATOM     30  H   UNL     1       1.430  11.003  17.543  0.00  0.00    +0.083 HD
BRANCH  27  31
ATOM     31  C   UNL     1       0.206   8.889  21.376  0.00  0.00    +0.435 C 
ATOM     32  F   UNL     1      -0.611   9.978  21.521  0.00  0.00    -0.164 F 
ATOM     33  F   UNL     1      -0.596   7.796  21.525  0.00  0.00    -0.164 F 
ATOM     34  F   UNL     1       1.011   8.892  22.479  0.00  0.00    -0.164 F 
ENDBRANCH  27  31
ENDBRANCH  19  22
ENDBRANCH   1  20
BRANCH   6  35
ATOM     35  C   UNL     1       5.585   3.985  18.854  0.00  0.00    +0.049 C 
ATOM     36  H   UNL     1       6.339   3.190  18.791  0.00  0.00    +0.041 HD
ATOM     37  H   UNL     1       5.276   4.061  19.904  0.00  0.00    +0.041 HD
BRANCH  35  38
ATOM     38  C   UNL     1       6.245   5.275  18.425  0.00  0.00    -0.039 A 
ATOM     39  C   UNL     1       7.479   5.663  18.962  0.00  0.00    -0.058 A 
ATOM     40  C   UNL     1       8.082   6.857  18.563  0.00  0.00    -0.061 A 
ATOM     41  C   UNL     1       7.452   7.676  17.627  0.00  0.00    -0.062 A 
ATOM     42  C   UNL     1       6.218   7.307  17.095  0.00  0.00    -0.061 A 
ATOM     43  C   UNL     1       5.615   6.115  17.494  0.00  0.00    -0.058 A 
ATOM     44  H   UNL     1       7.977   5.041  19.703  0.00  0.00    +0.062 HD
ATOM     45  H   UNL     1       9.038   7.151  18.986  0.00  0.00    +0.062 HD
ATOM     46  H   UNL     1       7.920   8.608  17.320  0.00  0.00    +0.062 HD
ATOM     47  H   UNL     1       5.722   7.953  16.376  0.00  0.00    +0.062 HD
ATOM     48  H   UNL     1       4.647   5.845  17.077  0.00  0.00    +0.062 HD
ENDBRANCH  35  38
ENDBRANCH   6  35
TORSDOF 5
ENDMDL
MODEL 2
REMARK VINA RESULT:    -7.568      2.149      2.765
REMARK INTER + INTRA:          -9.775
REMARK INTER:                 -10.024
REMARK INTRA:                   0.249
REMARK UNBOUND:                 0.005
REMARK  Name = 
REMARK  5 active torsions:
REMARK  status: ('A' for Active; 'I' for Inactive)
REMARK    1  A    between atoms: C_2  and  C_19
REMARK    2  A    between atoms: N_3  and  C_4
REMARK    3  A    between atoms: C_9  and  C_11
REMARK    4  A    between atoms: C_11  and  C_12
REMARK    5  A    between atoms: C_24  and  C_25
REMARK                            x       y       z     vdW  Elec       q    Type
REMARK                         _______ _______ _______ _____ _____    ______ ____
ROOT
ATOM      1  C   UNL     1       3.240   3.486  20.452  0.00  0.00    +0.039 C 
ATOM      2  C   UNL     1       1.989   2.690  20.042  0.00  0.00    -0.032 C 
ATOM      3  C   UNL     1       2.040   2.178  18.600  0.00  0.00    -0.035 C 
ATOM      4  C   UNL     1       2.812   3.111  17.678  0.00  0.00    +0.015 C 
ATOM      5  N   UNL     1       4.174   3.360  18.147  0.00  0.00    -0.299 N 
ATOM      6  C   UNL     1       5.069   3.951  17.257  0.00  0.00    +0.220 C 
ATOM      7  O   UNL     1       4.690   4.351  16.154  0.00  0.00    -0.275 OA
ATOM      8  C   UNL     1       4.450   3.114  19.572  0.00  0.00    +0.033 C 
ATOM      9  H   UNL     1       3.477   3.258  21.498  0.00  0.00    +0.051 HD
ATOM     10  H   UNL     1       1.879   1.821  20.704  0.00  0.00    +0.028 HD
ATOM     11  H   UNL     1       1.087   3.295  20.185  0.00  0.00    +0.028 HD
ATOM     12  H   UNL     1       2.526   1.193  18.594  0.00  0.00    +0.028 HD
ATOM     13  H   UNL     1       1.024   2.022  18.221  0.00  0.00    +0.028 HD
ATOM     14  H   UNL     1       2.306   4.082  17.603  0.00  0.00    +0.046 HD
ATOM     15  H   UNL     1       2.855   2.691  16.666  0.00  0.00    +0.046 HD
ATOM     16  H   UNL     1       5.331   3.675  19.894  0.00  0.00    +0.048 HD
ATOM     17  H   UNL     1       4.681   2.048  19.677  0.00  0.00    +0.048 HD
ENDROOT
BRANCH   1  20
ATOM     18  O   UNL     1       0.686   4.692  20.477  0.00  0.00    -0.270 OA
ATOM     19  C   UNL     1       1.679   5.404  20.420  0.00  0.00    +0.246 C 
ATOM     20  N   UNL     1       2.968   4.925  20.386  0.00  0.00    -0.307 N 
ATOM     21  H   UNL     1       3.736   5.552  20.608  0.00  0.00    +0.149 HD
BRANCH  19  22
ATOM     22  C   UNL     1       1.529   6.871  20.457  0.00  0.00    +0.067 A 
ATOM     23  C   UNL     1       0.914   7.428  21.586  0.00  0.00    -0.046 A 
ATOM     24  C   UNL     1       0.771   8.807  21.683  0.00  0.00    -0.043 A 
ATOM     25  C   UNL     1       1.235   9.587  20.641  0.00  0.00    +0.028 A 
ATOM     26  N   UNL     1       1.811   9.080  19.527  0.00  0.00    -0.250 NA
ATOM     27  C   UNL     1       1.943   7.718  19.426  0.00  0.00    +0.156 A 
ATOM     28  H   UNL     1       0.560   6.786  22.391  0.00  0.00    +0.063 HD
ATOM     29  H   UNL     1       0.316   9.260  22.557  0.00  0.00    +0.063 HD
ATOM     30  H   UNL     1       1.155  10.670  20.671  0.00  0.00    +0.083 HD
BRANCH  27  31
ATOM     31  C   UNL     1       2.577   7.156  18.164  0.00  0.00    +0.435 C 
ATOM     32  F   UNL     1       2.654   8.093  17.170  0.00  0.00    -0.164 F 
ATOM     33  F   UNL     1       3.847   6.693  18.344  0.00  0.00    -0.164 F 
ATOM     34  F   UNL     1       1.890   6.108  17.620  0.00  0.00    -0.164 F 
ENDBRANCH  27  31
ENDBRANCH  19  22
ENDBRANCH   1  20
BRANCH   6  35
ATOM     35  C   UNL     1       6.515   4.091  17.721  0.00  0.00    +0.049 C 
ATOM     36  H   UNL     1       7.179   3.553  17.033  0.00  0.00    +0.041 HD
ATOM     37  H   UNL     1       6.606   3.614  18.705  0.00  0.00    +0.041 HD
BRANCH  35  38
ATOM     38  C   UNL     1       7.002   5.520  17.804  0.00  0.00    -0.039 A 
ATOM     39  C   UNL     1       6.616   6.465  16.843  0.00  0.00    -0.058 A 
ATOM     40  C   UNL     1       7.071   7.782  16.925  0.00  0.00    -0.061 A 
ATOM     41  C   UNL     1       7.919   8.164  17.962  0.00  0.00    -0.062 A 
ATOM     42  C   UNL     1       8.320   7.230  18.915  0.00  0.00    -0.061 A 
ATOM     43  C   UNL     1       7.867   5.912  18.835  0.00  0.00    -0.058 A 
ATOM     44  H   UNL     1       5.965   6.180  16.021  0.00  0.00    +0.062 HD
ATOM     45  H   UNL     1       6.768   8.508  16.175  0.00  0.00    +0.062 HD
ATOM     46  H   UNL     1       8.277   9.188  18.022  0.00  0.00    +0.062 HD
ATOM     47  H   UNL     1       8.992   7.525  19.717  0.00  0.00    +0.062 HD
ATOM     48  H   UNL     1       8.195   5.193  19.582  0.00  0.00    +0.062 HD
ENDBRANCH  35  38
ENDBRANCH   6  35
TORSDOF 5
ENDMDL
MODEL 3
REMARK VINA RESULT:    -7.240      4.133      6.638
REMARK INTER + INTRA:          -9.351
REMARK INTER:                  -8.761
REMARK INTRA:                  -0.590
REMARK UNBOUND:                 0.005
REMARK  Name = 
REMARK  5 active torsions:
REMARK  status: ('A' for Active; 'I' for Inactive)
REMARK    1  A    between atoms: C_2  and  C_19
REMARK    2  A    between atoms: N_3  and  C_4
REMARK    3  A    between atoms: C_9  and  C_11
REMARK    4  A    between atoms: C_11  and  C_12
REMARK    5  A    between atoms: C_24  and  C_25
REMARK                            x       y       z     vdW  Elec       q    Type
REMARK                         _______ _______ _______ _____ _____    ______ ____
ROOT
ATOM      1  C   UNL     1       0.402  10.988  20.798  0.00  0.00    +0.039 C 
ATOM      2  C   UNL     1      -0.786  11.507  19.968  0.00  0.00    -0.032 C 
ATOM      3  C   UNL     1      -1.062  10.674  18.714  0.00  0.00    -0.035 C 
ATOM      4  C   UNL     1       0.206  10.070  18.125  0.00  0.00    +0.015 C 
ATOM      5  N   UNL     1       0.937   9.254  19.093  0.00  0.00    -0.299 N 
ATOM      6  C   UNL     1       1.942   8.419  18.608  0.00  0.00    +0.220 C 
ATOM      7  O   UNL     1       2.275   8.454  17.421  0.00  0.00    -0.275 OA
ATOM      8  C   UNL     1       0.665   9.495  20.520  0.00  0.00    +0.033 C 
ATOM      9  H   UNL     1       0.172  11.117  21.862  0.00  0.00    +0.051 HD
ATOM     10  H   UNL     1      -1.693  11.495  20.587  0.00  0.00    +0.028 HD
ATOM     11  H   UNL     1      -0.627  12.554  19.686  0.00  0.00    +0.028 HD
ATOM     12  H   UNL     1      -1.752   9.860  18.977  0.00  0.00    +0.028 HD
ATOM     13  H   UNL     1      -1.578  11.284  17.965  0.00  0.00    +0.028 HD
ATOM     14  H   UNL     1       0.883  10.861  17.781  0.00  0.00    +0.046 HD
ATOM     15  H   UNL     1      -0.041   9.454  17.252  0.00  0.00    +0.046 HD
ATOM     16  H   UNL     1       1.497   9.142  21.133  0.00  0.00    +0.048 HD
ATOM     17  H   UNL     1      -0.216   8.899  20.785  0.00  0.00    +0.048 HD
ENDROOT
BRANCH   1  20
ATOM     18  O   UNL     1       0.729  13.731  21.389  0.00  0.00    -0.270 OA
ATOM     19  C   UNL     1       1.653  13.120  20.869  0.00  0.00    +0.246 C 
ATOM     20  N   UNL     1       1.599  11.789  20.524  0.00  0.00    -0.307 N 
ATOM     21  H   UNL     1       2.463  11.286  20.353  0.00  0.00    +0.149 HD
BRANCH  19  22
ATOM     22  C   UNL     1       2.943  13.799  20.646  0.00  0.00    +0.067 A 
ATOM     23  C   UNL     1       3.795  13.943  21.749  0.00  0.00    -0.046 A 
ATOM     24  C   UNL     1       5.034  14.552  21.589  0.00  0.00    -0.043 A 
ATOM     25  C   UNL     1       5.377  15.013  20.332  0.00  0.00    +0.028 A 
ATOM     26  N   UNL     1       4.569  14.913  19.252  0.00  0.00    -0.250 NA
ATOM     27  C   UNL     1       3.341  14.320  19.413  0.00  0.00    +0.156 A 
ATOM     28  H   UNL     1       3.496  13.567  22.726  0.00  0.00    +0.063 HD
ATOM     29  H   UNL     1       5.717  14.655  22.424  0.00  0.00    +0.063 HD
ATOM     30  H   UNL     1       6.338  15.489  20.150  0.00  0.00    +0.083 HD
BRANCH  27  31
ATOM     31  C   UNL     1       2.432  14.226  18.198  0.00  0.00    +0.435 C 
ATOM     32  F   UNL     1       2.905  14.963  17.147  0.00  0.00    -0.164 F 
ATOM     33  F   UNL     1       2.274  12.956  17.725  0.00  0.00    -0.164 F 
ATOM     34  F   UNL     1       1.164  14.683  18.419  0.00  0.00    -0.164 F 
ENDBRANCH  27  31
ENDBRANCH  19  22
ENDBRANCH   1  20
BRANCH   6  35
ATOM     35  C   UNL     1       2.611   7.485  19.613  0.00  0.00    +0.049 C 
ATOM     36  H   UNL     1       2.403   7.829  20.633  0.00  0.00    +0.041 HD
ATOM     37  H   UNL     1       3.696   7.543  19.462  0.00  0.00    +0.041 HD
BRANCH  35  38
ATOM     38  C   UNL     1       2.160   6.046  19.513  0.00  0.00    -0.039 A 
ATOM     39  C   UNL     1       2.299   5.333  18.315  0.00  0.00    -0.058 A 
ATOM     40  C   UNL     1       1.879   4.004  18.230  0.00  0.00    -0.061 A 
ATOM     41  C   UNL     1       1.311   3.380  19.339  0.00  0.00    -0.062 A 
ATOM     42  C   UNL     1       1.156   4.084  20.532  0.00  0.00    -0.061 A 
ATOM     43  C   UNL     1       1.575   5.412  20.619  0.00  0.00    -0.058 A 
ATOM     44  H   UNL     1       2.728   5.809  17.437  0.00  0.00    +0.062 HD
ATOM     45  H   UNL     1       1.988   3.459  17.297  0.00  0.00    +0.062 HD
ATOM     46  H   UNL     1       0.980   2.348  19.271  0.00  0.00    +0.062 HD
ATOM     47  H   UNL     1       0.701   3.600  21.393  0.00  0.00    +0.062 HD
ATOM     48  H   UNL     1       1.439   5.950  21.554  0.00  0.00    +0.062 HD
ENDBRANCH  35  38
ENDBRANCH   6  35
TORSDOF 5
ENDMDL
MODEL 4
REMARK VINA RESULT:    -7.119      0.962      1.535
REMARK INTER + INTRA:          -9.195
REMARK INTER:                 -10.122
REMARK INTRA:                   0.927
REMARK UNBOUND:                 0.005
REMARK  Name = 
REMARK  5 active torsions:
REMARK  status: ('A' for Active; 'I' for Inactive)
REMARK    1  A    between atoms: C_2  and  C_19
REMARK    2  A    between atoms: N_3  and  C_4
REMARK    3  A    between atoms: C_9  and  C_11
REMARK    4  A    between atoms: C_11  and  C_12
REMARK    5  A    between atoms: C_24  and  C_25
REMARK                            x       y       z     vdW  Elec       q    Type
REMARK                         _______ _______ _______ _____ _____    ______ ____
ROOT
ATOM      1  C   UNL     1       2.957   4.686  20.705  0.00  0.00    +0.039 C 
ATOM      2  C   UNL     1       1.597   4.098  21.120  0.00  0.00    -0.032 C 
ATOM      3  C   UNL     1       1.082   3.022  20.161  0.00  0.00    -0.035 C 
ATOM      4  C   UNL     1       1.513   3.268  18.723  0.00  0.00    +0.015 C 
ATOM      5  N   UNL     1       2.965   3.378  18.586  0.00  0.00    -0.299 N 
ATOM      6  C   UNL     1       3.502   3.311  17.302  0.00  0.00    +0.220 C 
ATOM      7  O   UNL     1       2.768   3.275  16.311  0.00  0.00    -0.275 OA
ATOM      8  C   UNL     1       3.732   3.710  19.798  0.00  0.00    +0.033 C 
ATOM      9  H   UNL     1       3.548   4.880  21.607  0.00  0.00    +0.051 HD
ATOM     10  H   UNL     1       1.687   3.646  22.117  0.00  0.00    +0.028 HD
ATOM     11  H   UNL     1       0.850   4.893  21.216  0.00  0.00    +0.028 HD
ATOM     12  H   UNL     1       1.471   2.047  20.485  0.00  0.00    +0.028 HD
ATOM     13  H   UNL     1      -0.010   2.953  20.226  0.00  0.00    +0.028 HD
ATOM     14  H   UNL     1       1.075   4.200  18.345  0.00  0.00    +0.046 HD
ATOM     15  H   UNL     1       1.155   2.458  18.077  0.00  0.00    +0.046 HD
ATOM     16  H   UNL     1       4.701   4.138  19.532  0.00  0.00    +0.048 HD
ATOM     17  H   UNL     1       3.921   2.770  20.328  0.00  0.00    +0.048 HD
ENDROOT
BRANCH   1  20
ATOM     18  O   UNL     1       0.775   6.440  21.085  0.00  0.00    -0.270 OA
ATOM     19  C   UNL     1       1.669   6.760  20.313  0.00  0.00    +0.246 C 
ATOM     20  N   UNL     1       2.767   5.979  20.039  0.00  0.00    -0.307 N 
ATOM     21  H   UNL     1       3.584   6.404  19.612  0.00  0.00    +0.149 HD
BRANCH  19  22
ATOM     22  C   UNL     1       1.635   8.087  19.668  0.00  0.00    +0.067 A 
ATOM     23  C   UNL     1       2.158   8.187  18.372  0.00  0.00    -0.046 A 
ATOM     24  C   UNL     1       2.128   9.408  17.709  0.00  0.00    -0.043 A 
ATOM     25  C   UNL     1       1.588  10.496  18.369  0.00  0.00    +0.028 A 
ATOM     26  N   UNL     1       1.098  10.440  19.628  0.00  0.00    -0.250 NA
ATOM     27  C   UNL     1       1.137   9.236  20.286  0.00  0.00    +0.156 A 
ATOM     28  H   UNL     1       2.575   7.311  17.879  0.00  0.00    +0.063 HD
ATOM     29  H   UNL     1       2.508   9.504  16.699  0.00  0.00    +0.063 HD
ATOM     30  H   UNL     1       1.532  11.472  17.892  0.00  0.00    +0.083 HD
BRANCH  27  31
ATOM     31  C   UNL     1       0.598   9.184  21.707  0.00  0.00    +0.435 C 
ATOM     32  F   UNL     1      -0.535   8.424  21.797  0.00  0.00    -0.164 F 
ATOM     33  F   UNL     1       1.476   8.659  22.610  0.00  0.00    -0.164 F 
ATOM     34  F   UNL     1       0.256  10.405  22.214  0.00  0.00    -0.164 F 
ENDBRANCH  27  31
ENDBRANCH  19  22
ENDBRANCH   1  20
BRANCH   6  35
ATOM     35  C   UNL     1       5.023   3.304  17.187  0.00  0.00    +0.049 C 
ATOM     36  H   UNL     1       5.321   2.874  16.223  0.00  0.00    +0.041 HD
ATOM     37  H   UNL     1       5.422   2.651  17.975  0.00  0.00    +0.041 HD
BRANCH  35  38
ATOM     38  C   UNL     1       5.657   4.672  17.293  0.00  0.00    -0.039 A 
ATOM     39  C   UNL     1       4.960   5.818  16.888  0.00  0.00    -0.058 A 
ATOM     40  C   UNL     1       5.552   7.078  16.987  0.00  0.00    -0.061 A 
ATOM     41  C   UNL     1       6.848   7.203  17.486  0.00  0.00    -0.062 A 
ATOM     42  C   UNL     1       7.556   6.069  17.879  0.00  0.00    -0.061 A 
ATOM     43  C   UNL     1       6.965   4.808  17.780  0.00  0.00    -0.058 A 
ATOM     44  H   UNL     1       3.953   5.737  16.485  0.00  0.00    +0.062 HD
ATOM     45  H   UNL     1       5.006   7.961  16.669  0.00  0.00    +0.062 HD
ATOM     46  H   UNL     1       7.310   8.183  17.558  0.00  0.00    +0.062 HD
ATOM     47  H   UNL     1       8.570   6.165  18.256  0.00  0.00    +0.062 HD
ATOM     48  H   UNL     1       7.534   3.932  18.084  0.00  0.00    +0.062 HD
ENDBRANCH  35  38
ENDBRANCH   6  35
TORSDOF 5
ENDMDL
MODEL 5
REMARK VINA RESULT:    -7.085      3.031      5.462
REMARK INTER + INTRA:          -9.152
REMARK INTER:                  -9.498
REMARK INTRA:                   0.346
REMARK UNBOUND:                 0.005
REMARK  Name = 
REMARK  5 active torsions:
REMARK  status: ('A' for Active; 'I' for Inactive)
REMARK    1  A    between atoms: C_2  and  C_19
REMARK    2  A    between atoms: N_3  and  C_4
REMARK    3  A    between atoms: C_9  and  C_11
REMARK    4  A    between atoms: C_11  and  C_12
REMARK    5  A    between atoms: C_24  and  C_25
REMARK                            x       y       z     vdW  Elec       q    Type
REMARK                         _______ _______ _______ _____ _____    ______ ____
ROOT
ATOM      1  C   UNL     1       6.668   4.025  17.199  0.00  0.00    +0.039 C 
ATOM      2  C   UNL     1       5.911   3.852  15.870  0.00  0.00    -0.032 C 
ATOM      3  C   UNL     1       5.788   5.150  15.068  0.00  0.00    -0.035 C 
ATOM      4  C   UNL     1       5.699   6.381  15.959  0.00  0.00    +0.015 C 
ATOM      5  N   UNL     1       6.833   6.489  16.876  0.00  0.00    -0.299 N 
ATOM      6  C   UNL     1       7.022   7.704  17.532  0.00  0.00    +0.220 C 
ATOM      7  O   UNL     1       6.196   8.614  17.426  0.00  0.00    -0.275 OA
ATOM      8  C   UNL     1       7.592   5.259  17.157  0.00  0.00    +0.033 C 
ATOM      9  H   UNL     1       7.276   3.131  17.378  0.00  0.00    +0.051 HD
ATOM     10  H   UNL     1       6.438   3.118  15.246  0.00  0.00    +0.028 HD
ATOM     11  H   UNL     1       4.914   3.436  16.050  0.00  0.00    +0.028 HD
ATOM     12  H   UNL     1       6.669   5.247  14.418  0.00  0.00    +0.028 HD
ATOM     13  H   UNL     1       4.920   5.098  14.401  0.00  0.00    +0.028 HD
ATOM     14  H   UNL     1       4.785   6.350  16.565  0.00  0.00    +0.046 HD
ATOM     15  H   UNL     1       5.649   7.288  15.345  0.00  0.00    +0.046 HD
ATOM     16  H   UNL     1       8.134   5.351  18.101  0.00  0.00    +0.048 HD
ATOM     17  H   UNL     1       8.335   5.149  16.359  0.00  0.00    +0.048 HD
ENDROOT
BRANCH   1  20
ATOM     18  O   UNL     1       3.995   3.111  17.181  0.00  0.00    -0.270 OA
ATOM     19  C   UNL     1       4.441   3.626  18.197  0.00  0.00    +0.246 C 
ATOM     20  N   UNL     1       5.720   4.120  18.313  0.00  0.00    -0.307 N 
ATOM     21  H   UNL     1       6.107   4.282  19.237  0.00  0.00    +0.149 HD
BRANCH  19  22
ATOM     22  C   UNL     1       3.609   3.678  19.414  0.00  0.00    +0.067 A 
ATOM     23  C   UNL     1       3.594   2.541  20.233  0.00  0.00    -0.046 A 
ATOM     24  C   UNL     1       2.848   2.545  21.405  0.00  0.00    -0.043 A 
ATOM     25  C   UNL     1       2.127   3.683  21.716  0.00  0.00    +0.028 A 
ATOM     26  N   UNL     1       2.100   4.788  20.936  0.00  0.00    -0.250 NA
ATOM     27  C   UNL     1       2.830   4.780  19.774  0.00  0.00    +0.156 A 
ATOM     28  H   UNL     1       4.174   1.661  19.961  0.00  0.00    +0.063 HD
ATOM     29  H   UNL     1       2.838   1.684  22.063  0.00  0.00    +0.063 HD
ATOM     30  H   UNL     1       1.534   3.742  22.626  0.00  0.00    +0.083 HD
BRANCH  27  31
ATOM     31  C   UNL     1       2.781   6.019  18.894  0.00  0.00    +0.435 C 
ATOM     32  F   UNL     1       1.996   7.000  19.437  0.00  0.00    -0.164 F 
ATOM     33  F   UNL     1       4.001   6.590  18.679  0.00  0.00    -0.164 F 
ATOM     34  F   UNL     1       2.269   5.794  17.648  0.00  0.00    -0.164 F 
ENDBRANCH  27  31
ENDBRANCH  19  22
ENDBRANCH   1  20
BRANCH   6  35
ATOM     35  C   UNL     1       8.277   7.840  18.389  0.00  0.00    +0.049 C 
ATOM     36  H   UNL     1       9.110   7.310  17.913  0.00  0.00    +0.041 HD
ATOM     37  H   UNL     1       8.086   7.351  19.354  0.00  0.00    +0.041 HD
BRANCH  35  38
ATOM     38  C   UNL     1       8.715   9.267  18.622  0.00  0.00    -0.039 A 
ATOM     39  C   UNL     1       9.122   9.694  19.893  0.00  0.00    -0.058 A 
ATOM     40  C   UNL     1       9.524  11.015  20.101  0.00  0.00    -0.061 A 
ATOM     41  C   UNL     1       9.516  11.921  19.042  0.00  0.00    -0.062 A 
ATOM     42  C   UNL     1       9.101  11.511  17.776  0.00  0.00    -0.061 A 
ATOM     43  C   UNL     1       8.698  10.191  17.567  0.00  0.00    -0.058 A 
ATOM     44  H   UNL     1       9.121   9.003  20.732  0.00  0.00    +0.062 HD
ATOM     45  H   UNL     1       9.836  11.338  21.089  0.00  0.00    +0.062 HD
ATOM     46  H   UNL     1       9.824  12.950  19.205  0.00  0.00    +0.062 HD
ATOM     47  H   UNL     1       9.083  12.221  16.954  0.00  0.00    +0.062 HD
ATOM     48  H   UNL     1       8.369   9.889  16.575  0.00  0.00    +0.062 HD
ENDBRANCH  35  38
ENDBRANCH   6  35
TORSDOF 5
ENDMDL
MODEL 6
REMARK VINA RESULT:    -6.963      6.489      9.734
REMARK INTER + INTRA:          -8.994
REMARK INTER:                  -7.810
REMARK INTRA:                  -1.184
REMARK UNBOUND:                 0.005
REMARK  Name = 
REMARK  5 active torsions:
REMARK  status: ('A' for Active; 'I' for Inactive)
REMARK    1  A    between atoms: C_2  and  C_19
REMARK    2  A    between atoms: N_3  and  C_4
REMARK    3  A    between atoms: C_9  and  C_11
REMARK    4  A    between atoms: C_11  and  C_12
REMARK    5  A    between atoms: C_24  and  C_25
REMARK                            x       y       z     vdW  Elec       q    Type
REMARK                         _______ _______ _______ _____ _____    ______ ____
ROOT
ATOM      1  C   UNL     1       1.456  11.744  18.967  0.00  0.00    +0.039 C 
ATOM      2  C   UNL     1       2.471  12.602  18.192  0.00  0.00    -0.032 C 
ATOM      3  C   UNL     1       2.660  14.002  18.783  0.00  0.00    -0.035 C 
ATOM      4  C   UNL     1       1.391  14.538  19.429  0.00  0.00    +0.015 C 
ATOM      5  N   UNL     1       0.872  13.646  20.465  0.00  0.00    -0.299 N 
ATOM      6  C   UNL     1      -0.104  14.148  21.324  0.00  0.00    +0.220 C 
ATOM      7  O   UNL     1      -0.589  15.267  21.143  0.00  0.00    -0.275 OA
ATOM      8  C   UNL     1       1.303  12.238  20.419  0.00  0.00    +0.033 C 
ATOM      9  H   UNL     1       1.808  10.706  18.979  0.00  0.00    +0.051 HD
ATOM     10  H   UNL     1       3.448  12.100  18.195  0.00  0.00    +0.028 HD
ATOM     11  H   UNL     1       2.178  12.684  17.139  0.00  0.00    +0.028 HD
ATOM     12  H   UNL     1       3.453  13.959  19.542  0.00  0.00    +0.028 HD
ATOM     13  H   UNL     1       3.014  14.691  18.008  0.00  0.00    +0.028 HD
ATOM     14  H   UNL     1       0.602  14.665  18.677  0.00  0.00    +0.046 HD
ATOM     15  H   UNL     1       1.579  15.524  19.869  0.00  0.00    +0.046 HD
ATOM     16  H   UNL     1       0.594  11.604  20.956  0.00  0.00    +0.048 HD
ATOM     17  H   UNL     1       2.263  12.178  20.943  0.00  0.00    +0.048 HD
ENDROOT
BRANCH   1  20
ATOM     18  O   UNL     1      -0.438   9.649  19.004  0.00  0.00    -0.270 OA
ATOM     19  C   UNL     1      -0.691  10.668  18.375  0.00  0.00    +0.246 C 
ATOM     20  N   UNL     1       0.163  11.742  18.276  0.00  0.00    -0.307 N 
ATOM     21  H   UNL     1      -0.203  12.640  17.977  0.00  0.00    +0.149 HD
BRANCH  19  22
ATOM     22  C   UNL     1      -2.008  10.820  17.729  0.00  0.00    +0.067 A 
ATOM     23  C   UNL     1      -2.177  10.236  16.467  0.00  0.00    -0.046 A 
ATOM     24  C   UNL     1      -3.406  10.326  15.825  0.00  0.00    -0.043 A 
ATOM     25  C   UNL     1      -4.426  11.011  16.459  0.00  0.00    +0.028 A 
ATOM     26  N   UNL     1      -4.289  11.607  17.665  0.00  0.00    -0.250 NA
ATOM     27  C   UNL     1      -3.072  11.526  18.295  0.00  0.00    +0.156 A 
ATOM     28  H   UNL     1      -1.355   9.701  15.994  0.00  0.00    +0.063 HD
ATOM     29  H   UNL     1      -3.566   9.865  14.857  0.00  0.00    +0.063 HD
ATOM     30  H   UNL     1      -5.409  11.104  16.005  0.00  0.00    +0.083 HD
BRANCH  27  31
ATOM     31  C   UNL     1      -2.921  12.212  19.643  0.00  0.00    +0.435 C 
ATOM     32  F   UNL     1      -2.270  13.411  19.536  0.00  0.00    -0.164 F 
ATOM     33  F   UNL     1      -4.107  12.482  20.260  0.00  0.00    -0.164 F 
ATOM     34  F   UNL     1      -2.202  11.491  20.554  0.00  0.00    -0.164 F 
ENDBRANCH  27  31
ENDBRANCH  19  22
ENDBRANCH   1  20
BRANCH   6  35
ATOM     35  C   UNL     1      -0.544  13.246  22.473  0.00  0.00    +0.049 C 
ATOM     36  H   UNL     1       0.314  13.022  23.119  0.00  0.00    +0.041 HD
ATOM     37  H   UNL     1      -0.892  12.296  22.047  0.00  0.00    +0.041 HD
BRANCH  35  38
ATOM     38  C   UNL     1      -1.629  13.840  23.343  0.00  0.00    -0.039 A 
ATOM     39  C   UNL     1      -2.978  13.544  23.107  0.00  0.00    -0.058 A 
ATOM     40  C   UNL     1      -3.975  14.097  23.912  0.00  0.00    -0.061 A 
ATOM     41  C   UNL     1      -3.632  14.954  24.956  0.00  0.00    -0.062 A 
ATOM     42  C   UNL     1      -2.294  15.265  25.192  0.00  0.00    -0.061 A 
ATOM     43  C   UNL     1      -1.297  14.714  24.387  0.00  0.00    -0.058 A 
ATOM     44  H   UNL     1      -3.263  12.888  22.288  0.00  0.00    +0.062 HD
ATOM     45  H   UNL     1      -5.019  13.864  23.722  0.00  0.00    +0.062 HD
ATOM     46  H   UNL     1      -4.409  15.388  25.580  0.00  0.00    +0.062 HD
ATOM     47  H   UNL     1      -2.029  15.944  25.999  0.00  0.00    +0.062 HD
ATOM     48  H   UNL     1      -0.258  14.973  24.579  0.00  0.00    +0.062 HD
ENDBRANCH  35  38
ENDBRANCH   6  35
TORSDOF 5
ENDMDL
MODEL 7
REMARK VINA RESULT:    -6.889      2.045      2.479
REMARK INTER + INTRA:          -8.898
REMARK INTER:                  -9.136
REMARK INTRA:                   0.238
REMARK UNBOUND:                 0.005
REMARK  Name = 
REMARK  5 active torsions:
REMARK  status: ('A' for Active; 'I' for Inactive)
REMARK    1  A    between atoms: C_2  and  C_19
REMARK    2  A    between atoms: N_3  and  C_4
REMARK    3  A    between atoms: C_9  and  C_11
REMARK    4  A    between atoms: C_11  and  C_12
REMARK    5  A    between atoms: C_24  and  C_25
REMARK                            x       y       z     vdW  Elec       q    Type
REMARK                         _______ _______ _______ _____ _____    ______ ____
ROOT
ATOM      1  C   UNL     1       1.712   4.452  20.667  0.00  0.00    +0.039 C 
ATOM      2  C   UNL     1       0.488   3.567  20.370  0.00  0.00    -0.032 C 
ATOM      3  C   UNL     1       0.783   2.436  19.381  0.00  0.00    -0.035 C 
ATOM      4  C   UNL     1       1.842   2.819  18.357  0.00  0.00    +0.015 C 
ATOM      5  N   UNL     1       3.092   3.248  18.980  0.00  0.00    -0.299 N 
ATOM      6  C   UNL     1       4.222   3.343  18.169  0.00  0.00    +0.220 C 
ATOM      7  O   UNL     1       4.139   3.179  16.950  0.00  0.00    -0.275 OA
ATOM      8  C   UNL     1       3.026   3.700  20.380  0.00  0.00    +0.033 C 
ATOM      9  H   UNL     1       1.690   4.741  21.724  0.00  0.00    +0.051 HD
ATOM     10  H   UNL     1       0.134   3.113  21.305  0.00  0.00    +0.028 HD
ATOM     11  H   UNL     1      -0.342   4.175  19.996  0.00  0.00    +0.028 HD
ATOM     12  H   UNL     1       1.134   1.560  19.943  0.00  0.00    +0.028 HD
ATOM     13  H   UNL     1      -0.141   2.128  18.878  0.00  0.00    +0.028 HD
ATOM     14  H   UNL     1       1.486   3.643  17.727  0.00  0.00    +0.046 HD
ATOM     15  H   UNL     1       2.047   1.971  17.692  0.00  0.00    +0.046 HD
ATOM     16  H   UNL     1       3.880   4.339  20.616  0.00  0.00    +0.048 HD
ATOM     17  H   UNL     1       3.097   2.807  21.011  0.00  0.00    +0.048 HD
ENDROOT
BRANCH   1  20
ATOM     18  O   UNL     1       1.619   7.069  21.728  0.00  0.00    -0.270 OA
ATOM     19  C   UNL     1       1.613   6.918  20.513  0.00  0.00    +0.246 C 
ATOM     20  N   UNL     1       1.639   5.693  19.889  0.00  0.00    -0.307 N 
ATOM     21  H   UNL     1       1.899   5.641  18.910  0.00  0.00    +0.149 HD
BRANCH  19  22
ATOM     22  C   UNL     1       1.649   8.100  19.632  0.00  0.00    +0.067 A 
ATOM     23  C   UNL     1       0.869   9.204  20.001  0.00  0.00    -0.046 A 
ATOM     24  C   UNL     1       0.886  10.353  19.220  0.00  0.00    -0.043 A 
ATOM     25  C   UNL     1       1.673  10.358  18.083  0.00  0.00    +0.028 A 
ATOM     26  N   UNL     1       2.418   9.302  17.685  0.00  0.00    -0.250 NA
ATOM     27  C   UNL     1       2.393   8.164  18.451  0.00  0.00    +0.156 A 
ATOM     28  H   UNL     1       0.261   9.169  20.903  0.00  0.00    +0.063 HD
ATOM     29  H   UNL     1       0.306  11.225  19.498  0.00  0.00    +0.063 HD
ATOM     30  H   UNL     1       1.729  11.234  17.442  0.00  0.00    +0.083 HD
BRANCH  27  31
ATOM     31  C   UNL     1       3.220   6.975  17.988  0.00  0.00    +0.435 C 
ATOM     32  F   UNL     1       4.053   7.305  16.954  0.00  0.00    -0.164 F 
ATOM     33  F   UNL     1       4.019   6.447  18.960  0.00  0.00    -0.164 F 
ATOM     34  F   UNL     1       2.475   5.926  17.532  0.00  0.00    -0.164 F 
ENDBRANCH  27  31
ENDBRANCH  19  22
ENDBRANCH   1  20
BRANCH   6  35
ATOM     35  C   UNL     1       5.542   3.674  18.858  0.00  0.00    +0.049 C 
ATOM     36  H   UNL     1       6.197   2.794  18.847  0.00  0.00    +0.041 HD
ATOM     37  H   UNL     1       5.330   3.911  19.909  0.00  0.00    +0.041 HD
BRANCH  35  38
ATOM     38  C   UNL     1       6.301   4.817  18.224  0.00  0.00    -0.039 A 
ATOM     39  C   UNL     1       7.052   5.702  19.009  0.00  0.00    -0.058 A 
ATOM     40  C   UNL     1       7.749   6.756  18.417  0.00  0.00    -0.061 A 
ATOM     41  C   UNL     1       7.696   6.938  17.036  0.00  0.00    -0.062 A 
ATOM     42  C   UNL     1       6.942   6.072  16.247  0.00  0.00    -0.061 A 
ATOM     43  C   UNL     1       6.244   5.018  16.837  0.00  0.00    -0.058 A 
ATOM     44  H   UNL     1       7.093   5.581  20.089  0.00  0.00    +0.062 HD
ATOM     45  H   UNL     1       8.327   7.439  19.033  0.00  0.00    +0.062 HD
ATOM     46  H   UNL     1       8.235   7.762  16.576  0.00  0.00    +0.062 HD
ATOM     47  H   UNL     1       6.891   6.223  15.172  0.00  0.00    +0.062 HD
ATOM     48  H   UNL     1       5.654   4.356  16.209  0.00  0.00    +0.062 HD
ENDBRANCH  35  38
ENDBRANCH   6  35
TORSDOF 5
ENDMDL
MODEL 8
REMARK VINA RESULT:    -6.888      3.678      6.776
REMARK INTER + INTRA:          -8.896
REMARK INTER:                  -9.124
REMARK INTRA:                   0.228
REMARK UNBOUND:                 0.005
REMARK  Name = 
REMARK  5 active torsions:
REMARK  status: ('A' for Active; 'I' for Inactive)
REMARK    1  A    between atoms: C_2  and  C_19
REMARK    2  A    between atoms: N_3  and  C_4
REMARK    3  A    between atoms: C_9  and  C_11
REMARK    4  A    between atoms: C_11  and  C_12
REMARK    5  A    between atoms: C_24  and  C_25
REMARK                            x       y       z     vdW  Elec       q    Type
REMARK                         _______ _______ _______ _____ _____    ______ ____
ROOT
ATOM      1  C   UNL     1       2.105   3.768  17.563  0.00  0.00    +0.039 C 
ATOM      2  C   UNL     1       1.546   2.458  18.145  0.00  0.00    -0.032 C 
ATOM      3  C   UNL     1       0.888   2.634  19.516  0.00  0.00    -0.035 C 
ATOM      4  C   UNL     1       1.542   3.735  20.339  0.00  0.00    +0.015 C 
ATOM      5  N   UNL     1       1.552   5.021  19.644  0.00  0.00    -0.299 N 
ATOM      6  C   UNL     1       1.851   6.159  20.390  0.00  0.00    +0.220 C 
ATOM      7  O   UNL     1       2.204   6.067  21.568  0.00  0.00    -0.275 OA
ATOM      8  C   UNL     1       1.404   4.995  18.179  0.00  0.00    +0.033 C 
ATOM      9  H   UNL     1       1.943   3.772  16.480  0.00  0.00    +0.051 HD
ATOM     10  H   UNL     1       0.792   2.050  17.459  0.00  0.00    +0.028 HD
ATOM     11  H   UNL     1       2.335   1.701  18.210  0.00  0.00    +0.028 HD
ATOM     12  H   UNL     1      -0.171   2.884  19.368  0.00  0.00    +0.028 HD
ATOM     13  H   UNL     1       0.906   1.685  20.064  0.00  0.00    +0.028 HD
ATOM     14  H   UNL     1       2.583   3.475  20.569  0.00  0.00    +0.046 HD
ATOM     15  H   UNL     1       1.019   3.851  21.296  0.00  0.00    +0.046 HD
ATOM     16  H   UNL     1       1.801   5.912  17.738  0.00  0.00    +0.048 HD
ATOM     17  H   UNL     1       0.330   4.964  17.964  0.00  0.00    +0.048 HD
ENDROOT
BRANCH   1  20
ATOM     18  O   UNL     1       3.727   6.051  17.190  0.00  0.00    -0.270 OA
ATOM     19  C   UNL     1       4.244   5.010  17.573  0.00  0.00    +0.246 C 
ATOM     20  N   UNL     1       3.555   3.836  17.772  0.00  0.00    -0.307 N 
ATOM     21  H   UNL     1       3.976   3.103  18.334  0.00  0.00    +0.149 HD
BRANCH  19  22
ATOM     22  C   UNL     1       5.679   4.991  17.917  0.00  0.00    +0.067 A 
ATOM     23  C   UNL     1       6.034   5.365  19.219  0.00  0.00    -0.046 A 
ATOM     24  C   UNL     1       7.369   5.339  19.603  0.00  0.00    -0.043 A 
ATOM     25  C   UNL     1       8.311   4.953  18.668  0.00  0.00    +0.028 A 
ATOM     26  N   UNL     1       8.005   4.610  17.396  0.00  0.00    -0.250 NA
ATOM     27  C   UNL     1       6.687   4.645  17.014  0.00  0.00    +0.156 A 
ATOM     28  H   UNL     1       5.268   5.662  19.933  0.00  0.00    +0.063 HD
ATOM     29  H   UNL     1       7.665   5.605  20.612  0.00  0.00    +0.063 HD
ATOM     30  H   UNL     1       9.368   4.908  18.920  0.00  0.00    +0.083 HD
BRANCH  27  31
ATOM     31  C   UNL     1       6.352   4.273  15.578  0.00  0.00    +0.435 C 
ATOM     32  F   UNL     1       7.457   4.308  14.771  0.00  0.00    -0.164 F 
ATOM     33  F   UNL     1       5.826   3.022  15.441  0.00  0.00    -0.164 F 
ATOM     34  F   UNL     1       5.446   5.107  14.987  0.00  0.00    -0.164 F 
ENDBRANCH  27  31
ENDBRANCH  19  22
ENDBRANCH   1  20
BRANCH   6  35
ATOM     35  C   UNL     1       1.738   7.503  19.678  0.00  0.00    +0.049 C 
ATOM     36  H   UNL     1       1.203   7.376  18.729  0.00  0.00    +0.041 HD
ATOM     37  H   UNL     1       2.751   7.850  19.438  0.00  0.00    +0.041 HD
BRANCH  35  38
ATOM     38  C   UNL     1       1.013   8.565  20.473  0.00  0.00    -0.039 A 
ATOM     39  C   UNL     1       0.377   8.246  21.680  0.00  0.00    -0.058 A 
ATOM     40  C   UNL     1      -0.292   9.230  22.409  0.00  0.00    -0.061 A 
ATOM     41  C   UNL     1      -0.336  10.540  21.934  0.00  0.00    -0.062 A 
ATOM     42  C   UNL     1       0.282  10.866  20.728  0.00  0.00    -0.061 A 
ATOM     43  C   UNL     1       0.950   9.882  19.999  0.00  0.00    -0.058 A 
ATOM     44  H   UNL     1       0.391   7.226  22.058  0.00  0.00    +0.062 HD
ATOM     45  H   UNL     1      -0.784   8.975  23.343  0.00  0.00    +0.062 HD
ATOM     46  H   UNL     1      -0.861  11.305  22.500  0.00  0.00    +0.062 HD
ATOM     47  H   UNL     1       0.236  11.885  20.353  0.00  0.00    +0.062 HD
ATOM     48  H   UNL     1       1.420  10.151  19.055  0.00  0.00    +0.062 HD
ENDBRANCH  35  38
ENDBRANCH   6  35
TORSDOF 5
ENDMDL
MODEL 9
REMARK VINA RESULT:    -6.857      4.016      6.107
REMARK INTER + INTRA:          -8.856
REMARK INTER:                  -8.081
REMARK INTRA:                  -0.775
REMARK UNBOUND:                 0.005
REMARK  Name = 
REMARK  5 active torsions:
REMARK  status: ('A' for Active; 'I' for Inactive)
REMARK    1  A    between atoms: C_2  and  C_19
REMARK    2  A    between atoms: N_3  and  C_4
REMARK    3  A    between atoms: C_9  and  C_11
REMARK    4  A    between atoms: C_11  and  C_12
REMARK    5  A    between atoms: C_24  and  C_25
REMARK                            x       y       z     vdW  Elec       q    Type
REMARK                         _______ _______ _______ _____ _____    ______ ____
ROOT
ATOM      1  C   UNL     1       3.803   6.604  17.293  0.00  0.00    +0.039 C 
ATOM      2  C   UNL     1       4.339   7.957  17.792  0.00  0.00    -0.032 C 
ATOM      3  C   UNL     1       5.863   8.074  17.712  0.00  0.00    -0.035 C 
ATOM      4  C   UNL     1       6.561   6.738  17.921  0.00  0.00    +0.015 C 
ATOM      5  N   UNL     1       6.108   5.718  16.976  0.00  0.00    -0.299 N 
ATOM      6  C   UNL     1       6.865   4.552  16.868  0.00  0.00    +0.220 C 
ATOM      7  O   UNL     1       7.817   4.346  17.624  0.00  0.00    -0.275 OA
ATOM      8  C   UNL     1       4.801   5.930  16.332  0.00  0.00    +0.033 C 
ATOM      9  H   UNL     1       2.858   6.772  16.764  0.00  0.00    +0.051 HD
ATOM     10  H   UNL     1       3.906   8.764  17.186  0.00  0.00    +0.028 HD
ATOM     11  H   UNL     1       4.010   8.143  18.820  0.00  0.00    +0.028 HD
ATOM     12  H   UNL     1       6.134   8.464  16.722  0.00  0.00    +0.028 HD
ATOM     13  H   UNL     1       6.221   8.810  18.440  0.00  0.00    +0.028 HD
ATOM     14  H   UNL     1       6.372   6.359  18.933  0.00  0.00    +0.046 HD
ATOM     15  H   UNL     1       7.646   6.860  17.820  0.00  0.00    +0.046 HD
ATOM     16  H   UNL     1       4.393   4.982  15.974  0.00  0.00    +0.048 HD
ATOM     17  H   UNL     1       4.974   6.566  15.456  0.00  0.00    +0.048 HD
ENDROOT
BRANCH   1  20
ATOM     18  O   UNL     1       1.648   4.784  17.453  0.00  0.00    -0.270 OA
ATOM     19  C   UNL     1       2.427   4.868  18.393  0.00  0.00    +0.246 C 
ATOM     20  N   UNL     1       3.499   5.729  18.429  0.00  0.00    -0.307 N 
ATOM     21  H   UNL     1       4.245   5.565  19.099  0.00  0.00    +0.149 HD
BRANCH  19  22
ATOM     22  C   UNL     1       2.281   3.959  19.546  0.00  0.00    +0.067 A 
ATOM     23  C   UNL     1       1.770   4.500  20.732  0.00  0.00    -0.046 A 
ATOM     24  C   UNL     1       1.588   3.682  21.841  0.00  0.00    -0.043 A 
ATOM     25  C   UNL     1       1.936   2.349  21.733  0.00  0.00    +0.028 A 
ATOM     26  N   UNL     1       2.455   1.800  20.611  0.00  0.00    -0.250 NA
ATOM     27  C   UNL     1       2.644   2.610  19.519  0.00  0.00    +0.156 A 
ATOM     28  H   UNL     1       1.503   5.555  20.785  0.00  0.00    +0.063 HD
ATOM     29  H   UNL     1       1.175   4.076  22.762  0.00  0.00    +0.063 HD
ATOM     30  H   UNL     1       1.805   1.665  22.567  0.00  0.00    +0.083 HD
BRANCH  27  31
ATOM     31  C   UNL     1       3.243   1.990  18.268  0.00  0.00    +0.435 C 
ATOM     32  F   UNL     1       3.777   0.754  18.515  0.00  0.00    -0.164 F 
ATOM     33  F   UNL     1       2.345   1.815  17.256  0.00  0.00    -0.164 F 
ATOM     34  F   UNL     1       4.259   2.719  17.719  0.00  0.00    -0.164 F 
ENDBRANCH  27  31
ENDBRANCH  19  22
ENDBRANCH   1  20
BRANCH   6  35
ATOM     35  C   UNL     1       6.448   3.553  15.793  0.00  0.00    +0.049 C 
ATOM     36  H   UNL     1       5.368   3.372  15.854  0.00  0.00    +0.041 HD
ATOM     37  H   UNL     1       6.952   2.600  15.998  0.00  0.00    +0.041 HD
BRANCH  35  38
ATOM     38  C   UNL     1       6.758   3.999  14.382  0.00  0.00    -0.039 A 
ATOM     39  C   UNL     1       6.116   3.407  13.286  0.00  0.00    -0.058 A 
ATOM     40  C   UNL     1       6.409   3.822  11.986  0.00  0.00    -0.061 A 
ATOM     41  C   UNL     1       7.350   4.827  11.771  0.00  0.00    -0.062 A 
ATOM     42  C   UNL     1       8.005   5.414  12.852  0.00  0.00    -0.061 A 
ATOM     43  C   UNL     1       7.713   5.000  14.152  0.00  0.00    -0.058 A 
ATOM     44  H   UNL     1       5.389   2.613  13.437  0.00  0.00    +0.062 HD
ATOM     45  H   UNL     1       5.908   3.357  11.142  0.00  0.00    +0.062 HD
ATOM     46  H   UNL     1       7.581   5.146  10.758  0.00  0.00    +0.062 HD
ATOM     47  H   UNL     1       8.748   6.189  12.682  0.00  0.00    +0.062 HD
ATOM     48  H   UNL     1       8.239   5.461  14.985  0.00  0.00    +0.062 HD
ENDBRANCH  35  38
ENDBRANCH   6  35
TORSDOF 5
ENDMDL
MODEL 10
REMARK VINA RESULT:    -6.818      4.622      7.795
REMARK INTER + INTRA:          -8.806
REMARK INTER:                  -8.124
REMARK INTRA:                  -0.681
REMARK UNBOUND:                 0.005
REMARK  Name = 
REMARK  5 active torsions:
REMARK  status: ('A' for Active; 'I' for Inactive)
REMARK    1  A    between atoms: C_2  and  C_19
REMARK    2  A    between atoms: N_3  and  C_4
REMARK    3  A    between atoms: C_9  and  C_11
REMARK    4  A    between atoms: C_11  and  C_12
REMARK    5  A    between atoms: C_24  and  C_25
REMARK                            x       y       z     vdW  Elec       q    Type
REMARK                         _______ _______ _______ _____ _____    ______ ____
ROOT
ATOM      1  C   UNL     1       1.169  13.643  18.380  0.00  0.00    +0.039 C 
ATOM      2  C   UNL     1       0.350  14.228  19.544  0.00  0.00    -0.032 C 
ATOM      3  C   UNL     1       1.157  15.168  20.443  0.00  0.00    -0.035 C 
ATOM      4  C   UNL     1       2.624  14.771  20.532  0.00  0.00    +0.015 C 
ATOM      5  N   UNL     1       3.263  14.696  19.219  0.00  0.00    -0.299 N 
ATOM      6  C   UNL     1       4.655  14.631  19.179  0.00  0.00    +0.220 C 
ATOM      7  O   UNL     1       5.313  14.528  20.216  0.00  0.00    -0.275 OA
ATOM      8  C   UNL     1       2.383  14.533  18.050  0.00  0.00    +0.033 C 
ATOM      9  H   UNL     1       0.526  13.575  17.495  0.00  0.00    +0.051 HD
ATOM     10  H   UNL     1      -0.499  14.795  19.140  0.00  0.00    +0.028 HD
ATOM     11  H   UNL     1      -0.085  13.425  20.148  0.00  0.00    +0.028 HD
ATOM     12  H   UNL     1       1.091  16.187  20.037  0.00  0.00    +0.028 HD
ATOM     13  H   UNL     1       0.711  15.206  21.442  0.00  0.00    +0.028 HD
ATOM     14  H   UNL     1       2.727  13.787  21.007  0.00  0.00    +0.046 HD
ATOM     15  H   UNL     1       3.172  15.488  21.155  0.00  0.00    +0.046 HD
ATOM     16  H   UNL     1       2.938  14.110  17.210  0.00  0.00    +0.048 HD
ATOM     17  H   UNL     1       2.050  15.534  17.755  0.00  0.00    +0.048 HD
ENDROOT
BRANCH   1  20
ATOM     18  O   UNL     1      -0.496  11.361  18.434  0.00  0.00    -0.270 OA
ATOM     19  C   UNL     1       0.696  11.234  18.680  0.00  0.00    +0.246 C 
ATOM     20  N   UNL     1       1.594  12.276  18.698  0.00  0.00    -0.307 N 
ATOM     21  H   UNL     1       2.587  12.075  18.641  0.00  0.00    +0.149 HD
BRANCH  19  22
ATOM     22  C   UNL     1       1.254   9.888  18.909  0.00  0.00    +0.067 A 
ATOM     23  C   UNL     1       1.827   9.232  17.812  0.00  0.00    -0.046 A 
ATOM     24  C   UNL     1       2.391   7.973  17.978  0.00  0.00    -0.043 A 
ATOM     25  C   UNL     1       2.352   7.401  19.236  0.00  0.00    +0.028 A 
ATOM     26  N   UNL     1       1.784   7.995  20.310  0.00  0.00    -0.250 NA
ATOM     27  C   UNL     1       1.219   9.235  20.144  0.00  0.00    +0.156 A 
ATOM     28  H   UNL     1       1.844   9.711  16.834  0.00  0.00    +0.063 HD
ATOM     29  H   UNL     1       2.858   7.457  17.148  0.00  0.00    +0.063 HD
ATOM     30  H   UNL     1       2.786   6.422  19.422  0.00  0.00    +0.083 HD
BRANCH  27  31
ATOM     31  C   UNL     1       0.569   9.889  21.352  0.00  0.00    +0.435 C 
ATOM     32  F   UNL     1       0.856   9.220  22.511  0.00  0.00    -0.164 F 
ATOM     33  F   UNL     1       0.959  11.180  21.556  0.00  0.00    -0.164 F 
ATOM     34  F   UNL     1      -0.795   9.935  21.290  0.00  0.00    -0.164 F 
ENDBRANCH  27  31
ENDBRANCH  19  22
ENDBRANCH   1  20
BRANCH   6  35
ATOM     35  C   UNL     1       5.310  14.677  17.801  0.00  0.00    +0.049 C 
ATOM     36  H   UNL     1       5.213  15.685  17.378  0.00  0.00    +0.041 HD
ATOM     37  H   UNL     1       4.765  13.991  17.141  0.00  0.00    +0.041 HD
BRANCH  35  38
ATOM     38  C   UNL     1       6.778  14.320  17.803  0.00  0.00    -0.039 A 
ATOM     39  C   UNL     1       7.205  13.038  17.433  0.00  0.00    -0.058 A 
ATOM     40  C   UNL     1       8.562  12.714  17.438  0.00  0.00    -0.061 A 
ATOM     41  C   UNL     1       9.505  13.668  17.821  0.00  0.00    -0.062 A 
ATOM     42  C   UNL     1       9.091  14.942  18.204  0.00  0.00    -0.061 A 
ATOM     43  C   UNL     1       7.734  15.267  18.199  0.00  0.00    -0.058 A 
ATOM     44  H   UNL     1       6.481  12.279  17.145  0.00  0.00    +0.062 HD
ATOM     45  H   UNL     1       8.884  11.717  17.152  0.00  0.00    +0.062 HD
ATOM     46  H   UNL     1      10.561  13.414  17.830  0.00  0.00    +0.062 HD
ATOM     47  H   UNL     1       9.826  15.681  18.514  0.00  0.00    +0.062 HD
ATOM     48  H   UNL     1       7.427  16.263  18.509  0.00  0.00    +0.062 HD
ENDBRANCH  35  38
ENDBRANCH   6  35
TORSDOF 5
ENDMDL
MODEL 11
REMARK VINA RESULT:    -6.782      2.133      4.981
REMARK INTER + INTRA:          -8.759
REMARK INTER:                  -7.672
REMARK INTRA:                  -1.087
REMARK UNBOUND:                 0.005
REMARK  Name = 
REMARK  5 active torsions:
REMARK  status: ('A' for Active; 'I' for Inactive)
REMARK    1  A    between atoms: C_2  and  C_19
REMARK    2  A    between atoms: N_3  and  C_4
REMARK    3  A    between atoms: C_9  and  C_11
REMARK    4  A    between atoms: C_11  and  C_12
REMARK    5  A    between atoms: C_24  and  C_25
REMARK                            x       y       z     vdW  Elec       q    Type
REMARK                         _______ _______ _______ _____ _____    ______ ____
ROOT
ATOM      1  C   UNL     1       4.985   6.890  16.871  0.00  0.00    +0.039 C 
ATOM      2  C   UNL     1       6.393   7.504  16.961  0.00  0.00    -0.032 C 
ATOM      3  C   UNL     1       7.423   6.570  17.602  0.00  0.00    -0.035 C 
ATOM      4  C   UNL     1       6.808   5.660  18.656  0.00  0.00    +0.015 C 
ATOM      5  N   UNL     1       5.701   4.864  18.129  0.00  0.00    -0.299 N 
ATOM      6  C   UNL     1       5.248   3.794  18.899  0.00  0.00    +0.220 C 
ATOM      7  O   UNL     1       5.693   3.599  20.033  0.00  0.00    -0.275 OA
ATOM      8  C   UNL     1       5.045   5.350  16.904  0.00  0.00    +0.033 C 
ATOM      9  H   UNL     1       4.520   7.208  15.931  0.00  0.00    +0.051 HD
ATOM     10  H   UNL     1       6.745   7.751  15.950  0.00  0.00    +0.028 HD
ATOM     11  H   UNL     1       6.363   8.451  17.510  0.00  0.00    +0.028 HD
ATOM     12  H   UNL     1       7.871   5.947  16.815  0.00  0.00    +0.028 HD
ATOM     13  H   UNL     1       8.242   7.156  18.034  0.00  0.00    +0.028 HD
ATOM     14  H   UNL     1       6.420   6.252  19.494  0.00  0.00    +0.046 HD
ATOM     15  H   UNL     1       7.571   4.986  19.063  0.00  0.00    +0.046 HD
ATOM     16  H   UNL     1       4.038   4.936  16.819  0.00  0.00    +0.048 HD
ATOM     17  H   UNL     1       5.629   4.976  16.056  0.00  0.00    +0.048 HD
ENDROOT
BRANCH   1  20
ATOM     18  O   UNL     1       2.274   6.228  17.312  0.00  0.00    -0.270 OA
ATOM     19  C   UNL     1       2.831   7.000  18.081  0.00  0.00    +0.246 C 
ATOM     20  N   UNL     1       4.140   7.403  17.954  0.00  0.00    -0.307 N 
ATOM     21  H   UNL     1       4.611   7.817  18.752  0.00  0.00    +0.149 HD
BRANCH  19  22
ATOM     22  C   UNL     1       2.108   7.495  19.268  0.00  0.00    +0.067 A 
ATOM     23  C   UNL     1       2.018   6.638  20.372  0.00  0.00    -0.046 A 
ATOM     24  C   UNL     1       1.371   7.065  21.526  0.00  0.00    -0.043 A 
ATOM     25  C   UNL     1       0.820   8.333  21.534  0.00  0.00    +0.028 A 
ATOM     26  N   UNL     1       0.867   9.175  20.477  0.00  0.00    -0.250 NA
ATOM     27  C   UNL     1       1.498   8.750  19.335  0.00  0.00    +0.156 A 
ATOM     28  H   UNL     1       2.465   5.646  20.335  0.00  0.00    +0.063 HD
ATOM     29  H   UNL     1       1.308   6.426  22.399  0.00  0.00    +0.063 HD
ATOM     30  H   UNL     1       0.311   8.719  22.413  0.00  0.00    +0.083 HD
BRANCH  27  31
ATOM     31  C   UNL     1       1.532   9.697  18.146  0.00  0.00    +0.435 C 
ATOM     32  F   UNL     1       1.015   9.120  17.018  0.00  0.00    -0.164 F 
ATOM     33  F   UNL     1       0.825  10.848  18.338  0.00  0.00    -0.164 F 
ATOM     34  F   UNL     1       2.789  10.105  17.800  0.00  0.00    -0.164 F 
ENDBRANCH  27  31
ENDBRANCH  19  22
ENDBRANCH   1  20
BRANCH   6  35
ATOM     35  C   UNL     1       4.177   2.901  18.281  0.00  0.00    +0.049 C 
ATOM     36  H   UNL     1       4.524   1.860  18.267  0.00  0.00    +0.041 HD
ATOM     37  H   UNL     1       4.033   3.212  17.239  0.00  0.00    +0.041 HD
BRANCH  35  38
ATOM     38  C   UNL     1       2.852   2.932  19.008  0.00  0.00    -0.039 A 
ATOM     39  C   UNL     1       1.645   2.936  18.296  0.00  0.00    -0.058 A 
ATOM     40  C   UNL     1       0.424   2.966  18.973  0.00  0.00    -0.061 A 
ATOM     41  C   UNL     1       0.401   3.000  20.367  0.00  0.00    -0.062 A 
ATOM     42  C   UNL     1       1.596   3.010  21.084  0.00  0.00    -0.061 A 
ATOM     43  C   UNL     1       2.816   2.980  20.409  0.00  0.00    -0.058 A 
ATOM     44  H   UNL     1       1.646   2.923  17.209  0.00  0.00    +0.062 HD
ATOM     45  H   UNL     1      -0.507   2.971  18.415  0.00  0.00    +0.062 HD
ATOM     46  H   UNL     1      -0.549   3.029  20.893  0.00  0.00    +0.062 HD
ATOM     47  H   UNL     1       1.577   3.049  22.170  0.00  0.00    +0.062 HD
ATOM     48  H   UNL     1       3.740   2.997  20.983  0.00  0.00    +0.062 HD
ENDBRANCH  35  38
ENDBRANCH   6  35
TORSDOF 5
ENDMDL
MODEL 12
REMARK VINA RESULT:    -6.770      3.761      6.880
REMARK INTER + INTRA:          -8.743
REMARK INTER:                  -8.907
REMARK INTRA:                   0.164
REMARK UNBOUND:                 0.005
REMARK  Name = 
REMARK  5 active torsions:
REMARK  status: ('A' for Active; 'I' for Inactive)
REMARK    1  A    between atoms: C_2  and  C_19
REMARK    2  A    between atoms: N_3  and  C_4
REMARK    3  A    between atoms: C_9  and  C_11
REMARK    4  A    between atoms: C_11  and  C_12
REMARK    5  A    between atoms: C_24  and  C_25
REMARK                            x       y       z     vdW  Elec       q    Type
REMARK                         _______ _______ _______ _____ _____    ______ ____
ROOT
ATOM      1  C   UNL     1       2.039   4.066  17.863  0.00  0.00    +0.039 C 
ATOM      2  C   UNL     1       1.391   3.012  18.779  0.00  0.00    -0.032 C 
ATOM      3  C   UNL     1       0.760   3.608  20.040  0.00  0.00    -0.035 C 
ATOM      4  C   UNL     1       1.500   4.844  20.533  0.00  0.00    +0.015 C 
ATOM      5  N   UNL     1       1.596   5.882  19.508  0.00  0.00    -0.299 N 
ATOM      6  C   UNL     1       1.984   7.158  19.913  0.00  0.00    +0.220 C 
ATOM      7  O   UNL     1       2.339   7.372  21.074  0.00  0.00    -0.275 OA
ATOM      8  C   UNL     1       1.433   5.462  18.106  0.00  0.00    +0.033 C 
ATOM      9  H   UNL     1       1.867   3.780  16.820  0.00  0.00    +0.051 HD
ATOM     10  H   UNL     1       0.604   2.485  18.224  0.00  0.00    +0.028 HD
ATOM     11  H   UNL     1       2.124   2.248  19.061  0.00  0.00    +0.028 HD
ATOM     12  H   UNL     1      -0.279   3.883  19.816  0.00  0.00    +0.028 HD
ATOM     13  H   UNL     1       0.714   2.850  20.830  0.00  0.00    +0.028 HD
ATOM     14  H   UNL     1       2.521   4.584  20.838  0.00  0.00    +0.046 HD
ATOM     15  H   UNL     1       0.995   5.258  21.414  0.00  0.00    +0.046 HD
ATOM     16  H   UNL     1       1.892   6.190  17.433  0.00  0.00    +0.048 HD
ATOM     17  H   UNL     1       0.358   5.450  17.896  0.00  0.00    +0.048 HD
ENDROOT
BRANCH   1  20
ATOM     18  O   UNL     1       3.808   6.078  16.967  0.00  0.00    -0.270 OA
ATOM     19  C   UNL     1       4.256   5.127  17.592  0.00  0.00    +0.246 C 
ATOM     20  N   UNL     1       3.492   4.084  18.062  0.00  0.00    -0.307 N 
ATOM     21  H   UNL     1       3.867   3.481  18.787  0.00  0.00    +0.149 HD
BRANCH  19  22
ATOM     22  C   UNL     1       5.689   5.095  17.943  0.00  0.00    +0.067 A 
ATOM     23  C   UNL     1       6.047   5.518  19.229  0.00  0.00    -0.046 A 
ATOM     24  C   UNL     1       7.381   5.483  19.620  0.00  0.00    -0.043 A 
ATOM     25  C   UNL     1       8.318   5.039  18.706  0.00  0.00    +0.028 A 
ATOM     26  N   UNL     1       8.009   4.646  17.449  0.00  0.00    -0.250 NA
ATOM     27  C   UNL     1       6.693   4.690  17.060  0.00  0.00    +0.156 A 
ATOM     28  H   UNL     1       5.285   5.861  19.927  0.00  0.00    +0.063 HD
ATOM     29  H   UNL     1       7.678   5.787  20.617  0.00  0.00    +0.063 HD
ATOM     30  H   UNL     1       9.372   4.983  18.964  0.00  0.00    +0.083 HD
BRANCH  27  31
ATOM     31  C   UNL     1       6.356   4.263  15.640  0.00  0.00    +0.435 C 
ATOM     32  F   UNL     1       7.466   4.225  14.842  0.00  0.00    -0.164 F 
ATOM     33  F   UNL     1       5.790   3.025  15.557  0.00  0.00    -0.164 F 
ATOM     34  F   UNL     1       5.482   5.097  15.004  0.00  0.00    -0.164 F 
ENDBRANCH  27  31
ENDBRANCH  19  22
ENDBRANCH   1  20
BRANCH   6  35
ATOM     35  C   UNL     1       1.961   8.257  18.854  0.00  0.00    +0.049 C 
ATOM     36  H   UNL     1       1.820   7.812  17.861  0.00  0.00    +0.041 HD
ATOM     37  H   UNL     1       2.941   8.752  18.855  0.00  0.00    +0.041 HD
BRANCH  35  38
ATOM     38  C   UNL     1       0.872   9.285  19.054  0.00  0.00    -0.039 A 
ATOM     39  C   UNL     1       0.016   9.636  18.002  0.00  0.00    -0.058 A 
ATOM     40  C   UNL     1      -0.987  10.588  18.192  0.00  0.00    -0.061 A 
ATOM     41  C   UNL     1      -1.139  11.201  19.435  0.00  0.00    -0.062 A 
ATOM     42  C   UNL     1      -0.285  10.869  20.485  0.00  0.00    -0.061 A 
ATOM     43  C   UNL     1       0.718   9.919  20.296  0.00  0.00    -0.058 A 
ATOM     44  H   UNL     1       0.130   9.176  17.023  0.00  0.00    +0.062 HD
ATOM     45  H   UNL     1      -1.645  10.856  17.371  0.00  0.00    +0.062 HD
ATOM     46  H   UNL     1      -1.917  11.945  19.582  0.00  0.00    +0.062 HD
ATOM     47  H   UNL     1      -0.396  11.357  21.450  0.00  0.00    +0.062 HD
ATOM     48  H   UNL     1       1.382   9.677  21.123  0.00  0.00    +0.062 HD
ENDBRANCH  35  38
ENDBRANCH   6  35
TORSDOF 5
ENDMDL
MODEL 13
REMARK VINA RESULT:    -6.698      3.421      7.427
REMARK INTER + INTRA:          -8.650
REMARK INTER:                  -8.468
REMARK INTRA:                  -0.182
REMARK UNBOUND:                 0.005
REMARK  Name = 
REMARK  5 active torsions:
REMARK  status: ('A' for Active; 'I' for Inactive)
REMARK    1  A    between atoms: C_2  and  C_19
REMARK    2  A    between atoms: N_3  and  C_4
REMARK    3  A    between atoms: C_9  and  C_11
REMARK    4  A    between atoms: C_11  and  C_12
REMARK    5  A    between atoms: C_24  and  C_25
REMARK                            x       y       z     vdW  Elec       q    Type
REMARK                         _______ _______ _______ _____ _____    ______ ____
ROOT
ATOM      1  C   UNL     1       0.460   7.924  21.521  0.00  0.00    +0.039 C 
ATOM      2  C   UNL     1       0.866   8.905  22.635  0.00  0.00    -0.032 C 
ATOM      3  C   UNL     1       0.858  10.369  22.188  0.00  0.00    -0.035 C 
ATOM      4  C   UNL     1       1.220  10.532  20.719  0.00  0.00    +0.015 C 
ATOM      5  N   UNL     1       0.346   9.758  19.839  0.00  0.00    -0.299 N 
ATOM      6  C   UNL     1       0.381  10.043  18.475  0.00  0.00    +0.220 C 
ATOM      7  O   UNL     1       1.201  10.842  18.018  0.00  0.00    -0.275 OA
ATOM      8  C   UNL     1      -0.384   8.628  20.440  0.00  0.00    +0.033 C 
ATOM      9  H   UNL     1      -0.132   7.114  21.962  0.00  0.00    +0.051 HD
ATOM     10  H   UNL     1       0.169   8.805  23.477  0.00  0.00    +0.028 HD
ATOM     11  H   UNL     1       1.855   8.647  23.029  0.00  0.00    +0.028 HD
ATOM     12  H   UNL     1      -0.147  10.781  22.353  0.00  0.00    +0.028 HD
ATOM     13  H   UNL     1       1.537  10.956  22.816  0.00  0.00    +0.028 HD
ATOM     14  H   UNL     1       2.249  10.200  20.538  0.00  0.00    +0.046 HD
ATOM     15  H   UNL     1       1.167  11.590  20.433  0.00  0.00    +0.046 HD
ATOM     16  H   UNL     1      -0.678   7.911  19.670  0.00  0.00    +0.048 HD
ATOM     17  H   UNL     1      -1.301   9.035  20.880  0.00  0.00    +0.048 HD
ENDROOT
BRANCH   1  20
ATOM     18  O   UNL     1       0.616   5.309  20.464  0.00  0.00    -0.270 OA
ATOM     19  C   UNL     1       1.609   6.023  20.433  0.00  0.00    +0.246 C 
ATOM     20  N   UNL     1       1.651   7.305  20.933  0.00  0.00    -0.307 N 
ATOM     21  H   UNL     1       2.400   7.925  20.642  0.00  0.00    +0.149 HD
BRANCH  19  22
ATOM     22  C   UNL     1       2.834   5.542  19.768  0.00  0.00    +0.067 A 
ATOM     23  C   UNL     1       3.433   6.390  18.828  0.00  0.00    -0.046 A 
ATOM     24  C   UNL     1       4.604   5.996  18.191  0.00  0.00    -0.043 A 
ATOM     25  C   UNL     1       5.133   4.757  18.504  0.00  0.00    +0.028 A 
ATOM     26  N   UNL     1       4.567   3.905  19.388  0.00  0.00    -0.250 NA
ATOM     27  C   UNL     1       3.405   4.290  20.010  0.00  0.00    +0.156 A 
ATOM     28  H   UNL     1       2.993   7.360  18.605  0.00  0.00    +0.063 HD
ATOM     29  H   UNL     1       5.095   6.645  17.475  0.00  0.00    +0.063 HD
ATOM     30  H   UNL     1       6.051   4.405  18.042  0.00  0.00    +0.083 HD
BRANCH  27  31
ATOM     31  C   UNL     1       2.767   3.319  20.990  0.00  0.00    +0.435 C 
ATOM     32  F   UNL     1       3.599   2.276  21.291  0.00  0.00    -0.164 F 
ATOM     33  F   UNL     1       2.426   3.885  22.183  0.00  0.00    -0.164 F 
ATOM     34  F   UNL     1       1.617   2.743  20.529  0.00  0.00    -0.164 F 
ENDBRANCH  27  31
ENDBRANCH  19  22
ENDBRANCH   1  20
BRANCH   6  35
ATOM     35  C   UNL     1      -0.623   9.312  17.590  0.00  0.00    +0.049 C 
ATOM     36  H   UNL     1      -0.915   8.366  18.062  0.00  0.00    +0.041 HD
ATOM     37  H   UNL     1      -0.127   9.066  16.642  0.00  0.00    +0.041 HD
BRANCH  35  38
ATOM     38  C   UNL     1      -1.887  10.094  17.313  0.00  0.00    -0.039 A 
ATOM     39  C   UNL     1      -2.491  10.858  18.320  0.00  0.00    -0.058 A 
ATOM     40  C   UNL     1      -3.659  11.577  18.059  0.00  0.00    -0.061 A 
ATOM     41  C   UNL     1      -4.236  11.531  16.791  0.00  0.00    -0.062 A 
ATOM     42  C   UNL     1      -3.651  10.764  15.785  0.00  0.00    -0.061 A 
ATOM     43  C   UNL     1      -2.484  10.045  16.045  0.00  0.00    -0.058 A 
ATOM     44  H   UNL     1      -2.061  10.894  19.318  0.00  0.00    +0.062 HD
ATOM     45  H   UNL     1      -4.122  12.165  18.845  0.00  0.00    +0.062 HD
ATOM     46  H   UNL     1      -5.148  12.087  16.589  0.00  0.00    +0.062 HD
ATOM     47  H   UNL     1      -4.109  10.719  14.800  0.00  0.00    +0.062 HD
ATOM     48  H   UNL     1      -2.044   9.444  15.253  0.00  0.00    +0.062 HD
ENDBRANCH  35  38
ENDBRANCH   6  35
TORSDOF 5
ENDMDL
MODEL 14
REMARK VINA RESULT:    -6.680      3.431      7.439
REMARK INTER + INTRA:          -8.628
REMARK INTER:                  -8.468
REMARK INTRA:                  -0.160
REMARK UNBOUND:                 0.005
REMARK  Name = 
REMARK  5 active torsions:
REMARK  status: ('A' for Active; 'I' for Inactive)
REMARK    1  A    between atoms: C_2  and  C_19
REMARK    2  A    between atoms: N_3  and  C_4
REMARK    3  A    between atoms: C_9  and  C_11
REMARK    4  A    between atoms: C_11  and  C_12
REMARK    5  A    between atoms: C_24  and  C_25
REMARK                            x       y       z     vdW  Elec       q    Type
REMARK                         _______ _______ _______ _____ _____    ______ ____
ROOT
ATOM      1  C   UNL     1       0.507   8.058  21.465  0.00  0.00    +0.039 C 
ATOM      2  C   UNL     1       0.954   9.088  22.517  0.00  0.00    -0.032 C 
ATOM      3  C   UNL     1       0.933  10.530  22.003  0.00  0.00    -0.035 C 
ATOM      4  C   UNL     1       1.244  10.623  20.516  0.00  0.00    +0.015 C 
ATOM      5  N   UNL     1       0.338   9.811  19.705  0.00  0.00    -0.299 N 
ATOM      6  C   UNL     1       0.327  10.033  18.328  0.00  0.00    +0.220 C 
ATOM      7  O   UNL     1       1.132  10.807  17.807  0.00  0.00    -0.275 OA
ATOM      8  C   UNL     1      -0.372   8.714  20.382  0.00  0.00    +0.033 C 
ATOM      9  H   UNL     1      -0.071   7.271  21.964  0.00  0.00    +0.051 HD
ATOM     10  H   UNL     1       0.286   9.030  23.387  0.00  0.00    +0.028 HD
ATOM     11  H   UNL     1       1.955   8.845  22.889  0.00  0.00    +0.028 HD
ATOM     12  H   UNL     1      -0.065  10.953  22.183  0.00  0.00    +0.028 HD
ATOM     13  H   UNL     1       1.635  11.143  22.579  0.00  0.00    +0.028 HD
ATOM     14  H   UNL     1       2.266  10.279  20.316  0.00  0.00    +0.046 HD
ATOM     15  H   UNL     1       1.183  11.666  20.183  0.00  0.00    +0.046 HD
ATOM     16  H   UNL     1      -0.695   7.962  19.658  0.00  0.00    +0.048 HD
ATOM     17  H   UNL     1      -1.273   9.144  20.834  0.00  0.00    +0.048 HD
ENDROOT
BRANCH   1  20
ATOM     18  O   UNL     1       0.589   5.432  20.426  0.00  0.00    -0.270 OA
ATOM     19  C   UNL     1       1.598   6.123  20.377  0.00  0.00    +0.246 C 
ATOM     20  N   UNL     1       1.676   7.407  20.865  0.00  0.00    -0.307 N 
ATOM     21  H   UNL     1       2.434   8.008  20.560  0.00  0.00    +0.149 HD
BRANCH  19  22
ATOM     22  C   UNL     1       2.803   5.609  19.699  0.00  0.00    +0.067 A 
ATOM     23  C   UNL     1       3.403   6.433  18.738  0.00  0.00    -0.046 A 
ATOM     24  C   UNL     1       4.556   6.008  18.088  0.00  0.00    -0.043 A 
ATOM     25  C   UNL     1       5.065   4.764  18.409  0.00  0.00    +0.028 A 
ATOM     26  N   UNL     1       4.497   3.934  19.313  0.00  0.00    -0.250 NA
ATOM     27  C   UNL     1       3.353   4.349  19.948  0.00  0.00    +0.156 A 
ATOM     28  H   UNL     1       2.978   7.409  18.509  0.00  0.00    +0.063 HD
ATOM     29  H   UNL     1       5.048   6.638  17.357  0.00  0.00    +0.063 HD
ATOM     30  H   UNL     1       5.969   4.388  17.937  0.00  0.00    +0.083 HD
BRANCH  27  31
ATOM     31  C   UNL     1       2.711   3.404  20.950  0.00  0.00    +0.435 C 
ATOM     32  F   UNL     1       1.537   2.881  20.480  0.00  0.00    -0.164 F 
ATOM     33  F   UNL     1       3.493   2.336  21.279  0.00  0.00    -0.164 F 
ATOM     34  F   UNL     1       2.394   3.992  22.141  0.00  0.00    -0.164 F 
ENDBRANCH  27  31
ENDBRANCH  19  22
ENDBRANCH   1  20
BRANCH   6  35
ATOM     35  C   UNL     1      -0.709   9.265  17.513  0.00  0.00    +0.049 C 
ATOM     36  H   UNL     1      -1.010   8.359  18.054  0.00  0.00    +0.041 HD
ATOM     37  H   UNL     1      -0.237   8.945  16.575  0.00  0.00    +0.041 HD
BRANCH  35  38
ATOM     38  C   UNL     1      -1.962  10.053  17.207  0.00  0.00    -0.039 A 
ATOM     39  C   UNL     1      -2.512  10.053  15.918  0.00  0.00    -0.058 A 
ATOM     40  C   UNL     1      -3.669  10.784  15.643  0.00  0.00    -0.061 A 
ATOM     41  C   UNL     1      -4.281  11.526  16.651  0.00  0.00    -0.062 A 
ATOM     42  C   UNL     1      -3.736  11.544  17.933  0.00  0.00    -0.061 A 
ATOM     43  C   UNL     1      -2.580  10.814  18.210  0.00  0.00    -0.058 A 
ATOM     44  H   UNL     1      -2.039   9.490  15.118  0.00  0.00    +0.062 HD
ATOM     45  H   UNL     1      -4.088  10.780  14.641  0.00  0.00    +0.062 HD
ATOM     46  H   UNL     1      -5.179  12.099  16.435  0.00  0.00    +0.062 HD
ATOM     47  H   UNL     1      -4.207  12.133  18.716  0.00  0.00    +0.062 HD
ATOM     48  H   UNL     1      -2.162  10.845  19.214  0.00  0.00    +0.062 HD
ENDBRANCH  35  38
ENDBRANCH   6  35
TORSDOF 5
ENDMDL
MODEL 15
REMARK VINA RESULT:    -6.608      5.920      9.568
REMARK INTER + INTRA:          -8.535
REMARK INTER:                  -7.423
REMARK INTRA:                  -1.112
REMARK UNBOUND:                 0.005
REMARK  Name = 
REMARK  5 active torsions:
REMARK  status: ('A' for Active; 'I' for Inactive)
REMARK    1  A    between atoms: C_2  and  C_19
REMARK    2  A    between atoms: N_3  and  C_4
REMARK    3  A    between atoms: C_9  and  C_11
REMARK    4  A    between atoms: C_11  and  C_12
REMARK    5  A    between atoms: C_24  and  C_25
REMARK                            x       y       z     vdW  Elec       q    Type
REMARK                         _______ _______ _______ _____ _____    ______ ____
ROOT
ATOM      1  C   UNL     1      -1.923  12.420  22.833  0.00  0.00    +0.039 C 
ATOM      2  C   UNL     1      -1.824  13.518  23.907  0.00  0.00    -0.032 C 
ATOM      3  C   UNL     1      -2.938  14.563  23.812  0.00  0.00    -0.035 C 
ATOM      4  C   UNL     1      -3.399  14.794  22.379  0.00  0.00    +0.015 C 
ATOM      5  N   UNL     1      -3.841  13.561  21.730  0.00  0.00    -0.299 N 
ATOM      6  C   UNL     1      -4.552  13.677  20.536  0.00  0.00    +0.220 C 
ATOM      7  O   UNL     1      -4.703  14.774  19.995  0.00  0.00    -0.275 OA
ATOM      8  C   UNL     1      -3.363  12.291  22.300  0.00  0.00    +0.033 C 
ATOM      9  H   UNL     1      -1.620  11.464  23.276  0.00  0.00    +0.051 HD
ATOM     10  H   UNL     1      -1.878  13.057  24.902  0.00  0.00    +0.028 HD
ATOM     11  H   UNL     1      -0.849  14.014  23.857  0.00  0.00    +0.028 HD
ATOM     12  H   UNL     1      -3.794  14.220  24.408  0.00  0.00    +0.028 HD
ATOM     13  H   UNL     1      -2.607  15.505  24.263  0.00  0.00    +0.028 HD
ATOM     14  H   UNL     1      -2.583  15.212  21.776  0.00  0.00    +0.046 HD
ATOM     15  H   UNL     1      -4.219  15.521  22.360  0.00  0.00    +0.046 HD
ATOM     16  H   UNL     1      -3.415  11.494  21.555  0.00  0.00    +0.048 HD
ATOM     17  H   UNL     1      -4.046  12.026  23.115  0.00  0.00    +0.048 HD
ENDROOT
BRANCH   1  20
ATOM     18  O   UNL     1       0.366  10.892  22.193  0.00  0.00    -0.270 OA
ATOM     19  C   UNL     1       0.094  11.871  21.511  0.00  0.00    +0.246 C 
ATOM     20  N   UNL     1      -0.984  12.694  21.741  0.00  0.00    -0.307 N 
ATOM     21  H   UNL     1      -1.302  13.312  21.001  0.00  0.00    +0.149 HD
BRANCH  19  22
ATOM     22  C   UNL     1       0.910  12.180  20.322  0.00  0.00    +0.067 A 
ATOM     23  C   UNL     1       1.453  13.468  20.229  0.00  0.00    -0.046 A 
ATOM     24  C   UNL     1       2.250  13.804  19.142  0.00  0.00    -0.043 A 
ATOM     25  C   UNL     1       2.468  12.845  18.171  0.00  0.00    +0.028 A 
ATOM     26  N   UNL     1       1.939  11.601  18.217  0.00  0.00    -0.250 NA
ATOM     27  C   UNL     1       1.144  11.272  19.286  0.00  0.00    +0.156 A 
ATOM     28  H   UNL     1       1.264  14.201  21.012  0.00  0.00    +0.063 HD
ATOM     29  H   UNL     1       2.697  14.788  19.061  0.00  0.00    +0.063 HD
ATOM     30  H   UNL     1       3.091  13.053  17.305  0.00  0.00    +0.083 HD
BRANCH  27  31
ATOM     31  C   UNL     1       0.540   9.878  19.322  0.00  0.00    +0.435 C 
ATOM     32  F   UNL     1       0.495   9.308  18.079  0.00  0.00    -0.164 F 
ATOM     33  F   UNL     1       1.223   9.001  20.112  0.00  0.00    -0.164 F 
ATOM     34  F   UNL     1      -0.746   9.843  19.782  0.00  0.00    -0.164 F 
ENDBRANCH  27  31
ENDBRANCH  19  22
ENDBRANCH   1  20
BRANCH   6  35
ATOM     35  C   UNL     1      -5.110  12.390  19.937  0.00  0.00    +0.049 C 
ATOM     36  H   UNL     1      -6.164  12.533  19.665  0.00  0.00    +0.041 HD
ATOM     37  H   UNL     1      -5.074  11.609  20.708  0.00  0.00    +0.041 HD
BRANCH  35  38
ATOM     38  C   UNL     1      -4.380  11.916  18.701  0.00  0.00    -0.039 A 
ATOM     39  C   UNL     1      -2.980  11.861  18.673  0.00  0.00    -0.058 A 
ATOM     40  C   UNL     1      -2.312  11.425  17.528  0.00  0.00    -0.061 A 
ATOM     41  C   UNL     1      -3.037  11.046  16.399  0.00  0.00    -0.062 A 
ATOM     42  C   UNL     1      -4.429  11.109  16.411  0.00  0.00    -0.061 A 
ATOM     43  C   UNL     1      -5.098  11.546  17.555  0.00  0.00    -0.058 A 
ATOM     44  H   UNL     1      -2.399  12.166  19.541  0.00  0.00    +0.062 HD
ATOM     45  H   UNL     1      -1.226  11.387  17.514  0.00  0.00    +0.062 HD
ATOM     46  H   UNL     1      -2.516  10.711  15.507  0.00  0.00    +0.062 HD
ATOM     47  H   UNL     1      -4.993  10.826  15.526  0.00  0.00    +0.062 HD
ATOM     48  H   UNL     1      -6.185  11.597  17.546  0.00  0.00    +0.062 HD
ENDBRANCH  35  38
ENDBRANCH   6  35
TORSDOF 5
ENDMDL
MODEL 16
REMARK VINA RESULT:    -6.605      3.704      7.084
REMARK INTER + INTRA:          -8.530
REMARK INTER:                  -7.986
REMARK INTRA:                  -0.544
REMARK UNBOUND:                 0.005
REMARK  Name = 
REMARK  5 active torsions:
REMARK  status: ('A' for Active; 'I' for Inactive)
REMARK    1  A    between atoms: C_2  and  C_19
REMARK    2  A    between atoms: N_3  and  C_4
REMARK    3  A    between atoms: C_9  and  C_11
REMARK    4  A    between atoms: C_11  and  C_12
REMARK    5  A    between atoms: C_24  and  C_25
REMARK                            x       y       z     vdW  Elec       q    Type
REMARK                         _______ _______ _______ _____ _____    ______ ____
ROOT
ATOM      1  C   UNL     1       3.415   5.609  17.749  0.00  0.00    +0.039 C 
ATOM      2  C   UNL     1       3.150   4.405  18.671  0.00  0.00    -0.032 C 
ATOM      3  C   UNL     1       2.108   4.688  19.755  0.00  0.00    -0.035 C 
ATOM      4  C   UNL     1       2.121   6.140  20.212  0.00  0.00    +0.015 C 
ATOM      5  N   UNL     1       1.928   7.076  19.105  0.00  0.00    -0.299 N 
ATOM      6  C   UNL     1       1.631   8.400  19.421  0.00  0.00    +0.220 C 
ATOM      7  O   UNL     1       1.642   8.788  20.591  0.00  0.00    -0.275 OA
ATOM      8  C   UNL     1       2.220   6.583  17.749  0.00  0.00    +0.033 C 
ATOM      9  H   UNL     1       3.576   5.244  16.729  0.00  0.00    +0.051 HD
ATOM     10  H   UNL     1       2.791   3.561  18.069  0.00  0.00    +0.028 HD
ATOM     11  H   UNL     1       4.083   4.068  19.136  0.00  0.00    +0.028 HD
ATOM     12  H   UNL     1       1.112   4.452  19.355  0.00  0.00    +0.028 HD
ATOM     13  H   UNL     1       2.263   4.018  20.608  0.00  0.00    +0.028 HD
ATOM     14  H   UNL     1       3.079   6.383  20.688  0.00  0.00    +0.046 HD
ATOM     15  H   UNL     1       1.338   6.307  20.961  0.00  0.00    +0.046 HD
ATOM     16  H   UNL     1       2.421   7.419  17.074  0.00  0.00    +0.048 HD
ATOM     17  H   UNL     1       1.318   6.077  17.388  0.00  0.00    +0.048 HD
ENDROOT
BRANCH   1  20
ATOM     18  O   UNL     1       5.571   6.275  16.049  0.00  0.00    -0.270 OA
ATOM     19  C   UNL     1       5.630   6.581  17.232  0.00  0.00    +0.246 C 
ATOM     20  N   UNL     1       4.648   6.293  18.152  0.00  0.00    -0.307 N 
ATOM     21  H   UNL     1       4.630   6.797  19.033  0.00  0.00    +0.149 HD
BRANCH  19  22
ATOM     22  C   UNL     1       6.776   7.367  17.727  0.00  0.00    +0.067 A 
ATOM     23  C   UNL     1       6.875   8.699  17.305  0.00  0.00    -0.046 A 
ATOM     24  C   UNL     1       7.921   9.491  17.762  0.00  0.00    -0.043 A 
ATOM     25  C   UNL     1       8.846   8.922  18.617  0.00  0.00    +0.028 A 
ATOM     26  N   UNL     1       8.794   7.634  19.023  0.00  0.00    -0.250 NA
ATOM     27  C   UNL     1       7.767   6.848  18.564  0.00  0.00    +0.156 A 
ATOM     28  H   UNL     1       6.128   9.119  16.632  0.00  0.00    +0.063 HD
ATOM     29  H   UNL     1       8.005  10.530  17.464  0.00  0.00    +0.063 HD
ATOM     30  H   UNL     1       9.678   9.501  19.010  0.00  0.00    +0.083 HD
BRANCH  27  31
ATOM     31  C   UNL     1       7.725   5.396  19.013  0.00  0.00    +0.435 C 
ATOM     32  F   UNL     1       6.638   5.137  19.802  0.00  0.00    -0.164 F 
ATOM     33  F   UNL     1       7.664   4.503  17.984  0.00  0.00    -0.164 F 
ATOM     34  F   UNL     1       8.807   5.014  19.753  0.00  0.00    -0.164 F 
ENDBRANCH  27  31
ENDBRANCH  19  22
ENDBRANCH   1  20
BRANCH   6  35
ATOM     35  C   UNL     1       1.312   9.334  18.257  0.00  0.00    +0.049 C 
ATOM     36  H   UNL     1       1.255   8.759  17.325  0.00  0.00    +0.041 HD
ATOM     37  H   UNL     1       2.142  10.045  18.153  0.00  0.00    +0.041 HD
BRANCH  35  38
ATOM     38  C   UNL     1       0.012  10.090  18.409  0.00  0.00    -0.039 A 
ATOM     39  C   UNL     1      -1.149   9.657  17.756  0.00  0.00    -0.058 A 
ATOM     40  C   UNL     1      -2.346  10.360  17.899  0.00  0.00    -0.061 A 
ATOM     41  C   UNL     1      -2.390  11.506  18.692  0.00  0.00    -0.062 A 
ATOM     42  C   UNL     1      -1.238  11.953  19.337  0.00  0.00    -0.061 A 
ATOM     43  C   UNL     1      -0.041  11.251  19.193  0.00  0.00    -0.058 A 
ATOM     44  H   UNL     1      -1.128   8.772  17.123  0.00  0.00    +0.062 HD
ATOM     45  H   UNL     1      -3.241  10.019  17.388  0.00  0.00    +0.062 HD
ATOM     46  H   UNL     1      -3.321  12.056  18.800  0.00  0.00    +0.062 HD
ATOM     47  H   UNL     1      -1.271  12.853  19.944  0.00  0.00    +0.062 HD
ATOM     48  H   UNL     1       0.851  11.618  19.696  0.00  0.00    +0.062 HD
ENDBRANCH  35  38
ENDBRANCH   6  35
TORSDOF 5
ENDMDL
MODEL 17
REMARK VINA RESULT:    -6.537      3.579      5.889
REMARK INTER + INTRA:          -8.443
REMARK INTER:                  -7.844
REMARK INTRA:                  -0.600
REMARK UNBOUND:                 0.005
REMARK  Name = 
REMARK  5 active torsions:
REMARK  status: ('A' for Active; 'I' for Inactive)
REMARK    1  A    between atoms: C_2  and  C_19
REMARK    2  A    between atoms: N_3  and  C_4
REMARK    3  A    between atoms: C_9  and  C_11
REMARK    4  A    between atoms: C_11  and  C_12
REMARK    5  A    between atoms: C_24  and  C_25
REMARK                            x       y       z     vdW  Elec       q    Type
REMARK                         _______ _______ _______ _____ _____    ______ ____
ROOT
ATOM      1  C   UNL     1       0.236  10.900  21.079  0.00  0.00    +0.039 C 
ATOM      2  C   UNL     1      -0.333  10.934  22.508  0.00  0.00    -0.032 C 
ATOM      3  C   UNL     1      -0.099   9.636  23.285  0.00  0.00    -0.035 C 
ATOM      4  C   UNL     1      -0.098   8.409  22.384  0.00  0.00    +0.015 C 
ATOM      5  N   UNL     1       0.888   8.508  21.308  0.00  0.00    -0.299 N 
ATOM      6  C   UNL     1       1.192   7.347  20.599  0.00  0.00    +0.220 C 
ATOM      7  O   UNL     1       0.569   6.302  20.801  0.00  0.00    -0.275 OA
ATOM      8  C   UNL     1       1.362   9.855  20.952  0.00  0.00    +0.033 C 
ATOM      9  H   UNL     1       0.640  11.890  20.837  0.00  0.00    +0.051 HD
ATOM     10  H   UNL     1       0.140  11.751  23.067  0.00  0.00    +0.028 HD
ATOM     11  H   UNL     1      -1.404  11.162  22.488  0.00  0.00    +0.028 HD
ATOM     12  H   UNL     1       0.871   9.701  23.795  0.00  0.00    +0.028 HD
ATOM     13  H   UNL     1      -0.854   9.529  24.073  0.00  0.00    +0.028 HD
ATOM     14  H   UNL     1      -1.082   8.273  21.919  0.00  0.00    +0.046 HD
ATOM     15  H   UNL     1       0.108   7.508  22.974  0.00  0.00    +0.046 HD
ATOM     16  H   UNL     1       1.765   9.863  19.936  0.00  0.00    +0.048 HD
ATOM     17  H   UNL     1       2.184  10.099  21.635  0.00  0.00    +0.048 HD
ENDROOT
BRANCH   1  20
ATOM     18  O   UNL     1      -0.469  12.545  18.893  0.00  0.00    -0.270 OA
ATOM     19  C   UNL     1      -1.082  11.502  19.075  0.00  0.00    +0.246 C 
ATOM     20  N   UNL     1      -0.835  10.635  20.114  0.00  0.00    -0.307 N 
ATOM     21  H   UNL     1      -1.181   9.682  20.057  0.00  0.00    +0.149 HD
BRANCH  19  22
ATOM     22  C   UNL     1      -2.110  11.081  18.104  0.00  0.00    +0.067 A 
ATOM     23  C   UNL     1      -1.691  10.296  17.022  0.00  0.00    -0.046 A 
ATOM     24  C   UNL     1      -2.622   9.850  16.092  0.00  0.00    -0.043 A 
ATOM     25  C   UNL     1      -3.944  10.215  16.265  0.00  0.00    +0.028 A 
ATOM     26  N   UNL     1      -4.378  10.992  17.284  0.00  0.00    -0.250 NA
ATOM     27  C   UNL     1      -3.456  11.440  18.197  0.00  0.00    +0.156 A 
ATOM     28  H   UNL     1      -0.642  10.023  16.915  0.00  0.00    +0.063 HD
ATOM     29  H   UNL     1      -2.323   9.225  15.259  0.00  0.00    +0.063 HD
ATOM     30  H   UNL     1      -4.714   9.886  15.572  0.00  0.00    +0.083 HD
BRANCH  27  31
ATOM     31  C   UNL     1      -3.949  12.326  19.329  0.00  0.00    +0.435 C 
ATOM     32  F   UNL     1      -5.146  12.918  19.031  0.00  0.00    -0.164 F 
ATOM     33  F   UNL     1      -4.141  11.662  20.505  0.00  0.00    -0.164 F 
ATOM     34  F   UNL     1      -3.104  13.354  19.636  0.00  0.00    -0.164 F 
ENDBRANCH  27  31
ENDBRANCH  19  22
ENDBRANCH   1  20
BRANCH   6  35
ATOM     35  C   UNL     1       2.309   7.442  19.564  0.00  0.00    +0.049 C 
ATOM     36  H   UNL     1       3.170   7.967  19.995  0.00  0.00    +0.041 HD
ATOM     37  H   UNL     1       1.944   8.044  18.723  0.00  0.00    +0.041 HD
BRANCH  35  38
ATOM     38  C   UNL     1       2.795   6.103  19.057  0.00  0.00    -0.039 A 
ATOM     39  C   UNL     1       3.937   5.502  19.603  0.00  0.00    -0.058 A 
ATOM     40  C   UNL     1       4.382   4.267  19.129  0.00  0.00    -0.061 A 
ATOM     41  C   UNL     1       3.693   3.626  18.100  0.00  0.00    -0.062 A 
ATOM     42  C   UNL     1       2.564   4.221  17.541  0.00  0.00    -0.061 A 
ATOM     43  C   UNL     1       2.118   5.456  18.013  0.00  0.00    -0.058 A 
ATOM     44  H   UNL     1       4.493   5.996  20.397  0.00  0.00    +0.062 HD
ATOM     45  H   UNL     1       5.269   3.809  19.556  0.00  0.00    +0.062 HD
ATOM     46  H   UNL     1       4.043   2.667  17.728  0.00  0.00    +0.062 HD
ATOM     47  H   UNL     1       2.035   3.726  16.730  0.00  0.00    +0.062 HD
ATOM     48  H   UNL     1       1.241   5.911  17.561  0.00  0.00    +0.062 HD
ENDBRANCH  35  38
ENDBRANCH   6  35
TORSDOF 5
ENDMDL
MODEL 18
REMARK VINA RESULT:    -6.359      3.432      7.363
REMARK INTER + INTRA:          -8.213
REMARK INTER:                  -7.755
REMARK INTRA:                  -0.458
REMARK UNBOUND:                 0.005
REMARK  Name = 
REMARK  5 active torsions:
REMARK  status: ('A' for Active; 'I' for Inactive)
REMARK    1  A    between atoms: C_2  and  C_19
REMARK    2  A    between atoms: N_3  and  C_4
REMARK    3  A    between atoms: C_9  and  C_11
REMARK    4  A    between atoms: C_11  and  C_12
REMARK    5  A    between atoms: C_24  and  C_25
REMARK                            x       y       z     vdW  Elec       q    Type
REMARK                         _______ _______ _______ _____ _____    ______ ____
ROOT
ATOM      1  C   UNL     1       0.619   7.990  21.376  0.00  0.00    +0.039 C 
ATOM      2  C   UNL     1       0.972   8.896  22.569  0.00  0.00    -0.032 C 
ATOM      3  C   UNL     1       0.794  10.387  22.272  0.00  0.00    -0.035 C 
ATOM      4  C   UNL     1       1.073  10.729  20.815  0.00  0.00    +0.015 C 
ATOM      5  N   UNL     1       0.245   9.954  19.892  0.00  0.00    -0.299 N 
ATOM      6  C   UNL     1       0.191  10.372  18.563  0.00  0.00    +0.220 C 
ATOM      7  O   UNL     1       0.905  11.294  18.162  0.00  0.00    -0.275 OA
ATOM      8  C   UNL     1      -0.339   8.702  20.400  0.00  0.00    +0.033 C 
ATOM      9  H   UNL     1       0.133   7.083  21.754  0.00  0.00    +0.051 HD
ATOM     10  H   UNL     1       0.326   8.642  23.420  0.00  0.00    +0.028 HD
ATOM     11  H   UNL     1       1.998   8.707  22.902  0.00  0.00    +0.028 HD
ATOM     12  H   UNL     1      -0.239  10.673  22.511  0.00  0.00    +0.028 HD
ATOM     13  H   UNL     1       1.437  10.980  22.933  0.00  0.00    +0.028 HD
ATOM     14  H   UNL     1       2.123  10.526  20.568  0.00  0.00    +0.046 HD
ATOM     15  H   UNL     1       0.900  11.797  20.639  0.00  0.00    +0.046 HD
ATOM     16  H   UNL     1      -0.592   8.034  19.573  0.00  0.00    +0.048 HD
ATOM     17  H   UNL     1      -1.272   8.965  20.910  0.00  0.00    +0.048 HD
ENDROOT
BRANCH   1  20
ATOM     18  O   UNL     1       1.128   5.399  20.372  0.00  0.00    -0.270 OA
ATOM     19  C   UNL     1       1.975   6.270  20.227  0.00  0.00    +0.246 C 
ATOM     20  N   UNL     1       1.840   7.559  20.689  0.00  0.00    -0.307 N 
ATOM     21  H   UNL     1       2.440   8.286  20.312  0.00  0.00    +0.149 HD
BRANCH  19  22
ATOM     22  C   UNL     1       3.199   5.978  19.457  0.00  0.00    +0.067 A 
ATOM     23  C   UNL     1       4.046   4.977  19.949  0.00  0.00    -0.046 A 
ATOM     24  C   UNL     1       5.199   4.644  19.248  0.00  0.00    -0.043 A 
ATOM     25  C   UNL     1       5.477   5.333  18.083  0.00  0.00    +0.028 A 
ATOM     26  N   UNL     1       4.694   6.321  17.594  0.00  0.00    -0.250 NA
ATOM     27  C   UNL     1       3.561   6.657  18.291  0.00  0.00    +0.156 A 
ATOM     28  H   UNL     1       3.798   4.451  20.869  0.00  0.00    +0.063 HD
ATOM     29  H   UNL     1       5.858   3.858  19.600  0.00  0.00    +0.063 HD
ATOM     30  H   UNL     1       6.361   5.105  17.493  0.00  0.00    +0.083 HD
BRANCH  27  31
ATOM     31  C   UNL     1       2.694   7.779  17.743  0.00  0.00    +0.435 C 
ATOM     32  F   UNL     1       3.069   8.143  16.479  0.00  0.00    -0.164 F 
ATOM     33  F   UNL     1       1.369   7.466  17.667  0.00  0.00    -0.164 F 
ATOM     34  F   UNL     1       2.746   8.928  18.480  0.00  0.00    -0.164 F 
ENDBRANCH  27  31
ENDBRANCH  19  22
ENDBRANCH   1  20
BRANCH   6  35
ATOM     35  C   UNL     1      -0.771   9.628  17.643  0.00  0.00    +0.049 C 
ATOM     36  H   UNL     1      -0.992   8.637  18.060  0.00  0.00    +0.041 HD
ATOM     37  H   UNL     1      -0.270   9.473  16.678  0.00  0.00    +0.041 HD
BRANCH  35  38
ATOM     38  C   UNL     1      -2.088  10.336  17.423  0.00  0.00    -0.039 A 
ATOM     39  C   UNL     1      -2.651  11.130  18.431  0.00  0.00    -0.058 A 
ATOM     40  C   UNL     1      -3.868  11.780  18.222  0.00  0.00    -0.061 A 
ATOM     41  C   UNL     1      -4.536  11.637  17.007  0.00  0.00    -0.062 A 
ATOM     42  C   UNL     1      -3.991  10.839  16.002  0.00  0.00    -0.061 A 
ATOM     43  C   UNL     1      -2.775  10.188  16.210  0.00  0.00    -0.058 A 
ATOM     44  H   UNL     1      -2.150  11.241  19.389  0.00  0.00    +0.062 HD
ATOM     45  H   UNL     1      -4.299  12.392  19.009  0.00  0.00    +0.062 HD
ATOM     46  H   UNL     1      -5.486  12.139  16.846  0.00  0.00    +0.062 HD
ATOM     47  H   UNL     1      -4.519  10.718  15.059  0.00  0.00    +0.062 HD
ATOM     48  H   UNL     1      -2.367   9.563  15.419  0.00  0.00    +0.062 HD
ENDBRANCH  35  38
ENDBRANCH   6  35
TORSDOF 5
ENDMDL
MODEL 19
REMARK VINA RESULT:    -6.221      4.265      6.779
REMARK INTER + INTRA:          -8.034
REMARK INTER:                  -7.720
REMARK INTRA:                  -0.314
REMARK UNBOUND:                 0.005
REMARK  Name = 
REMARK  5 active torsions:
REMARK  status: ('A' for Active; 'I' for Inactive)
REMARK    1  A    between atoms: C_2  and  C_19
REMARK    2  A    between atoms: N_3  and  C_4
REMARK    3  A    between atoms: C_9  and  C_11
REMARK    4  A    between atoms: C_11  and  C_12
REMARK    5  A    between atoms: C_24  and  C_25
REMARK                            x       y       z     vdW  Elec       q    Type
REMARK                         _______ _______ _______ _____ _____    ______ ____
ROOT
ATOM      1  C   UNL     1       0.703  11.495  20.923  0.00  0.00    +0.039 C 
ATOM      2  C   UNL     1      -0.682  11.963  20.441  0.00  0.00    -0.032 C 
ATOM      3  C   UNL     1      -1.338  10.999  19.449  0.00  0.00    -0.035 C 
ATOM      4  C   UNL     1      -0.319  10.277  18.579  0.00  0.00    +0.015 C 
ATOM      5  N   UNL     1       0.674   9.549  19.368  0.00  0.00    -0.299 N 
ATOM      6  C   UNL     1       1.475   8.621  18.706  0.00  0.00    +0.220 C 
ATOM      7  O   UNL     1       1.421   8.501  17.480  0.00  0.00    -0.275 OA
ATOM      8  C   UNL     1       0.860   9.969  20.767  0.00  0.00    +0.033 C 
ATOM      9  H   UNL     1       0.817  11.758  21.980  0.00  0.00    +0.051 HD
ATOM     10  H   UNL     1      -1.350  12.063  21.306  0.00  0.00    +0.028 HD
ATOM     11  H   UNL     1      -0.614  12.961  19.995  0.00  0.00    +0.028 HD
ATOM     12  H   UNL     1      -1.915  10.253  20.012  0.00  0.00    +0.028 HD
ATOM     13  H   UNL     1      -2.059  11.538  18.825  0.00  0.00    +0.028 HD
ATOM     14  H   UNL     1       0.221  10.991  17.946  0.00  0.00    +0.046 HD
ATOM     15  H   UNL     1      -0.828   9.572  17.909  0.00  0.00    +0.046 HD
ATOM     16  H   UNL     1       1.841   9.656  21.133  0.00  0.00    +0.048 HD
ATOM     17  H   UNL     1       0.104   9.448  21.364  0.00  0.00    +0.048 HD
ENDROOT
BRANCH   1  20
ATOM     18  O   UNL     1       1.250  14.261  21.083  0.00  0.00    -0.270 OA
ATOM     19  C   UNL     1       1.945  13.559  20.361  0.00  0.00    +0.246 C 
ATOM     20  N   UNL     1       1.759  12.206  20.195  0.00  0.00    -0.307 N 
ATOM     21  H   UNL     1       2.512  11.646  19.808  0.00  0.00    +0.149 HD
BRANCH  19  22
ATOM     22  C   UNL     1       3.103  14.149  19.664  0.00  0.00    +0.067 A 
ATOM     23  C   UNL     1       3.016  14.285  18.272  0.00  0.00    -0.046 A 
ATOM     24  C   UNL     1       4.068  14.859  17.568  0.00  0.00    -0.043 A 
ATOM     25  C   UNL     1       5.183  15.266  18.278  0.00  0.00    +0.028 A 
ATOM     26  N   UNL     1       5.309  15.126  19.617  0.00  0.00    -0.250 NA
ATOM     27  C   UNL     1       4.274  14.551  20.310  0.00  0.00    +0.156 A 
ATOM     28  H   UNL     1       2.123  13.956  17.743  0.00  0.00    +0.063 HD
ATOM     29  H   UNL     1       4.014  14.992  16.494  0.00  0.00    +0.063 HD
ATOM     30  H   UNL     1       6.029  15.728  17.777  0.00  0.00    +0.083 HD
BRANCH  27  31
ATOM     31  C   UNL     1       4.430  14.383  21.813  0.00  0.00    +0.435 C 
ATOM     32  F   UNL     1       5.666  14.781  22.246  0.00  0.00    -0.164 F 
ATOM     33  F   UNL     1       3.528  15.098  22.544  0.00  0.00    -0.164 F 
ATOM     34  F   UNL     1       4.294  13.094  22.243  0.00  0.00    -0.164 F 
ENDBRANCH  27  31
ENDBRANCH  19  22
ENDBRANCH   1  20
BRANCH   6  35
ATOM     35  C   UNL     1       2.419   7.785  19.564  0.00  0.00    +0.049 C 
ATOM     36  H   UNL     1       2.366   8.119  20.607  0.00  0.00    +0.041 HD
ATOM     37  H   UNL     1       3.445   7.962  19.215  0.00  0.00    +0.041 HD
BRANCH  35  38
ATOM     38  C   UNL     1       2.124   6.302  19.543  0.00  0.00    -0.039 A 
ATOM     39  C   UNL     1       1.602   5.660  20.673  0.00  0.00    -0.058 A 
ATOM     40  C   UNL     1       1.333   4.290  20.648  0.00  0.00    -0.061 A 
ATOM     41  C   UNL     1       1.591   3.551  19.494  0.00  0.00    -0.062 A 
ATOM     42  C   UNL     1       2.122   4.177  18.368  0.00  0.00    -0.061 A 
ATOM     43  C   UNL     1       2.391   5.546  18.393  0.00  0.00    -0.058 A 
ATOM     44  H   UNL     1       1.408   6.220  21.585  0.00  0.00    +0.062 HD
ATOM     45  H   UNL     1       0.931   3.799  21.528  0.00  0.00    +0.062 HD
ATOM     46  H   UNL     1       1.386   2.484  19.476  0.00  0.00    +0.062 HD
ATOM     47  H   UNL     1       2.334   3.598  17.474  0.00  0.00    +0.062 HD
ATOM     48  H   UNL     1       2.814   6.019  17.509  0.00  0.00    +0.062 HD
ENDBRANCH  35  38
ENDBRANCH   6  35
TORSDOF 5
ENDMDL
MODEL 20
REMARK VINA RESULT:    -6.212      2.833      3.434
REMARK INTER + INTRA:          -8.023
REMARK INTER:                  -9.413
REMARK INTRA:                   1.390
REMARK UNBOUND:                 0.005
REMARK  Name = 
REMARK  5 active torsions:
REMARK  status: ('A' for Active; 'I' for Inactive)
REMARK    1  A    between atoms: C_2  and  C_19
REMARK    2  A    between atoms: N_3  and  C_4
REMARK    3  A    between atoms: C_9  and  C_11
REMARK    4  A    between atoms: C_11  and  C_12
REMARK    5  A    between atoms: C_24  and  C_25
REMARK                            x       y       z     vdW  Elec       q    Type
REMARK                         _______ _______ _______ _____ _____    ______ ____
ROOT
ATOM      1  C   UNL     1       3.676   3.735  20.462  0.00  0.00    +0.039 C 
ATOM      2  C   UNL     1       2.452   2.816  20.625  0.00  0.00    -0.032 C 
ATOM      3  C   UNL     1       2.063   2.088  19.336  0.00  0.00    -0.035 C 
ATOM      4  C   UNL     1       2.370   2.906  18.089  0.00  0.00    +0.015 C 
ATOM      5  N   UNL     1       3.776   3.300  18.012  0.00  0.00    -0.299 N 
ATOM      6  C   UNL     1       4.245   3.793  16.796  0.00  0.00    +0.220 C 
ATOM      7  O   UNL     1       3.473   3.992  15.855  0.00  0.00    -0.275 OA
ATOM      8  C   UNL     1       4.546   3.296  19.267  0.00  0.00    +0.033 C 
ATOM      9  H   UNL     1       4.277   3.687  21.377  0.00  0.00    +0.051 HD
ATOM     10  H   UNL     1       2.667   2.058  21.389  0.00  0.00    +0.028 HD
ATOM     11  H   UNL     1       1.594   3.386  20.998  0.00  0.00    +0.028 HD
ATOM     12  H   UNL     1       2.619   1.143  19.284  0.00  0.00    +0.028 HD
ATOM     13  H   UNL     1       1.001   1.819  19.363  0.00  0.00    +0.028 HD
ATOM     14  H   UNL     1       1.768   3.823  18.074  0.00  0.00    +0.046 HD
ATOM     15  H   UNL     1       2.109   2.335  17.190  0.00  0.00    +0.046 HD
ATOM     16  H   UNL     1       5.418   3.948  19.182  0.00  0.00    +0.048 HD
ATOM     17  H   UNL     1       4.910   2.274  19.419  0.00  0.00    +0.048 HD
ENDROOT
BRANCH   1  20
ATOM     18  O   UNL     1       1.035   4.694  20.753  0.00  0.00    -0.270 OA
ATOM     19  C   UNL     1       1.930   5.486  20.492  0.00  0.00    +0.246 C 
ATOM     20  N   UNL     1       3.246   5.128  20.312  0.00  0.00    -0.307 N 
ATOM     21  H   UNL     1       3.966   5.842  20.366  0.00  0.00    +0.149 HD
BRANCH  19  22
ATOM     22  C   UNL     1       1.632   6.929  20.424  0.00  0.00    +0.067 A 
ATOM     23  C   UNL     1       0.987   7.507  21.525  0.00  0.00    -0.046 A 
ATOM     24  C   UNL     1       0.706   8.868  21.524  0.00  0.00    -0.043 A 
ATOM     25  C   UNL     1       1.065   9.608  20.413  0.00  0.00    +0.028 A 
ATOM     26  N   UNL     1       1.665   9.078  19.324  0.00  0.00    -0.250 NA
ATOM     27  C   UNL     1       1.934   7.732  19.321  0.00  0.00    +0.156 A 
ATOM     28  H   UNL     1       0.719   6.897  22.386  0.00  0.00    +0.063 HD
ATOM     29  H   UNL     1       0.227   9.339  22.375  0.00  0.00    +0.063 HD
ATOM     30  H   UNL     1       0.876  10.677  20.366  0.00  0.00    +0.083 HD
BRANCH  27  31
ATOM     31  C   UNL     1       2.594   7.140  18.086  0.00  0.00    +0.435 C 
ATOM     32  F   UNL     1       2.647   8.039  17.055  0.00  0.00    -0.164 F 
ATOM     33  F   UNL     1       3.878   6.728  18.291  0.00  0.00    -0.164 F 
ATOM     34  F   UNL     1       1.947   6.049  17.581  0.00  0.00    -0.164 F 
ENDBRANCH  27  31
ENDBRANCH  19  22
ENDBRANCH   1  20
BRANCH   6  35
ATOM     35  C   UNL     1       5.740   4.083  16.697  0.00  0.00    +0.049 C 
ATOM     36  H   UNL     1       6.307   3.270  17.168  0.00  0.00    +0.041 HD
ATOM     37  H   UNL     1       5.948   4.999  17.264  0.00  0.00    +0.041 HD
BRANCH  35  38
ATOM     38  C   UNL     1       6.247   4.236  15.282  0.00  0.00    -0.039 A 
ATOM     39  C   UNL     1       7.261   5.155  14.979  0.00  0.00    -0.058 A 
ATOM     40  C   UNL     1       7.724   5.292  13.670  0.00  0.00    -0.061 A 
ATOM     41  C   UNL     1       7.174   4.517  12.651  0.00  0.00    -0.062 A 
ATOM     42  C   UNL     1       6.156   3.609  12.938  0.00  0.00    -0.061 A 
ATOM     43  C   UNL     1       5.692   3.471  14.246  0.00  0.00    -0.058 A 
ATOM     44  H   UNL     1       7.691   5.777  15.761  0.00  0.00    +0.062 HD
ATOM     45  H   UNL     1       8.509   6.008  13.444  0.00  0.00    +0.062 HD
ATOM     46  H   UNL     1       7.531   4.628  11.631  0.00  0.00    +0.062 HD
ATOM     47  H   UNL     1       5.719   3.014  12.140  0.00  0.00    +0.062 HD
ATOM     48  H   UNL     1       4.891   2.764  14.452  0.00  0.00    +0.062 HD
ENDBRANCH  35  38
ENDBRANCH   6  35
TORSDOF 5
ENDMDL
MODEL 21
REMARK VINA RESULT:    -6.155      1.899      2.276
REMARK INTER + INTRA:          -7.949
REMARK INTER:                  -9.640
REMARK INTRA:                   1.691
REMARK UNBOUND:                 0.005
REMARK  Name = 
REMARK  5 active torsions:
REMARK  status: ('A' for Active; 'I' for Inactive)
REMARK    1  A    between atoms: C_2  and  C_19
REMARK    2  A    between atoms: N_3  and  C_4
REMARK    3  A    between atoms: C_9  and  C_11
REMARK    4  A    between atoms: C_11  and  C_12
REMARK    5  A    between atoms: C_24  and  C_25
REMARK                            x       y       z     vdW  Elec       q    Type
REMARK                         _______ _______ _______ _____ _____    ______ ____
ROOT
ATOM      1  C   UNL     1       2.882   4.908  20.592  0.00  0.00    +0.039 C 
ATOM      2  C   UNL     1       1.549   4.185  20.853  0.00  0.00    -0.032 C 
ATOM      3  C   UNL     1       1.212   3.130  19.797  0.00  0.00    -0.035 C 
ATOM      4  C   UNL     1       1.739   3.498  18.417  0.00  0.00    +0.015 C 
ATOM      5  N   UNL     1       3.182   3.734  18.416  0.00  0.00    -0.299 N 
ATOM      6  C   UNL     1       3.829   3.790  17.183  0.00  0.00    +0.220 C 
ATOM      7  O   UNL     1       3.187   3.753  16.131  0.00  0.00    -0.275 OA
ATOM      8  C   UNL     1       3.813   4.055  19.707  0.00  0.00    +0.033 C 
ATOM      9  H   UNL     1       3.376   5.095  21.552  0.00  0.00    +0.051 HD
ATOM     10  H   UNL     1       1.594   3.684  21.829  0.00  0.00    +0.028 HD
ATOM     11  H   UNL     1       0.729   4.909  20.924  0.00  0.00    +0.028 HD
ATOM     12  H   UNL     1       1.656   2.173  20.102  0.00  0.00    +0.028 HD
ATOM     13  H   UNL     1       0.129   2.969  19.761  0.00  0.00    +0.028 HD
ATOM     14  H   UNL     1       1.254   4.412  18.052  0.00  0.00    +0.046 HD
ATOM     15  H   UNL     1       1.508   2.701  17.700  0.00  0.00    +0.046 HD
ATOM     16  H   UNL     1       4.760   4.577  19.551  0.00  0.00    +0.048 HD
ATOM     17  H   UNL     1       4.038   3.103  20.201  0.00  0.00    +0.048 HD
ENDROOT
BRANCH   1  20
ATOM     18  O   UNL     1       0.780   6.675  21.254  0.00  0.00    -0.270 OA
ATOM     19  C   UNL     1       1.586   7.005  20.394  0.00  0.00    +0.246 C 
ATOM     20  N   UNL     1       2.637   6.218  19.982  0.00  0.00    -0.307 N 
ATOM     21  H   UNL     1       3.407   6.644  19.476  0.00  0.00    +0.149 HD
BRANCH  19  22
ATOM     22  C   UNL     1       1.499   8.347  19.788  0.00  0.00    +0.067 A 
ATOM     23  C   UNL     1       1.961   8.491  18.473  0.00  0.00    -0.046 A 
ATOM     24  C   UNL     1       1.878   9.728  17.845  0.00  0.00    -0.043 A 
ATOM     25  C   UNL     1       1.348  10.788  18.558  0.00  0.00    +0.028 A 
ATOM     26  N   UNL     1       0.917  10.689  19.836  0.00  0.00    -0.250 NA
ATOM     27  C   UNL     1       1.008   9.469  20.459  0.00  0.00    +0.156 A 
ATOM     28  H   UNL     1       2.371   7.636  17.938  0.00  0.00    +0.063 HD
ATOM     29  H   UNL     1       2.210   9.858  16.822  0.00  0.00    +0.063 HD
ATOM     30  H   UNL     1       1.253  11.774  18.111  0.00  0.00    +0.083 HD
BRANCH  27  31
ATOM     31  C   UNL     1       0.536   9.370  21.901  0.00  0.00    +0.435 C 
ATOM     32  F   UNL     1       0.174  10.589  22.405  0.00  0.00    -0.164 F 
ATOM     33  F   UNL     1      -0.545   8.556  22.071  0.00  0.00    -0.164 F 
ATOM     34  F   UNL     1       1.482   8.889  22.761  0.00  0.00    -0.164 F 
ENDBRANCH  27  31
ENDBRANCH  19  22
ENDBRANCH   1  20
BRANCH   6  35
ATOM     35  C   UNL     1       5.349   3.915  17.204  0.00  0.00    +0.049 C 
ATOM     36  H   UNL     1       5.793   2.983  17.575  0.00  0.00    +0.041 HD
ATOM     37  H   UNL     1       5.617   4.710  17.912  0.00  0.00    +0.041 HD
BRANCH  35  38
ATOM     38  C   UNL     1       5.964   4.209  15.854  0.00  0.00    -0.039 A 
ATOM     39  C   UNL     1       5.592   3.472  14.722  0.00  0.00    -0.058 A 
ATOM     40  C   UNL     1       6.165   3.747  13.479  0.00  0.00    -0.061 A 
ATOM     41  C   UNL     1       7.118   4.757  13.359  0.00  0.00    -0.062 A 
ATOM     42  C   UNL     1       7.505   5.488  14.481  0.00  0.00    -0.061 A 
ATOM     43  C   UNL     1       6.933   5.214  15.724  0.00  0.00    -0.058 A 
ATOM     44  H   UNL     1       4.860   2.672  14.802  0.00  0.00    +0.062 HD
ATOM     45  H   UNL     1       5.873   3.170  12.607  0.00  0.00    +0.062 HD
ATOM     46  H   UNL     1       7.567   4.968  12.393  0.00  0.00    +0.062 HD
ATOM     47  H   UNL     1       8.257   6.267  14.389  0.00  0.00    +0.062 HD
ATOM     48  H   UNL     1       7.252   5.787  16.592  0.00  0.00    +0.062 HD
ENDBRANCH  35  38
ENDBRANCH   6  35
TORSDOF 5
ENDMDL
MODEL 22
REMARK VINA RESULT:    -6.085      2.835      6.462
REMARK INTER + INTRA:          -7.859
REMARK INTER:                  -7.691
REMARK INTRA:                  -0.168
REMARK UNBOUND:                 0.005
REMARK  Name = 
REMARK  5 active torsions:
REMARK  status: ('A' for Active; 'I' for Inactive)
REMARK    1  A    between atoms: C_2  and  C_19
REMARK    2  A    between atoms: N_3  and  C_4
REMARK    3  A    between atoms: C_9  and  C_11
REMARK    4  A    between atoms: C_11  and  C_12
REMARK    5  A    between atoms: C_24  and  C_25
REMARK                            x       y       z     vdW  Elec       q    Type
REMARK                         _______ _______ _______ _____ _____    ______ ____
ROOT
ATOM      1  C   UNL     1       1.627   3.621  18.665  0.00  0.00    +0.039 C 
ATOM      2  C   UNL     1       1.959   2.469  19.630  0.00  0.00    -0.032 C 
ATOM      3  C   UNL     1       1.934   2.885  21.103  0.00  0.00    -0.035 C 
ATOM      4  C   UNL     1       2.357   4.333  21.307  0.00  0.00    +0.015 C 
ATOM      5  N   UNL     1       1.543   5.267  20.532  0.00  0.00    -0.299 N 
ATOM      6  C   UNL     1       1.632   6.622  20.848  0.00  0.00    +0.220 C 
ATOM      7  O   UNL     1       2.452   7.024  21.676  0.00  0.00    -0.275 OA
ATOM      8  C   UNL     1       0.816   4.724  19.372  0.00  0.00    +0.033 C 
ATOM      9  H   UNL     1       1.037   3.224  17.831  0.00  0.00    +0.051 HD
ATOM     10  H   UNL     1       1.228   1.662  19.495  0.00  0.00    +0.028 HD
ATOM     11  H   UNL     1       2.936   2.036  19.387  0.00  0.00    +0.028 HD
ATOM     12  H   UNL     1       0.913   2.757  21.487  0.00  0.00    +0.028 HD
ATOM     13  H   UNL     1       2.570   2.215  21.692  0.00  0.00    +0.028 HD
ATOM     14  H   UNL     1       3.402   4.474  21.004  0.00  0.00    +0.046 HD
ATOM     15  H   UNL     1       2.291   4.599  22.369  0.00  0.00    +0.046 HD
ATOM     16  H   UNL     1       0.574   5.521  18.665  0.00  0.00    +0.048 HD
ATOM     17  H   UNL     1      -0.130   4.317  19.747  0.00  0.00    +0.048 HD
ENDROOT
BRANCH   1  20
ATOM     18  O   UNL     1       3.798   2.115  17.665  0.00  0.00    -0.270 OA
ATOM     19  C   UNL     1       3.849   3.336  17.616  0.00  0.00    +0.246 C 
ATOM     20  N   UNL     1       2.859   4.167  18.087  0.00  0.00    -0.307 N 
ATOM     21  H   UNL     1       2.836   5.135  17.780  0.00  0.00    +0.149 HD
BRANCH  19  22
ATOM     22  C   UNL     1       4.994   3.993  16.958  0.00  0.00    +0.067 A 
ATOM     23  C   UNL     1       5.138   3.806  15.577  0.00  0.00    -0.046 A 
ATOM     24  C   UNL     1       6.185   4.424  14.903  0.00  0.00    -0.043 A 
ATOM     25  C   UNL     1       7.065   5.200  15.634  0.00  0.00    +0.028 A 
ATOM     26  N   UNL     1       6.969   5.381  16.971  0.00  0.00    -0.250 NA
ATOM     27  C   UNL     1       5.941   4.763  17.638  0.00  0.00    +0.156 A 
ATOM     28  H   UNL     1       4.427   3.190  15.029  0.00  0.00    +0.063 HD
ATOM     29  H   UNL     1       6.303   4.309  13.832  0.00  0.00    +0.063 HD
ATOM     30  H   UNL     1       7.895   5.712  15.154  0.00  0.00    +0.083 HD
BRANCH  27  31
ATOM     31  C   UNL     1       5.849   4.959  19.143  0.00  0.00    +0.435 C 
ATOM     32  F   UNL     1       7.023   5.424  19.670  0.00  0.00    -0.164 F 
ATOM     33  F   UNL     1       4.887   5.847  19.525  0.00  0.00    -0.164 F 
ATOM     34  F   UNL     1       5.571   3.814  19.834  0.00  0.00    -0.164 F 
ENDBRANCH  27  31
ENDBRANCH  19  22
ENDBRANCH   1  20
BRANCH   6  35
ATOM     35  C   UNL     1       0.687   7.567  20.113  0.00  0.00    +0.049 C 
ATOM     36  H   UNL     1      -0.241   7.040  19.859  0.00  0.00    +0.041 HD
ATOM     37  H   UNL     1       1.165   7.863  19.170  0.00  0.00    +0.041 HD
BRANCH  35  38
ATOM     38  C   UNL     1       0.312   8.801  20.901  0.00  0.00    -0.039 A 
ATOM     39  C   UNL     1      -0.350   8.692  22.131  0.00  0.00    -0.058 A 
ATOM     40  C   UNL     1      -0.695   9.836  22.853  0.00  0.00    -0.061 A 
ATOM     41  C   UNL     1      -0.387  11.098  22.348  0.00  0.00    -0.062 A 
ATOM     42  C   UNL     1       0.259  11.219  21.119  0.00  0.00    -0.061 A 
ATOM     43  C   UNL     1       0.604  10.076  20.396  0.00  0.00    -0.058 A 
ATOM     44  H   UNL     1      -0.609   7.715  22.532  0.00  0.00    +0.062 HD
ATOM     45  H   UNL     1      -1.209   9.743  23.805  0.00  0.00    +0.062 HD
ATOM     46  H   UNL     1      -0.660  11.988  22.907  0.00  0.00    +0.062 HD
ATOM     47  H   UNL     1       0.488  12.204  20.720  0.00  0.00    +0.062 HD
ATOM     48  H   UNL     1       1.101  10.188  19.435  0.00  0.00    +0.062 HD
ENDBRANCH  35  38
ENDBRANCH   6  35
TORSDOF 5
ENDMDL
MODEL 23
REMARK VINA RESULT:    -6.085      4.307      7.915
REMARK INTER + INTRA:          -7.859
REMARK INTER:                  -7.773
REMARK INTRA:                  -0.085
REMARK UNBOUND:                 0.005
REMARK  Name = 
REMARK  5 active torsions:
REMARK  status: ('A' for Active; 'I' for Inactive)
REMARK    1  A    between atoms: C_2  and  C_19
REMARK    2  A    between atoms: N_3  and  C_4
REMARK    3  A    between atoms: C_9  and  C_11
REMARK    4  A    between atoms: C_11  and  C_12
REMARK    5  A    between atoms: C_24  and  C_25
REMARK                            x       y       z     vdW  Elec       q    Type
REMARK                         _______ _______ _______ _____ _____    ______ ____
ROOT
ATOM      1  C   UNL     1      -1.021  13.844  18.932  0.00  0.00    +0.039 C 
ATOM      2  C   UNL     1      -0.056  15.042  18.891  0.00  0.00    -0.032 C 
ATOM      3  C   UNL     1       1.402  14.657  19.154  0.00  0.00    -0.035 C 
ATOM      4  C   UNL     1       1.530  13.476  20.106  0.00  0.00    +0.015 C 
ATOM      5  N   UNL     1       0.800  12.299  19.637  0.00  0.00    -0.299 N 
ATOM      6  C   UNL     1       1.071  11.080  20.256  0.00  0.00    +0.220 C 
ATOM      7  O   UNL     1       1.816  11.021  21.237  0.00  0.00    -0.275 OA
ATOM      8  C   UNL     1      -0.279  12.521  18.660  0.00  0.00    +0.033 C 
ATOM      9  H   UNL     1      -1.791  13.984  18.165  0.00  0.00    +0.051 HD
ATOM     10  H   UNL     1      -0.107  15.514  17.901  0.00  0.00    +0.028 HD
ATOM     11  H   UNL     1      -0.369  15.809  19.608  0.00  0.00    +0.028 HD
ATOM     12  H   UNL     1       1.874  14.393  18.198  0.00  0.00    +0.028 HD
ATOM     13  H   UNL     1       1.953  15.521  19.541  0.00  0.00    +0.028 HD
ATOM     14  H   UNL     1       1.136  13.737  21.096  0.00  0.00    +0.046 HD
ATOM     15  H   UNL     1       2.586  13.212  20.239  0.00  0.00    +0.046 HD
ATOM     16  H   UNL     1      -0.985  11.688  18.674  0.00  0.00    +0.048 HD
ATOM     17  H   UNL     1       0.185  12.545  17.668  0.00  0.00    +0.048 HD
ENDROOT
BRANCH   1  20
ATOM     18  O   UNL     1      -3.336  12.333  19.514  0.00  0.00    -0.270 OA
ATOM     19  C   UNL     1      -2.831  13.012  20.398  0.00  0.00    +0.246 C 
ATOM     20  N   UNL     1      -1.716  13.798  20.223  0.00  0.00    -0.307 N 
ATOM     21  H   UNL     1      -1.200  14.115  21.037  0.00  0.00    +0.149 HD
BRANCH  19  22
ATOM     22  C   UNL     1      -3.384  12.959  21.765  0.00  0.00    +0.067 A 
ATOM     23  C   UNL     1      -4.566  13.669  22.010  0.00  0.00    -0.046 A 
ATOM     24  C   UNL     1      -5.143  13.631  23.274  0.00  0.00    -0.043 A 
ATOM     25  C   UNL     1      -4.511  12.895  24.259  0.00  0.00    +0.028 A 
ATOM     26  N   UNL     1      -3.357  12.219  24.062  0.00  0.00    -0.250 NA
ATOM     27  C   UNL     1      -2.781  12.264  22.817  0.00  0.00    +0.156 A 
ATOM     28  H   UNL     1      -5.041  14.238  21.213  0.00  0.00    +0.063 HD
ATOM     29  H   UNL     1      -6.068  14.157  23.481  0.00  0.00    +0.063 HD
ATOM     30  H   UNL     1      -4.925  12.826  25.262  0.00  0.00    +0.083 HD
BRANCH  27  31
ATOM     31  C   UNL     1      -1.475  11.515  22.608  0.00  0.00    +0.435 C 
ATOM     32  F   UNL     1      -0.398  12.359  22.598  0.00  0.00    -0.164 F 
ATOM     33  F   UNL     1      -1.214  10.584  23.570  0.00  0.00    -0.164 F 
ATOM     34  F   UNL     1      -1.411  10.833  21.427  0.00  0.00    -0.164 F 
ENDBRANCH  27  31
ENDBRANCH  19  22
ENDBRANCH   1  20
BRANCH   6  35
ATOM     35  C   UNL     1       0.392   9.844  19.674  0.00  0.00    +0.049 C 
ATOM     36  H   UNL     1      -0.186  10.122  18.785  0.00  0.00    +0.041 HD
ATOM     37  H   UNL     1      -0.317   9.460  20.420  0.00  0.00    +0.041 HD
BRANCH  35  38
ATOM     38  C   UNL     1       1.350   8.745  19.273  0.00  0.00    -0.039 A 
ATOM     39  C   UNL     1       1.623   7.680  20.142  0.00  0.00    -0.058 A 
ATOM     40  C   UNL     1       2.509   6.669  19.766  0.00  0.00    -0.061 A 
ATOM     41  C   UNL     1       3.134   6.719  18.521  0.00  0.00    -0.062 A 
ATOM     42  C   UNL     1       2.880   7.780  17.654  0.00  0.00    -0.061 A 
ATOM     43  C   UNL     1       1.995   8.791  18.029  0.00  0.00    -0.058 A 
ATOM     44  H   UNL     1       1.153   7.634  21.122  0.00  0.00    +0.062 HD
ATOM     45  H   UNL     1       2.717   5.849  20.445  0.00  0.00    +0.062 HD
ATOM     46  H   UNL     1       3.828   5.934  18.230  0.00  0.00    +0.062 HD
ATOM     47  H   UNL     1       3.378   7.824  16.689  0.00  0.00    +0.062 HD
ATOM     48  H   UNL     1       1.813   9.617  17.345  0.00  0.00    +0.062 HD
ENDBRANCH  35  38
ENDBRANCH   6  35
TORSDOF 5
ENDMDL
MODEL 24
REMARK VINA RESULT:    -6.021      2.216      4.991
REMARK INTER + INTRA:          -7.776
REMARK INTER:                  -7.364
REMARK INTRA:                  -0.412
REMARK UNBOUND:                 0.005
REMARK  Name = 
REMARK  5 active torsions:
REMARK  status: ('A' for Active; 'I' for Inactive)
REMARK    1  A    between atoms: C_2  and  C_19
REMARK    2  A    between atoms: N_3  and  C_4
REMARK    3  A    between atoms: C_9  and  C_11
REMARK    4  A    between atoms: C_11  and  C_12
REMARK    5  A    between atoms: C_24  and  C_25
REMARK                            x       y       z     vdW  Elec       q    Type
REMARK                         _______ _______ _______ _____ _____    ______ ____
ROOT
ATOM      1  C   UNL     1       4.487   7.084  16.884  0.00  0.00    +0.039 C 
ATOM      2  C   UNL     1       5.863   7.768  16.793  0.00  0.00    -0.032 C 
ATOM      3  C   UNL     1       7.016   6.877  17.260  0.00  0.00    -0.035 C 
ATOM      4  C   UNL     1       6.600   5.916  18.365  0.00  0.00    +0.015 C 
ATOM      5  N   UNL     1       5.470   5.073  17.975  0.00  0.00    -0.299 N 
ATOM      6  C   UNL     1       5.182   3.966  18.771  0.00  0.00    +0.220 C 
ATOM      7  O   UNL     1       5.791   3.772  19.826  0.00  0.00    -0.275 OA
ATOM      8  C   UNL     1       4.626   5.549  16.866  0.00  0.00    +0.033 C 
ATOM      9  H   UNL     1       3.881   7.396  16.026  0.00  0.00    +0.051 HD
ATOM     10  H   UNL     1       6.057   8.054  15.751  0.00  0.00    +0.028 HD
ATOM     11  H   UNL     1       5.864   8.701  17.367  0.00  0.00    +0.028 HD
ATOM     12  H   UNL     1       7.380   6.294  16.403  0.00  0.00    +0.028 HD
ATOM     13  H   UNL     1       7.858   7.495  17.590  0.00  0.00    +0.028 HD
ATOM     14  H   UNL     1       6.305   6.470  19.264  0.00  0.00    +0.046 HD
ATOM     15  H   UNL     1       7.444   5.274  18.643  0.00  0.00    +0.046 HD
ATOM     16  H   UNL     1       3.639   5.085  16.911  0.00  0.00    +0.048 HD
ATOM     17  H   UNL     1       5.103   5.223  15.935  0.00  0.00    +0.048 HD
ENDROOT
BRANCH   1  20
ATOM     18  O   UNL     1       2.153   8.674  16.935  0.00  0.00    -0.270 OA
ATOM     19  C   UNL     1       2.637   8.294  17.993  0.00  0.00    +0.246 C 
ATOM     20  N   UNL     1       3.778   7.531  18.086  0.00  0.00    -0.307 N 
ATOM     21  H   UNL     1       3.972   7.033  18.950  0.00  0.00    +0.149 HD
BRANCH  19  22
ATOM     22  C   UNL     1       1.947   8.595  19.261  0.00  0.00    +0.067 A 
ATOM     23  C   UNL     1       1.584   9.927  19.498  0.00  0.00    -0.046 A 
ATOM     24  C   UNL     1       0.909  10.261  20.665  0.00  0.00    -0.043 A 
ATOM     25  C   UNL     1       0.629   9.253  21.569  0.00  0.00    +0.028 A 
ATOM     26  N   UNL     1       0.987   7.962  21.384  0.00  0.00    -0.250 NA
ATOM     27  C   UNL     1       1.663   7.634  20.235  0.00  0.00    +0.156 A 
ATOM     28  H   UNL     1       1.817  10.698  18.765  0.00  0.00    +0.063 HD
ATOM     29  H   UNL     1       0.600  11.282  20.859  0.00  0.00    +0.063 HD
ATOM     30  H   UNL     1       0.096   9.459  22.494  0.00  0.00    +0.083 HD
BRANCH  27  31
ATOM     31  C   UNL     1       2.076   6.184  20.041  0.00  0.00    +0.435 C 
ATOM     32  F   UNL     1       1.425   5.348  20.907  0.00  0.00    -0.164 F 
ATOM     33  F   UNL     1       1.825   5.701  18.791  0.00  0.00    -0.164 F 
ATOM     34  F   UNL     1       3.407   5.955  20.249  0.00  0.00    -0.164 F 
ENDBRANCH  27  31
ENDBRANCH  19  22
ENDBRANCH   1  20
BRANCH   6  35
ATOM     35  C   UNL     1       4.080   3.031  18.284  0.00  0.00    +0.049 C 
ATOM     36  H   UNL     1       4.510   2.058  18.017  0.00  0.00    +0.041 HD
ATOM     37  H   UNL     1       3.648   3.460  17.370  0.00  0.00    +0.041 HD
BRANCH  35  38
ATOM     38  C   UNL     1       2.985   2.786  19.296  0.00  0.00    -0.039 A 
ATOM     39  C   UNL     1       1.649   2.666  18.892  0.00  0.00    -0.058 A 
ATOM     40  C   UNL     1       0.642   2.441  19.833  0.00  0.00    -0.061 A 
ATOM     41  C   UNL     1       0.962   2.341  21.186  0.00  0.00    -0.062 A 
ATOM     42  C   UNL     1       2.286   2.472  21.601  0.00  0.00    -0.061 A 
ATOM     43  C   UNL     1       3.293   2.698  20.661  0.00  0.00    -0.058 A 
ATOM     44  H   UNL     1       1.381   2.754  17.842  0.00  0.00    +0.062 HD
ATOM     45  H   UNL     1      -0.391   2.351  19.511  0.00  0.00    +0.062 HD
ATOM     46  H   UNL     1       0.178   2.171  21.918  0.00  0.00    +0.062 HD
ATOM     47  H   UNL     1       2.533   2.407  22.657  0.00  0.00    +0.062 HD
ATOM     48  H   UNL     1       4.320   2.806  21.002  0.00  0.00    +0.062 HD
ENDBRANCH  35  38
ENDBRANCH   6  35
TORSDOF 5
ENDMDL
MODEL 25
REMARK VINA RESULT:    -5.924      6.129      9.033
REMARK INTER + INTRA:          -7.650
REMARK INTER:                  -7.592
REMARK INTRA:                  -0.058
REMARK UNBOUND:                 0.005
REMARK  Name = 
REMARK  5 active torsions:
REMARK  status: ('A' for Active; 'I' for Inactive)
REMARK    1  A    between atoms: C_2  and  C_19
REMARK    2  A    between atoms: N_3  and  C_4
REMARK    3  A    between atoms: C_9  and  C_11
REMARK    4  A    between atoms: C_11  and  C_12
REMARK    5  A    between atoms: C_24  and  C_25
REMARK                            x       y       z     vdW  Elec       q    Type
REMARK                         _______ _______ _______ _____ _____    ______ ____
ROOT
ATOM      1  C   UNL     1      -0.010  13.955  18.932  0.00  0.00    +0.039 C 
ATOM      2  C   UNL     1       1.163  14.374  19.836  0.00  0.00    -0.032 C 
ATOM      3  C   UNL     1       2.089  13.213  20.207  0.00  0.00    -0.035 C 
ATOM      4  C   UNL     1       1.348  11.887  20.312  0.00  0.00    +0.015 C 
ATOM      5  N   UNL     1       0.627  11.553  19.084  0.00  0.00    -0.299 N 
ATOM      6  C   UNL     1       0.156  10.248  18.944  0.00  0.00    +0.220 C 
ATOM      7  O   UNL     1       0.248   9.441  19.871  0.00  0.00    -0.275 OA
ATOM      8  C   UNL     1       0.315  12.659  18.164  0.00  0.00    +0.033 C 
ATOM      9  H   UNL     1      -0.203  14.757  18.211  0.00  0.00    +0.051 HD
ATOM     10  H   UNL     1       1.765  15.133  19.320  0.00  0.00    +0.028 HD
ATOM     11  H   UNL     1       0.791  14.853  20.748  0.00  0.00    +0.028 HD
ATOM     12  H   UNL     1       2.867  13.123  19.437  0.00  0.00    +0.028 HD
ATOM     13  H   UNL     1       2.609  13.433  21.146  0.00  0.00    +0.028 HD
ATOM     14  H   UNL     1       0.615  11.920  21.127  0.00  0.00    +0.046 HD
ATOM     15  H   UNL     1       2.052  11.079  20.543  0.00  0.00    +0.046 HD
ATOM     16  H   UNL     1      -0.522  12.391  17.514  0.00  0.00    +0.048 HD
ATOM     17  H   UNL     1       1.194  12.806  17.527  0.00  0.00    +0.048 HD
ENDROOT
BRANCH   1  20
ATOM     18  O   UNL     1      -0.480  15.077  21.482  0.00  0.00    -0.270 OA
ATOM     19  C   UNL     1      -1.358  14.406  20.956  0.00  0.00    +0.246 C 
ATOM     20  N   UNL     1      -1.231  13.800  19.727  0.00  0.00    -0.307 N 
ATOM     21  H   UNL     1      -2.066  13.493  19.238  0.00  0.00    +0.149 HD
BRANCH  19  22
ATOM     22  C   UNL     1      -2.669  14.270  21.618  0.00  0.00    +0.067 A 
ATOM     23  C   UNL     1      -3.622  15.267  21.371  0.00  0.00    -0.046 A 
ATOM     24  C   UNL     1      -4.882  15.175  21.948  0.00  0.00    -0.043 A 
ATOM     25  C   UNL     1      -5.146  14.094  22.770  0.00  0.00    +0.028 A 
ATOM     26  N   UNL     1      -4.242  13.129  23.049  0.00  0.00    -0.250 NA
ATOM     27  C   UNL     1      -2.994  13.225  22.486  0.00  0.00    +0.156 A 
ATOM     28  H   UNL     1      -3.383  16.105  20.717  0.00  0.00    +0.063 HD
ATOM     29  H   UNL     1      -5.641  15.924  21.754  0.00  0.00    +0.063 HD
ATOM     30  H   UNL     1      -6.119  13.970  23.239  0.00  0.00    +0.083 HD
BRANCH  27  31
ATOM     31  C   UNL     1      -1.978  12.145  22.818  0.00  0.00    +0.435 C 
ATOM     32  F   UNL     1      -2.467  11.245  23.726  0.00  0.00    -0.164 F 
ATOM     33  F   UNL     1      -1.581  11.411  21.739  0.00  0.00    -0.164 F 
ATOM     34  F   UNL     1      -0.822  12.622  23.368  0.00  0.00    -0.164 F 
ENDBRANCH  27  31
ENDBRANCH  19  22
ENDBRANCH   1  20
BRANCH   6  35
ATOM     35  C   UNL     1      -0.485   9.884  17.609  0.00  0.00    +0.049 C 
ATOM     36  H   UNL     1      -0.511   8.793  17.494  0.00  0.00    +0.041 HD
ATOM     37  H   UNL     1       0.148  10.283  16.806  0.00  0.00    +0.041 HD
BRANCH  35  38
ATOM     38  C   UNL     1      -1.898  10.395  17.442  0.00  0.00    -0.039 A 
ATOM     39  C   UNL     1      -2.606  10.913  18.535  0.00  0.00    -0.058 A 
ATOM     40  C   UNL     1      -3.911  11.381  18.374  0.00  0.00    -0.061 A 
ATOM     41  C   UNL     1      -4.522  11.329  17.122  0.00  0.00    -0.062 A 
ATOM     42  C   UNL     1      -3.831  10.804  16.031  0.00  0.00    -0.061 A 
ATOM     43  C   UNL     1      -2.527  10.335  16.190  0.00  0.00    -0.058 A 
ATOM     44  H   UNL     1      -2.149  10.947  19.521  0.00  0.00    +0.062 HD
ATOM     45  H   UNL     1      -4.454  11.779  19.227  0.00  0.00    +0.062 HD
ATOM     46  H   UNL     1      -5.539  11.690  16.999  0.00  0.00    +0.062 HD
ATOM     47  H   UNL     1      -4.313  10.753  15.058  0.00  0.00    +0.062 HD
ATOM     48  H   UNL     1      -2.005   9.921  15.331  0.00  0.00    +0.062 HD
ENDBRANCH  35  38
ENDBRANCH   6  35
TORSDOF 5
ENDMDL
MODEL 26
REMARK VINA RESULT:    -5.895      3.614      7.031
REMARK INTER + INTRA:          -7.613
REMARK INTER:                  -7.260
REMARK INTRA:                  -0.353
REMARK UNBOUND:                 0.005
REMARK  Name = 
REMARK  5 active torsions:
REMARK  status: ('A' for Active; 'I' for Inactive)
REMARK    1  A    between atoms: C_2  and  C_19
REMARK    2  A    between atoms: N_3  and  C_4
REMARK    3  A    between atoms: C_9  and  C_11
REMARK    4  A    between atoms: C_11  and  C_12
REMARK    5  A    between atoms: C_24  and  C_25
REMARK                            x       y       z     vdW  Elec       q    Type
REMARK                         _______ _______ _______ _____ _____    ______ ____
ROOT
ATOM      1  C   UNL     1       2.086   4.674  18.107  0.00  0.00    +0.039 C 
ATOM      2  C   UNL     1       2.437   4.151  19.511  0.00  0.00    -0.032 C 
ATOM      3  C   UNL     1       2.383   5.232  20.594  0.00  0.00    -0.035 C 
ATOM      4  C   UNL     1       2.764   6.607  20.064  0.00  0.00    +0.015 C 
ATOM      5  N   UNL     1       1.935   7.019  18.932  0.00  0.00    -0.299 N 
ATOM      6  C   UNL     1       1.983   8.357  18.547  0.00  0.00    +0.220 C 
ATOM      7  O   UNL     1       2.781   9.137  19.071  0.00  0.00    -0.275 OA
ATOM      8  C   UNL     1       1.237   5.958  18.188  0.00  0.00    +0.033 C 
ATOM      9  H   UNL     1       1.518   3.903  17.575  0.00  0.00    +0.051 HD
ATOM     10  H   UNL     1       1.730   3.359  19.789  0.00  0.00    +0.028 HD
ATOM     11  H   UNL     1       3.428   3.683  19.508  0.00  0.00    +0.028 HD
ATOM     12  H   UNL     1       1.361   5.278  20.993  0.00  0.00    +0.028 HD
ATOM     13  H   UNL     1       3.029   4.954  21.434  0.00  0.00    +0.028 HD
ATOM     14  H   UNL     1       3.808   6.612  19.728  0.00  0.00    +0.046 HD
ATOM     15  H   UNL     1       2.677   7.355  20.861  0.00  0.00    +0.046 HD
ATOM     16  H   UNL     1       0.982   6.300  17.182  0.00  0.00    +0.048 HD
ATOM     17  H   UNL     1       0.298   5.757  18.716  0.00  0.00    +0.048 HD
ENDROOT
BRANCH   1  20
ATOM     18  O   UNL     1       3.948   2.699  17.322  0.00  0.00    -0.270 OA
ATOM     19  C   UNL     1       4.140   3.862  16.993  0.00  0.00    +0.246 C 
ATOM     20  N   UNL     1       3.310   4.905  17.333  0.00  0.00    -0.307 N 
ATOM     21  H   UNL     1       3.373   5.777  16.817  0.00  0.00    +0.149 HD
BRANCH  19  22
ATOM     22  C   UNL     1       5.283   4.194  16.122  0.00  0.00    +0.067 A 
ATOM     23  C   UNL     1       5.173   3.873  14.763  0.00  0.00    -0.046 A 
ATOM     24  C   UNL     1       6.210   4.188  13.894  0.00  0.00    -0.043 A 
ATOM     25  C   UNL     1       7.334   4.803  14.414  0.00  0.00    +0.028 A 
ATOM     26  N   UNL     1       7.483   5.104  15.724  0.00  0.00    -0.250 NA
ATOM     27  C   UNL     1       6.462   4.784  16.584  0.00  0.00    +0.156 A 
ATOM     28  H   UNL     1       4.273   3.390  14.384  0.00  0.00    +0.063 HD
ATOM     29  H   UNL     1       6.137   3.967  12.836  0.00  0.00    +0.063 HD
ATOM     30  H   UNL     1       8.170   5.079  13.776  0.00  0.00    +0.083 HD
BRANCH  27  31
ATOM     31  C   UNL     1       6.644   5.111  18.057  0.00  0.00    +0.435 C 
ATOM     32  F   UNL     1       7.957   5.332  18.373  0.00  0.00    -0.164 F 
ATOM     33  F   UNL     1       5.967   6.224  18.462  0.00  0.00    -0.164 F 
ATOM     34  F   UNL     1       6.232   4.118  18.900  0.00  0.00    -0.164 F 
ENDBRANCH  27  31
ENDBRANCH  19  22
ENDBRANCH   1  20
BRANCH   6  35
ATOM     35  C   UNL     1       1.022   8.795  17.446  0.00  0.00    +0.049 C 
ATOM     36  H   UNL     1       0.581   7.913  16.966  0.00  0.00    +0.041 HD
ATOM     37  H   UNL     1       1.600   9.329  16.681  0.00  0.00    +0.041 HD
BRANCH  35  38
ATOM     38  C   UNL     1      -0.112   9.670  17.928  0.00  0.00    -0.039 A 
ATOM     39  C   UNL     1       0.028  10.455  19.080  0.00  0.00    -0.058 A 
ATOM     40  C   UNL     1      -1.024  11.260  19.521  0.00  0.00    -0.061 A 
ATOM     41  C   UNL     1      -2.227  11.280  18.818  0.00  0.00    -0.062 A 
ATOM     42  C   UNL     1      -2.383  10.493  17.678  0.00  0.00    -0.061 A 
ATOM     43  C   UNL     1      -1.332   9.688  17.237  0.00  0.00    -0.058 A 
ATOM     44  H   UNL     1       0.956  10.440  19.647  0.00  0.00    +0.062 HD
ATOM     45  H   UNL     1      -0.907  11.864  20.415  0.00  0.00    +0.062 HD
ATOM     46  H   UNL     1      -3.048  11.903  19.164  0.00  0.00    +0.062 HD
ATOM     47  H   UNL     1      -3.326  10.500  17.138  0.00  0.00    +0.062 HD
ATOM     48  H   UNL     1      -1.472   9.073  16.351  0.00  0.00    +0.062 HD
ENDBRANCH  35  38
ENDBRANCH   6  35
TORSDOF 5
ENDMDL
MODEL 27
REMARK VINA RESULT:    -5.791      2.782      5.912
REMARK INTER + INTRA:          -7.479
REMARK INTER:                  -6.968
REMARK INTRA:                  -0.511
REMARK UNBOUND:                 0.005
REMARK  Name = 
REMARK  5 active torsions:
REMARK  status: ('A' for Active; 'I' for Inactive)
REMARK    1  A    between atoms: C_2  and  C_19
REMARK    2  A    between atoms: N_3  and  C_4
REMARK    3  A    between atoms: C_9  and  C_11
REMARK    4  A    between atoms: C_11  and  C_12
REMARK    5  A    between atoms: C_24  and  C_25
REMARK                            x       y       z     vdW  Elec       q    Type
REMARK                         _______ _______ _______ _____ _____    ______ ____
ROOT
ATOM      1  C   UNL     1       1.696   3.561  18.875  0.00  0.00    +0.039 C 
ATOM      2  C   UNL     1       2.154   2.521  19.913  0.00  0.00    -0.032 C 
ATOM      3  C   UNL     1       2.122   3.044  21.351  0.00  0.00    -0.035 C 
ATOM      4  C   UNL     1       2.414   4.536  21.435  0.00  0.00    +0.015 C 
ATOM      5  N   UNL     1       1.500   5.330  20.616  0.00  0.00    -0.299 N 
ATOM      6  C   UNL     1       1.470   6.708  20.828  0.00  0.00    +0.220 C 
ATOM      7  O   UNL     1       2.267   7.245  21.601  0.00  0.00    -0.275 OA
ATOM      8  C   UNL     1       0.801   4.637  19.522  0.00  0.00    +0.033 C 
ATOM      9  H   UNL     1       1.127   3.049  18.090  0.00  0.00    +0.051 HD
ATOM     10  H   UNL     1       1.498   1.643  19.859  0.00  0.00    +0.028 HD
ATOM     11  H   UNL     1       3.160   2.161  19.675  0.00  0.00    +0.028 HD
ATOM     12  H   UNL     1       1.126   2.854  21.773  0.00  0.00    +0.028 HD
ATOM     13  H   UNL     1       2.830   2.481  21.970  0.00  0.00    +0.028 HD
ATOM     14  H   UNL     1       3.434   4.747  21.092  0.00  0.00    +0.046 HD
ATOM     15  H   UNL     1       2.347   4.875  22.476  0.00  0.00    +0.046 HD
ATOM     16  H   UNL     1       0.471   5.352  18.764  0.00  0.00    +0.048 HD
ATOM     17  H   UNL     1      -0.095   4.175  19.953  0.00  0.00    +0.048 HD
ENDROOT
BRANCH   1  20
ATOM     18  O   UNL     1       3.870   2.170  17.727  0.00  0.00    -0.270 OA
ATOM     19  C   UNL     1       3.856   3.393  17.683  0.00  0.00    +0.246 C 
ATOM     20  N   UNL     1       2.858   4.171  18.223  0.00  0.00    -0.307 N 
ATOM     21  H   UNL     1       2.768   5.137  17.925  0.00  0.00    +0.149 HD
BRANCH  19  22
ATOM     22  C   UNL     1       4.922   4.109  16.958  0.00  0.00    +0.067 A 
ATOM     23  C   UNL     1       4.972   3.952  15.567  0.00  0.00    -0.046 A 
ATOM     24  C   UNL     1       5.940   4.626  14.831  0.00  0.00    -0.043 A 
ATOM     25  C   UNL     1       6.839   5.425  15.513  0.00  0.00    +0.028 A 
ATOM     26  N   UNL     1       6.834   5.579  16.856  0.00  0.00    -0.250 NA
ATOM     27  C   UNL     1       5.884   4.906  17.583  0.00  0.00    +0.156 A 
ATOM     28  H   UNL     1       4.249   3.316  15.059  0.00  0.00    +0.063 HD
ATOM     29  H   UNL     1       5.985   4.535  13.752  0.00  0.00    +0.063 HD
ATOM     30  H   UNL     1       7.610   5.980  14.984  0.00  0.00    +0.083 HD
BRANCH  27  31
ATOM     31  C   UNL     1       5.895   5.071  19.094  0.00  0.00    +0.435 C 
ATOM     32  F   UNL     1       4.918   5.928  19.522  0.00  0.00    -0.164 F 
ATOM     33  F   UNL     1       5.700   3.907  19.777  0.00  0.00    -0.164 F 
ATOM     34  F   UNL     1       7.063   5.581  19.587  0.00  0.00    -0.164 F 
ENDBRANCH  27  31
ENDBRANCH  19  22
ENDBRANCH   1  20
BRANCH   6  35
ATOM     35  C   UNL     1       0.426   7.505  20.053  0.00  0.00    +0.049 C 
ATOM     36  H   UNL     1      -0.451   7.682  20.687  0.00  0.00    +0.041 HD
ATOM     37  H   UNL     1       0.097   6.897  19.200  0.00  0.00    +0.041 HD
BRANCH  35  38
ATOM     38  C   UNL     1       0.914   8.848  19.560  0.00  0.00    -0.039 A 
ATOM     39  C   UNL     1       0.585  10.025  20.245  0.00  0.00    -0.058 A 
ATOM     40  C   UNL     1       1.038  11.262  19.784  0.00  0.00    -0.061 A 
ATOM     41  C   UNL     1       1.818  11.333  18.631  0.00  0.00    -0.062 A 
ATOM     42  C   UNL     1       2.141  10.170  17.935  0.00  0.00    -0.061 A 
ATOM     43  C   UNL     1       1.688   8.933  18.394  0.00  0.00    -0.058 A 
ATOM     44  H   UNL     1      -0.034   9.987  21.139  0.00  0.00    +0.062 HD
ATOM     45  H   UNL     1       0.776  12.170  20.320  0.00  0.00    +0.062 HD
ATOM     46  H   UNL     1       2.166  12.297  18.270  0.00  0.00    +0.062 HD
ATOM     47  H   UNL     1       2.738  10.228  17.029  0.00  0.00    +0.062 HD
ATOM     48  H   UNL     1       1.942   8.035  17.835  0.00  0.00    +0.062 HD
ENDBRANCH  35  38
ENDBRANCH   6  35
TORSDOF 5
ENDMDL
MODEL 28
REMARK VINA RESULT:    -5.781      3.989      7.061
REMARK INTER + INTRA:          -7.466
REMARK INTER:                  -6.515
REMARK INTRA:                  -0.951
REMARK UNBOUND:                 0.005
REMARK  Name = 
REMARK  5 active torsions:
REMARK  status: ('A' for Active; 'I' for Inactive)
REMARK    1  A    between atoms: C_2  and  C_19
REMARK    2  A    between atoms: N_3  and  C_4
REMARK    3  A    between atoms: C_9  and  C_11
REMARK    4  A    between atoms: C_11  and  C_12
REMARK    5  A    between atoms: C_24  and  C_25
REMARK                            x       y       z     vdW  Elec       q    Type
REMARK                         _______ _______ _______ _____ _____    ______ ____
ROOT
ATOM      1  C   UNL     1      -0.931  12.656  21.027  0.00  0.00    +0.039 C 
ATOM      2  C   UNL     1      -1.866  13.094  22.168  0.00  0.00    -0.032 C 
ATOM      3  C   UNL     1      -1.805  12.175  23.391  0.00  0.00    -0.035 C 
ATOM      4  C   UNL     1      -1.517  10.727  23.017  0.00  0.00    +0.015 C 
ATOM      5  N   UNL     1      -0.282  10.584  22.248  0.00  0.00    -0.299 N 
ATOM      6  C   UNL     1       0.243   9.302  22.097  0.00  0.00    +0.220 C 
ATOM      7  O   UNL     1      -0.375   8.315  22.503  0.00  0.00    -0.275 OA
ATOM      8  C   UNL     1       0.223  11.783  21.557  0.00  0.00    +0.033 C 
ATOM      9  H   UNL     1      -0.512  13.550  20.551  0.00  0.00    +0.051 HD
ATOM     10  H   UNL     1      -1.590  14.106  22.494  0.00  0.00    +0.028 HD
ATOM     11  H   UNL     1      -2.899  13.163  21.811  0.00  0.00    +0.028 HD
ATOM     12  H   UNL     1      -1.011  12.532  24.060  0.00  0.00    +0.028 HD
ATOM     13  H   UNL     1      -2.740  12.244  23.958  0.00  0.00    +0.028 HD
ATOM     14  H   UNL     1      -2.334  10.318  22.410  0.00  0.00    +0.046 HD
ATOM     15  H   UNL     1      -1.447  10.111  23.922  0.00  0.00    +0.046 HD
ATOM     16  H   UNL     1       0.885  11.500  20.735  0.00  0.00    +0.048 HD
ATOM     17  H   UNL     1       0.821  12.345  22.284  0.00  0.00    +0.048 HD
ENDROOT
BRANCH   1  20
ATOM     18  O   UNL     1      -0.877  13.208  18.257  0.00  0.00    -0.270 OA
ATOM     19  C   UNL     1      -1.577  12.292  18.668  0.00  0.00    +0.246 C 
ATOM     20  N   UNL     1      -1.692  11.946  19.994  0.00  0.00    -0.307 N 
ATOM     21  H   UNL     1      -2.063  11.033  20.238  0.00  0.00    +0.149 HD
BRANCH  19  22
ATOM     22  C   UNL     1      -2.304  11.441  17.707  0.00  0.00    +0.067 A 
ATOM     23  C   UNL     1      -3.541  11.905  17.242  0.00  0.00    -0.046 A 
ATOM     24  C   UNL     1      -4.255  11.155  16.316  0.00  0.00    -0.043 A 
ATOM     25  C   UNL     1      -3.716   9.955  15.892  0.00  0.00    +0.028 A 
ATOM     26  N   UNL     1      -2.537   9.466  16.339  0.00  0.00    -0.250 NA
ATOM     27  C   UNL     1      -1.836  10.202  17.261  0.00  0.00    +0.156 A 
ATOM     28  H   UNL     1      -3.938  12.856  17.594  0.00  0.00    +0.063 HD
ATOM     29  H   UNL     1      -5.205  11.505  15.928  0.00  0.00    +0.063 HD
ATOM     30  H   UNL     1      -4.230   9.334  15.162  0.00  0.00    +0.083 HD
BRANCH  27  31
ATOM     31  C   UNL     1      -0.520   9.638  17.771  0.00  0.00    +0.435 C 
ATOM     32  F   UNL     1      -0.615   9.207  19.065  0.00  0.00    -0.164 F 
ATOM     33  F   UNL     1      -0.062   8.573  17.052  0.00  0.00    -0.164 F 
ATOM     34  F   UNL     1       0.507  10.538  17.765  0.00  0.00    -0.164 F 
ENDBRANCH  27  31
ENDBRANCH  19  22
ENDBRANCH   1  20
BRANCH   6  35
ATOM     35  C   UNL     1       1.593   9.186  21.397  0.00  0.00    +0.049 C 
ATOM     36  H   UNL     1       2.400   9.218  22.140  0.00  0.00    +0.041 HD
ATOM     37  H   UNL     1       1.716  10.058  20.743  0.00  0.00    +0.041 HD
BRANCH  35  38
ATOM     38  C   UNL     1       1.764   7.919  20.591  0.00  0.00    -0.039 A 
ATOM     39  C   UNL     1       1.430   6.672  21.136  0.00  0.00    -0.058 A 
ATOM     40  C   UNL     1       1.592   5.505  20.387  0.00  0.00    -0.061 A 
ATOM     41  C   UNL     1       2.095   5.575  19.089  0.00  0.00    -0.062 A 
ATOM     42  C   UNL     1       2.442   6.808  18.541  0.00  0.00    -0.061 A 
ATOM     43  C   UNL     1       2.282   7.975  19.289  0.00  0.00    -0.058 A 
ATOM     44  H   UNL     1       1.049   6.599  22.152  0.00  0.00    +0.062 HD
ATOM     45  H   UNL     1       1.333   4.543  20.818  0.00  0.00    +0.062 HD
ATOM     46  H   UNL     1       2.225   4.666  18.508  0.00  0.00    +0.062 HD
ATOM     47  H   UNL     1       2.846   6.860  17.533  0.00  0.00    +0.062 HD
ATOM     48  H   UNL     1       2.566   8.929  18.850  0.00  0.00    +0.062 HD
ENDBRANCH  35  38
ENDBRANCH   6  35
TORSDOF 5
ENDMDL
MODEL 29
REMARK VINA RESULT:    -5.747      3.021      5.685
REMARK INTER + INTRA:          -7.422
REMARK INTER:                  -6.490
REMARK INTRA:                  -0.932
REMARK UNBOUND:                 0.005
REMARK  Name = 
REMARK  5 active torsions:
REMARK  status: ('A' for Active; 'I' for Inactive)
REMARK    1  A    between atoms: C_2  and  C_19
REMARK    2  A    between atoms: N_3  and  C_4
REMARK    3  A    between atoms: C_9  and  C_11
REMARK    4  A    between atoms: C_11  and  C_12
REMARK    5  A    between atoms: C_24  and  C_25
REMARK                            x       y       z     vdW  Elec       q    Type
REMARK                         _______ _______ _______ _____ _____    ______ ____
ROOT
ATOM      1  C   UNL     1       3.634   2.720  17.694  0.00  0.00    +0.039 C 
ATOM      2  C   UNL     1       4.308   1.363  17.964  0.00  0.00    -0.032 C 
ATOM      3  C   UNL     1       3.899   0.736  19.299  0.00  0.00    -0.035 C 
ATOM      4  C   UNL     1       3.600   1.780  20.366  0.00  0.00    +0.015 C 
ATOM      5  N   UNL     1       2.570   2.728  19.945  0.00  0.00    -0.299 N 
ATOM      6  C   UNL     1       2.002   3.544  20.923  0.00  0.00    +0.220 C 
ATOM      7  O   UNL     1       2.434   3.540  22.077  0.00  0.00    -0.275 OA
ATOM      8  C   UNL     1       2.327   2.862  18.499  0.00  0.00    +0.033 C 
ATOM      9  H   UNL     1       3.403   2.792  16.625  0.00  0.00    +0.051 HD
ATOM     10  H   UNL     1       4.040   0.660  17.165  0.00  0.00    +0.028 HD
ATOM     11  H   UNL     1       5.398   1.463  17.924  0.00  0.00    +0.028 HD
ATOM     12  H   UNL     1       3.000   0.126  19.140  0.00  0.00    +0.028 HD
ATOM     13  H   UNL     1       4.679   0.049  19.645  0.00  0.00    +0.028 HD
ATOM     14  H   UNL     1       4.503   2.356  20.602  0.00  0.00    +0.046 HD
ATOM     15  H   UNL     1       3.278   1.291  21.292  0.00  0.00    +0.046 HD
ATOM     16  H   UNL     1       1.855   3.822  18.277  0.00  0.00    +0.048 HD
ATOM     17  H   UNL     1       1.620   2.073  18.217  0.00  0.00    +0.048 HD
ENDROOT
BRANCH   1  20
ATOM     18  O   UNL     1       5.730   3.631  16.033  0.00  0.00    -0.270 OA
ATOM     19  C   UNL     1       5.538   4.185  17.108  0.00  0.00    +0.246 C 
ATOM     20  N   UNL     1       4.559   3.815  18.000  0.00  0.00    -0.307 N 
ATOM     21  H   UNL     1       4.281   4.464  18.729  0.00  0.00    +0.149 HD
BRANCH  19  22
ATOM     22  C   UNL     1       6.340   5.367  17.473  0.00  0.00    +0.067 A 
ATOM     23  C   UNL     1       7.484   5.154  18.254  0.00  0.00    -0.046 A 
ATOM     24  C   UNL     1       8.290   6.231  18.604  0.00  0.00    -0.043 A 
ATOM     25  C   UNL     1       7.919   7.491  18.174  0.00  0.00    +0.028 A 
ATOM     26  N   UNL     1       6.809   7.735  17.441  0.00  0.00    -0.250 NA
ATOM     27  C   UNL     1       6.008   6.673  17.103  0.00  0.00    +0.156 A 
ATOM     28  H   UNL     1       7.750   4.149  18.575  0.00  0.00    +0.063 HD
ATOM     29  H   UNL     1       9.190   6.086  19.190  0.00  0.00    +0.063 HD
ATOM     30  H   UNL     1       8.519   8.366  18.413  0.00  0.00    +0.083 HD
BRANCH  27  31
ATOM     31  C   UNL     1       4.754   6.957  16.293  0.00  0.00    +0.435 C 
ATOM     32  F   UNL     1       4.208   8.172  16.606  0.00  0.00    -0.164 F 
ATOM     33  F   UNL     1       4.961   6.974  14.945  0.00  0.00    -0.164 F 
ATOM     34  F   UNL     1       3.751   6.050  16.488  0.00  0.00    -0.164 F 
ENDBRANCH  27  31
ENDBRANCH  19  22
ENDBRANCH   1  20
BRANCH   6  35
ATOM     35  C   UNL     1       0.845   4.439  20.490  0.00  0.00    +0.049 C 
ATOM     36  H   UNL     1       0.039   4.390  21.232  0.00  0.00    +0.041 HD
ATOM     37  H   UNL     1       0.445   4.048  19.545  0.00  0.00    +0.041 HD
BRANCH  35  38
ATOM     38  C   UNL     1       1.220   5.893  20.318  0.00  0.00    -0.039 A 
ATOM     39  C   UNL     1       0.807   6.855  21.250  0.00  0.00    -0.058 A 
ATOM     40  C   UNL     1       1.155   8.196  21.085  0.00  0.00    -0.061 A 
ATOM     41  C   UNL     1       1.914   8.589  19.984  0.00  0.00    -0.062 A 
ATOM     42  C   UNL     1       2.320   7.643  19.044  0.00  0.00    -0.061 A 
ATOM     43  C   UNL     1       1.972   6.302  19.207  0.00  0.00    -0.058 A 
ATOM     44  H   UNL     1       0.203   6.567  22.108  0.00  0.00    +0.062 HD
ATOM     45  H   UNL     1       0.829   8.935  21.811  0.00  0.00    +0.062 HD
ATOM     46  H   UNL     1       2.181   9.634  19.853  0.00  0.00    +0.062 HD
ATOM     47  H   UNL     1       2.901   7.952  18.179  0.00  0.00    +0.062 HD
ATOM     48  H   UNL     1       2.289   5.578  18.461  0.00  0.00    +0.062 HD
ENDBRANCH  35  38
ENDBRANCH   6  35
TORSDOF 5
ENDMDL
MODEL 30
REMARK VINA RESULT:    -5.570      3.767      6.238
REMARK INTER + INTRA:          -7.193
REMARK INTER:                  -7.141
REMARK INTRA:                  -0.052
REMARK UNBOUND:                 0.005
REMARK  Name = 
REMARK  5 active torsions:
REMARK  status: ('A' for Active; 'I' for Inactive)
REMARK    1  A    between atoms: C_2  and  C_19
REMARK    2  A    between atoms: N_3  and  C_4
REMARK    3  A    between atoms: C_9  and  C_11
REMARK    4  A    between atoms: C_11  and  C_12
REMARK    5  A    between atoms: C_24  and  C_25
REMARK                            x       y       z     vdW  Elec       q    Type
REMARK                         _______ _______ _______ _____ _____    ______ ____
ROOT
ATOM      1  C   UNL     1      -0.256  11.450  21.559  0.00  0.00    +0.039 C 
ATOM      2  C   UNL     1      -0.703  11.234  23.016  0.00  0.00    -0.032 C 
ATOM      3  C   UNL     1      -0.300   9.869  23.578  0.00  0.00    -0.035 C 
ATOM      4  C   UNL     1      -0.275   8.783  22.512  0.00  0.00    +0.015 C 
ATOM      5  N   UNL     1       0.605   9.119  21.394  0.00  0.00    -0.299 N 
ATOM      6  C   UNL     1       0.941   8.100  20.504  0.00  0.00    +0.220 C 
ATOM      7  O   UNL     1       0.424   6.985  20.597  0.00  0.00    -0.275 OA
ATOM      8  C   UNL     1       0.937  10.541  21.202  0.00  0.00    +0.033 C 
ATOM      9  H   UNL     1       0.045  12.497  21.434  0.00  0.00    +0.051 HD
ATOM     10  H   UNL     1      -0.252  12.007  23.652  0.00  0.00    +0.028 HD
ATOM     11  H   UNL     1      -1.787  11.363  23.106  0.00  0.00    +0.028 HD
ATOM     12  H   UNL     1       0.701   9.952  24.021  0.00  0.00    +0.028 HD
ATOM     13  H   UNL     1      -0.974   9.586  24.395  0.00  0.00    +0.028 HD
ATOM     14  H   UNL     1      -1.281   8.622  22.104  0.00  0.00    +0.046 HD
ATOM     15  H   UNL     1       0.052   7.832  22.949  0.00  0.00    +0.046 HD
ATOM     16  H   UNL     1       1.251  10.725  20.172  0.00  0.00    +0.048 HD
ATOM     17  H   UNL     1       1.790  10.763  21.852  0.00  0.00    +0.048 HD
ENDROOT
BRANCH   1  20
ATOM     18  O   UNL     1      -1.303  13.324  19.722  0.00  0.00    -0.270 OA
ATOM     19  C   UNL     1      -1.798  12.206  19.779  0.00  0.00    +0.246 C 
ATOM     20  N   UNL     1      -1.379  11.222  20.645  0.00  0.00    -0.307 N 
ATOM     21  H   UNL     1      -1.639  10.258  20.463  0.00  0.00    +0.149 HD
BRANCH  19  22
ATOM     22  C   UNL     1      -2.864  11.830  18.832  0.00  0.00    +0.067 A 
ATOM     23  C   UNL     1      -4.114  12.441  18.994  0.00  0.00    -0.046 A 
ATOM     24  C   UNL     1      -5.147  12.143  18.113  0.00  0.00    -0.043 A 
ATOM     25  C   UNL     1      -4.901  11.230  17.104  0.00  0.00    +0.028 A 
ATOM     26  N   UNL     1      -3.714  10.605  16.935  0.00  0.00    -0.250 NA
ATOM     27  C   UNL     1      -2.698  10.892  17.811  0.00  0.00    +0.156 A 
ATOM     28  H   UNL     1      -4.276  13.157  19.798  0.00  0.00    +0.063 HD
ATOM     29  H   UNL     1      -6.116  12.619  18.207  0.00  0.00    +0.063 HD
ATOM     30  H   UNL     1      -5.671  10.969  16.383  0.00  0.00    +0.083 HD
BRANCH  27  31
ATOM     31  C   UNL     1      -1.372  10.172  17.624  0.00  0.00    +0.435 C 
ATOM     32  F   UNL     1      -1.330   9.476  16.447  0.00  0.00    -0.164 F 
ATOM     33  F   UNL     1      -0.291  11.004  17.607  0.00  0.00    -0.164 F 
ATOM     34  F   UNL     1      -1.098   9.253  18.597  0.00  0.00    -0.164 F 
ENDBRANCH  27  31
ENDBRANCH  19  22
ENDBRANCH   1  20
BRANCH   6  35
ATOM     35  C   UNL     1       1.955   8.439  19.416  0.00  0.00    +0.049 C 
ATOM     36  H   UNL     1       2.684   9.163  19.800  0.00  0.00    +0.041 HD
ATOM     37  H   UNL     1       1.420   8.921  18.588  0.00  0.00    +0.041 HD
BRANCH  35  38
ATOM     38  C   UNL     1       2.725   7.246  18.896  0.00  0.00    -0.039 A 
ATOM     39  C   UNL     1       2.746   6.040  19.610  0.00  0.00    -0.058 A 
ATOM     40  C   UNL     1       3.460   4.943  19.126  0.00  0.00    -0.061 A 
ATOM     41  C   UNL     1       4.164   5.044  17.927  0.00  0.00    -0.062 A 
ATOM     42  C   UNL     1       4.161   6.243  17.215  0.00  0.00    -0.061 A 
ATOM     43  C   UNL     1       3.448   7.340  17.699  0.00  0.00    -0.058 A 
ATOM     44  H   UNL     1       2.212   5.950  20.554  0.00  0.00    +0.062 HD
ATOM     45  H   UNL     1       3.473   4.013  19.686  0.00  0.00    +0.062 HD
ATOM     46  H   UNL     1       4.724   4.192  17.553  0.00  0.00    +0.062 HD
ATOM     47  H   UNL     1       4.721   6.324  16.287  0.00  0.00    +0.062 HD
ATOM     48  H   UNL     1       3.463   8.271  17.136  0.00  0.00    +0.062 HD
ENDBRANCH  35  38
ENDBRANCH   6  35
TORSDOF 5
ENDMDL
MODEL 31
REMARK VINA RESULT:    -5.568      4.343      7.420
REMARK INTER + INTRA:          -7.191
REMARK INTER:                  -6.837
REMARK INTRA:                  -0.354
REMARK UNBOUND:                 0.005
REMARK  Name = 
REMARK  5 active torsions:
REMARK  status: ('A' for Active; 'I' for Inactive)
REMARK    1  A    between atoms: C_2  and  C_19
REMARK    2  A    between atoms: N_3  and  C_4
REMARK    3  A    between atoms: C_9  and  C_11
REMARK    4  A    between atoms: C_11  and  C_12
REMARK    5  A    between atoms: C_24  and  C_25
REMARK                            x       y       z     vdW  Elec       q    Type
REMARK                         _______ _______ _______ _____ _____    ______ ____
ROOT
ATOM      1  C   UNL     1      -1.106  11.367  19.221  0.00  0.00    +0.039 C 
ATOM      2  C   UNL     1      -0.226  12.535  18.742  0.00  0.00    -0.032 C 
ATOM      3  C   UNL     1       1.261  12.341  19.049  0.00  0.00    -0.035 C 
ATOM      4  C   UNL     1       1.493  11.554  20.331  0.00  0.00    +0.015 C 
ATOM      5  N   UNL     1       0.833  10.249  20.312  0.00  0.00    -0.299 N 
ATOM      6  C   UNL     1       1.201   9.322  21.286  0.00  0.00    +0.220 C 
ATOM      7  O   UNL     1       1.973   9.635  22.195  0.00  0.00    -0.275 OA
ATOM      8  C   UNL     1      -0.282  10.072  19.368  0.00  0.00    +0.033 C 
ATOM      9  H   UNL     1      -1.903  11.201  18.488  0.00  0.00    +0.051 HD
ATOM     10  H   UNL     1      -0.334  12.647  17.655  0.00  0.00    +0.028 HD
ATOM     11  H   UNL     1      -0.572  13.478  19.178  0.00  0.00    +0.028 HD
ATOM     12  H   UNL     1       1.725  11.801  18.213  0.00  0.00    +0.028 HD
ATOM     13  H   UNL     1       1.762  13.314  19.103  0.00  0.00    +0.028 HD
ATOM     14  H   UNL     1       1.107  12.107  21.196  0.00  0.00    +0.046 HD
ATOM     15  H   UNL     1       2.567  11.408  20.494  0.00  0.00    +0.046 HD
ATOM     16  H   UNL     1      -0.930   9.253  19.689  0.00  0.00    +0.048 HD
ATOM     17  H   UNL     1       0.154   9.790  18.403  0.00  0.00    +0.048 HD
ENDROOT
BRANCH   1  20
ATOM     18  O   UNL     1      -2.384  13.818  19.805  0.00  0.00    -0.270 OA
ATOM     19  C   UNL     1      -2.368  12.938  20.655  0.00  0.00    +0.246 C 
ATOM     20  N   UNL     1      -1.763  11.714  20.485  0.00  0.00    -0.307 N 
ATOM     21  H   UNL     1      -2.011  10.949  21.104  0.00  0.00    +0.149 HD
BRANCH  19  22
ATOM     22  C   UNL     1      -3.091  13.138  21.926  0.00  0.00    +0.067 A 
ATOM     23  C   UNL     1      -4.427  12.721  21.980  0.00  0.00    -0.046 A 
ATOM     24  C   UNL     1      -5.146  12.862  23.161  0.00  0.00    -0.043 A 
ATOM     25  C   UNL     1      -4.509  13.430  24.249  0.00  0.00    +0.028 A 
ATOM     26  N   UNL     1      -3.230  13.865  24.223  0.00  0.00    -0.250 NA
ATOM     27  C   UNL     1      -2.523  13.735  23.054  0.00  0.00    +0.156 A 
ATOM     28  H   UNL     1      -4.899  12.275  21.106  0.00  0.00    +0.063 HD
ATOM     29  H   UNL     1      -6.174  12.527  23.231  0.00  0.00    +0.063 HD
ATOM     30  H   UNL     1      -5.024  13.555  25.198  0.00  0.00    +0.083 HD
BRANCH  27  31
ATOM     31  C   UNL     1      -1.090  14.242  23.028  0.00  0.00    +0.435 C 
ATOM     32  F   UNL     1      -0.921  15.252  22.121  0.00  0.00    -0.164 F 
ATOM     33  F   UNL     1      -0.658  14.735  24.224  0.00  0.00    -0.164 F 
ATOM     34  F   UNL     1      -0.172  13.290  22.684  0.00  0.00    -0.164 F 
ENDBRANCH  27  31
ENDBRANCH  19  22
ENDBRANCH   1  20
BRANCH   6  35
ATOM     35  C   UNL     1       0.594   7.927  21.178  0.00  0.00    +0.049 C 
ATOM     36  H   UNL     1      -0.357   7.977  20.633  0.00  0.00    +0.041 HD
ATOM     37  H   UNL     1       0.372   7.572  22.193  0.00  0.00    +0.041 HD
BRANCH  35  38
ATOM     38  C   UNL     1       1.475   6.923  20.471  0.00  0.00    -0.039 A 
ATOM     39  C   UNL     1       2.298   7.316  19.407  0.00  0.00    -0.058 A 
ATOM     40  C   UNL     1       3.108   6.384  18.757  0.00  0.00    -0.061 A 
ATOM     41  C   UNL     1       3.097   5.050  19.160  0.00  0.00    -0.062 A 
ATOM     42  C   UNL     1       2.272   4.645  20.208  0.00  0.00    -0.061 A 
ATOM     43  C   UNL     1       1.462   5.576  20.858  0.00  0.00    -0.058 A 
ATOM     44  H   UNL     1       2.309   8.351  19.072  0.00  0.00    +0.062 HD
ATOM     45  H   UNL     1       3.742   6.697  17.932  0.00  0.00    +0.062 HD
ATOM     46  H   UNL     1       3.724   4.323  18.650  0.00  0.00    +0.062 HD
ATOM     47  H   UNL     1       2.255   3.602  20.513  0.00  0.00    +0.062 HD
ATOM     48  H   UNL     1       0.818   5.242  21.669  0.00  0.00    +0.062 HD
ENDBRANCH  35  38
ENDBRANCH   6  35
TORSDOF 5
ENDMDL
MODEL 32
REMARK VINA RESULT:    -5.516      3.490      6.019
REMARK INTER + INTRA:          -7.124
REMARK INTER:                  -6.315
REMARK INTRA:                  -0.809
REMARK UNBOUND:                 0.005
REMARK  Name = 
REMARK  5 active torsions:
REMARK  status: ('A' for Active; 'I' for Inactive)
REMARK    1  A    between atoms: C_2  and  C_19
REMARK    2  A    between atoms: N_3  and  C_4
REMARK    3  A    between atoms: C_9  and  C_11
REMARK    4  A    between atoms: C_11  and  C_12
REMARK    5  A    between atoms: C_24  and  C_25
REMARK                            x       y       z     vdW  Elec       q    Type
REMARK                         _______ _______ _______ _____ _____    ______ ____
ROOT
ATOM      1  C   UNL     1       3.308   3.606  17.334  0.00  0.00    +0.039 C 
ATOM      2  C   UNL     1       4.003   2.235  17.394  0.00  0.00    -0.032 C 
ATOM      3  C   UNL     1       3.728   1.470  18.691  0.00  0.00    -0.035 C 
ATOM      4  C   UNL     1       3.540   2.397  19.885  0.00  0.00    +0.015 C 
ATOM      5  N   UNL     1       2.475   3.375  19.670  0.00  0.00    -0.299 N 
ATOM      6  C   UNL     1       2.009   4.080  20.778  0.00  0.00    +0.220 C 
ATOM      7  O   UNL     1       2.555   3.961  21.877  0.00  0.00    -0.275 OA
ATOM      8  C   UNL     1       2.089   3.654  18.276  0.00  0.00    +0.033 C 
ATOM      9  H   UNL     1       2.971   3.787  16.307  0.00  0.00    +0.051 HD
ATOM     10  H   UNL     1       3.654   1.615  16.557  0.00  0.00    +0.028 HD
ATOM     11  H   UNL     1       5.084   2.348  17.256  0.00  0.00    +0.028 HD
ATOM     12  H   UNL     1       2.816   0.872  18.561  0.00  0.00    +0.028 HD
ATOM     13  H   UNL     1       4.538   0.758  18.885  0.00  0.00    +0.028 HD
ATOM     14  H   UNL     1       4.463   2.952  20.088  0.00  0.00    +0.046 HD
ATOM     15  H   UNL     1       3.311   1.812  20.783  0.00  0.00    +0.046 HD
ATOM     16  H   UNL     1       1.599   4.628  18.203  0.00  0.00    +0.048 HD
ATOM     17  H   UNL     1       1.356   2.893  17.986  0.00  0.00    +0.048 HD
ENDROOT
BRANCH   1  20
ATOM     18  O   UNL     1       5.387   4.534  15.662  0.00  0.00    -0.270 OA
ATOM     19  C   UNL     1       5.229   5.053  16.758  0.00  0.00    +0.246 C 
ATOM     20  N   UNL     1       4.261   4.671  17.659  0.00  0.00    -0.307 N 
ATOM     21  H   UNL     1       4.012   5.301  18.415  0.00  0.00    +0.149 HD
BRANCH  19  22
ATOM     22  C   UNL     1       6.063   6.206  17.147  0.00  0.00    +0.067 A 
ATOM     23  C   UNL     1       5.654   7.473  16.711  0.00  0.00    -0.046 A 
ATOM     24  C   UNL     1       6.389   8.596  17.071  0.00  0.00    -0.043 A 
ATOM     25  C   UNL     1       7.521   8.416  17.844  0.00  0.00    +0.028 A 
ATOM     26  N   UNL     1       7.957   7.206  18.261  0.00  0.00    -0.250 NA
ATOM     27  C   UNL     1       7.236   6.095  17.897  0.00  0.00    +0.156 A 
ATOM     28  H   UNL     1       4.757   7.582  16.105  0.00  0.00    +0.063 HD
ATOM     29  H   UNL     1       6.080   9.588  16.762  0.00  0.00    +0.063 HD
ATOM     30  H   UNL     1       8.126   9.262  18.160  0.00  0.00    +0.083 HD
BRANCH  27  31
ATOM     31  C   UNL     1       7.742   4.737  18.355  0.00  0.00    +0.435 C 
ATOM     32  F   UNL     1       8.723   4.850  19.302  0.00  0.00    -0.164 F 
ATOM     33  F   UNL     1       6.777   3.947  18.906  0.00  0.00    -0.164 F 
ATOM     34  F   UNL     1       8.290   3.984  17.356  0.00  0.00    -0.164 F 
ENDBRANCH  27  31
ENDBRANCH  19  22
ENDBRANCH   1  20
BRANCH   6  35
ATOM     35  C   UNL     1       0.817   5.006  20.557  0.00  0.00    +0.049 C 
ATOM     36  H   UNL     1       0.175   5.003  21.447  0.00  0.00    +0.041 HD
ATOM     37  H   UNL     1       0.224   4.607  19.724  0.00  0.00    +0.041 HD
BRANCH  35  38
ATOM     38  C   UNL     1       1.194   6.441  20.270  0.00  0.00    -0.039 A 
ATOM     39  C   UNL     1       1.921   6.775  19.119  0.00  0.00    -0.058 A 
ATOM     40  C   UNL     1       2.268   8.102  18.861  0.00  0.00    -0.061 A 
ATOM     41  C   UNL     1       1.896   9.106  19.754  0.00  0.00    -0.062 A 
ATOM     42  C   UNL     1       1.184   8.784  20.908  0.00  0.00    -0.061 A 
ATOM     43  C   UNL     1       0.838   7.458  21.168  0.00  0.00    -0.058 A 
ATOM     44  H   UNL     1       2.229   6.001  18.420  0.00  0.00    +0.062 HD
ATOM     45  H   UNL     1       2.833   8.351  17.968  0.00  0.00    +0.062 HD
ATOM     46  H   UNL     1       2.170  10.138  19.554  0.00  0.00    +0.062 HD
ATOM     47  H   UNL     1       0.906   9.566  21.610  0.00  0.00    +0.062 HD
ATOM     48  H   UNL     1       0.290   7.222  22.077  0.00  0.00    +0.062 HD
ENDBRANCH  35  38
ENDBRANCH   6  35
TORSDOF 5
ENDMDL
MODEL 33
REMARK VINA RESULT:    -5.426      3.697      6.577
REMARK INTER + INTRA:          -7.007
REMARK INTER:                  -7.011
REMARK INTRA:                   0.005
REMARK UNBOUND:                 0.005
REMARK  Name = 
REMARK  5 active torsions:
REMARK  status: ('A' for Active; 'I' for Inactive)
REMARK    1  A    between atoms: C_2  and  C_19
REMARK    2  A    between atoms: N_3  and  C_4
REMARK    3  A    between atoms: C_9  and  C_11
REMARK    4  A    between atoms: C_11  and  C_12
REMARK    5  A    between atoms: C_24  and  C_25
REMARK                            x       y       z     vdW  Elec       q    Type
REMARK                         _______ _______ _______ _____ _____    ______ ____
ROOT
ATOM      1  C   UNL     1       1.229  11.465  18.701  0.00  0.00    +0.039 C 
ATOM      2  C   UNL     1       1.326  12.388  19.929  0.00  0.00    -0.032 C 
ATOM      3  C   UNL     1       1.686  11.647  21.219  0.00  0.00    -0.035 C 
ATOM      4  C   UNL     1       1.141  10.226  21.247  0.00  0.00    +0.015 C 
ATOM      5  N   UNL     1       1.585   9.436  20.100  0.00  0.00    -0.299 N 
ATOM      6  C   UNL     1       1.401   8.055  20.155  0.00  0.00    +0.220 C 
ATOM      7  O   UNL     1       0.786   7.536  21.089  0.00  0.00    -0.275 OA
ATOM      8  C   UNL     1       2.043  10.173  18.911  0.00  0.00    +0.033 C 
ATOM      9  H   UNL     1       1.623  11.996  17.828  0.00  0.00    +0.051 HD
ATOM     10  H   UNL     1       2.096  13.149  19.750  0.00  0.00    +0.028 HD
ATOM     11  H   UNL     1       0.388  12.936  20.070  0.00  0.00    +0.028 HD
ATOM     12  H   UNL     1       2.781  11.608  21.308  0.00  0.00    +0.028 HD
ATOM     13  H   UNL     1       1.328  12.211  22.087  0.00  0.00    +0.028 HD
ATOM     14  H   UNL     1       0.045  10.236  21.238  0.00  0.00    +0.046 HD
ATOM     15  H   UNL     1       1.452   9.722  22.170  0.00  0.00    +0.046 HD
ATOM     16  H   UNL     1       1.977   9.542  18.021  0.00  0.00    +0.048 HD
ATOM     17  H   UNL     1       3.101  10.413  19.068  0.00  0.00    +0.048 HD
ENDROOT
BRANCH   1  20
ATOM     18  O   UNL     1      -0.781  13.344  18.064  0.00  0.00    -0.270 OA
ATOM     19  C   UNL     1      -1.067  12.155  18.096  0.00  0.00    +0.246 C 
ATOM     20  N   UNL     1      -0.174  11.157  18.409  0.00  0.00    -0.307 N 
ATOM     21  H   UNL     1      -0.395  10.198  18.160  0.00  0.00    +0.149 HD
BRANCH  19  22
ATOM     22  C   UNL     1      -2.424  11.720  17.715  0.00  0.00    +0.067 A 
ATOM     23  C   UNL     1      -2.599  11.212  16.421  0.00  0.00    -0.046 A 
ATOM     24  C   UNL     1      -3.852  10.764  16.019  0.00  0.00    -0.043 A 
ATOM     25  C   UNL     1      -4.896  10.852  16.920  0.00  0.00    +0.028 A 
ATOM     26  N   UNL     1      -4.768  11.359  18.167  0.00  0.00    -0.250 NA
ATOM     27  C   UNL     1      -3.533  11.811  18.560  0.00  0.00    +0.156 A 
ATOM     28  H   UNL     1      -1.755  11.155  15.735  0.00  0.00    +0.063 HD
ATOM     29  H   UNL     1      -4.004  10.349  15.030  0.00  0.00    +0.063 HD
ATOM     30  H   UNL     1      -5.894  10.507  16.659  0.00  0.00    +0.083 HD
BRANCH  27  31
ATOM     31  C   UNL     1      -3.400  12.395  19.957  0.00  0.00    +0.435 C 
ATOM     32  F   UNL     1      -2.374  11.820  20.656  0.00  0.00    -0.164 F 
ATOM     33  F   UNL     1      -3.160  13.738  19.973  0.00  0.00    -0.164 F 
ATOM     34  F   UNL     1      -4.509  12.224  20.737  0.00  0.00    -0.164 F 
ENDBRANCH  27  31
ENDBRANCH  19  22
ENDBRANCH   1  20
BRANCH   6  35
ATOM     35  C   UNL     1       1.979   7.234  19.006  0.00  0.00    +0.049 C 
ATOM     36  H   UNL     1       3.024   7.520  18.835  0.00  0.00    +0.041 HD
ATOM     37  H   UNL     1       1.419   7.480  18.095  0.00  0.00    +0.041 HD
BRANCH  35  38
ATOM     38  C   UNL     1       1.944   5.741  19.235  0.00  0.00    -0.039 A 
ATOM     39  C   UNL     1       2.231   5.202  20.497  0.00  0.00    -0.058 A 
ATOM     40  C   UNL     1       2.199   3.822  20.701  0.00  0.00    -0.061 A 
ATOM     41  C   UNL     1       1.886   2.968  19.645  0.00  0.00    -0.062 A 
ATOM     42  C   UNL     1       1.611   3.491  18.383  0.00  0.00    -0.061 A 
ATOM     43  C   UNL     1       1.644   4.871  18.177  0.00  0.00    -0.058 A 
ATOM     44  H   UNL     1       2.490   5.855  21.328  0.00  0.00    +0.062 HD
ATOM     45  H   UNL     1       2.424   3.413  21.682  0.00  0.00    +0.062 HD
ATOM     46  H   UNL     1       1.866   1.893  19.804  0.00  0.00    +0.062 HD
ATOM     47  H   UNL     1       1.380   2.824  17.557  0.00  0.00    +0.062 HD
ATOM     48  H   UNL     1       1.436   5.263  17.184  0.00  0.00    +0.062 HD
ENDBRANCH  35  38
ENDBRANCH   6  35
TORSDOF 5
ENDMDL
