MODEL 1
REMARK VINA RESULT:    -8.339      0.000      0.000
REMARK INTER + INTRA:         -12.307
REMARK INTER:                 -11.177
REMARK INTRA:                  -1.130
REMARK UNBOUND:                -1.286
REMARK  Name = 
REMARK  6 active torsions:
REMARK  status: ('A' for Active; 'I' for Inactive)
REMARK    1  A    between atoms: C_1  and  C_2
REMARK    2  A    between atoms: C_7  and  C_8
REMARK    3  A    between atoms: C_13  and  C_14
REMARK    4  A    between atoms: C_14  and  N_15
REMARK    5  A    between atoms: N_18  and  C_19
REMARK    6  A    between atoms: C_28  and  C_29
REMARK                            x       y       z     vdW  Elec       q    Type
REMARK                         _______ _______ _______ _____ _____    ______ ____
ROOT
ATOM      1  C   UNL     1       3.380   5.694  18.601  0.00  0.00    +0.030 A 
ATOM      2  C   UNL     1       2.569   6.744  18.144  0.00  0.00    +0.132 A 
ATOM      3  F   UNL     1       1.256   6.750  18.423  0.00  0.00    -0.205 F 
ATOM      4  C   UNL     1       3.077   7.796  17.389  0.00  0.00    -0.025 A 
ATOM      5  C   UNL     1       4.431   7.826  17.068  0.00  0.00    -0.054 A 
ATOM      6  C   UNL     1       5.297   6.810  17.513  0.00  0.00    -0.017 A 
ATOM      7  C   UNL     1       4.756   5.740  18.265  0.00  0.00    +0.052 A 
ATOM      8  H   UNL     1       2.408   8.578  17.044  0.00  0.00    +0.065 HD
ATOM      9  H   UNL     1       4.812   8.645  16.460  0.00  0.00    +0.062 HD
ENDROOT
BRANCH   1  15
ATOM     10  C   UNL     1       2.289   3.409  18.735  0.00  0.00    -0.043 A 
ATOM     11  C   UNL     1       1.731   2.386  19.521  0.00  0.00    -0.058 A 
ATOM     12  C   UNL     1       1.629   2.521  20.905  0.00  0.00    -0.061 A 
ATOM     13  C   UNL     1       2.093   3.675  21.524  0.00  0.00    -0.061 A 
ATOM     14  C   UNL     1       2.663   4.693  20.760  0.00  0.00    -0.054 A 
ATOM     15  C   UNL     1       2.773   4.583  19.360  0.00  0.00    -0.011 A 
ATOM     16  H   UNL     1       1.373   1.469  19.057  0.00  0.00    +0.062 HD
ATOM     17  H   UNL     1       1.195   1.721  21.499  0.00  0.00    +0.062 HD
ATOM     18  H   UNL     1       2.020   3.784  22.605  0.00  0.00    +0.062 HD
ATOM     19  H   UNL     1       3.023   5.588  21.269  0.00  0.00    +0.062 HD
BRANCH  10  20
ATOM     20  C   UNL     1       2.392   3.193  17.248  0.00  0.00    -0.039 C 
ATOM     21  H   UNL     1       1.993   4.060  16.712  0.00  0.00    +0.028 HD
ATOM     22  H   UNL     1       1.853   2.292  16.940  0.00  0.00    +0.028 HD
ATOM     23  H   UNL     1       3.435   3.054  16.941  0.00  0.00    +0.028 HD
ENDBRANCH  10  20
ENDBRANCH   1  15
BRANCH   7  24
ATOM     24  C   UNL     1       5.650   4.626  18.657  0.00  0.00    +0.243 C 
ATOM     25  N   UNL     1       6.325   4.766  19.834  0.00  0.00    -0.325 N 
ATOM     26  O   UNL     1       5.789   3.648  17.934  0.00  0.00    -0.270 OA
ATOM     27  H   UNL     1       6.822   3.948  20.166  0.00  0.00    +0.145 HD
ATOM     28  H   UNL     1       6.054   5.452  20.526  0.00  0.00    +0.145 HD
ENDBRANCH   7  24
BRANCH   6  29
ATOM     29  C   UNL     1       6.761   6.876  17.127  0.00  0.00    +0.039 C 
ATOM     30  H   UNL     1       6.892   6.469  16.118  0.00  0.00    +0.051 HD
ATOM     31  H   UNL     1       7.404   6.309  17.805  0.00  0.00    +0.051 HD
BRANCH  29  32
ATOM     32  N   UNL     1       7.253   8.242  17.170  0.00  0.00    -0.295 N 
ATOM     33  C   UNL     1       8.185   8.591  18.115  0.00  0.00    +0.300 C 
ATOM     34  O   UNL     1       8.716   7.805  18.883  0.00  0.00    -0.253 OA
ATOM     35  N   UNL     1       8.432   9.939  18.076  0.00  0.00    -0.293 N 
ATOM     36  H   UNL     1       6.561   8.959  17.007  0.00  0.00    +0.151 HD
ATOM     37  H   UNL     1       8.326  10.352  17.162  0.00  0.00    +0.151 HD
BRANCH  35  38
ATOM     38  C   UNL     1       9.465  10.523  18.906  0.00  0.00    +0.050 C 
ATOM     39  C   UNL     1       9.106  10.400  20.400  0.00  0.00    -0.026 C 
ATOM     40  C   UNL     1       9.734  11.609  21.105  0.00  0.00    -0.025 C 
ATOM     41  C   UNL     1       9.705  12.630  20.011  0.00  0.00    -0.042 A 
ATOM     42  C   UNL     1       9.853  14.001  20.127  0.00  0.00    -0.058 A 
ATOM     43  C   UNL     1       9.847  14.770  18.961  0.00  0.00    -0.061 A 
ATOM     44  C   UNL     1       9.715  14.161  17.704  0.00  0.00    -0.061 A 
ATOM     45  C   UNL     1       9.580  12.775  17.596  0.00  0.00    -0.057 A 
ATOM     46  C   UNL     1       9.562  12.018  18.759  0.00  0.00    -0.024 A 
ATOM     47  H   UNL     1      10.442  10.068  18.703  0.00  0.00    +0.055 HD
ATOM     48  H   UNL     1       9.442   9.449  20.829  0.00  0.00    +0.029 HD
ATOM     49  H   UNL     1       8.014  10.437  20.535  0.00  0.00    +0.029 HD
ATOM     50  H   UNL     1       9.145  11.912  21.976  0.00  0.00    +0.031 HD
ATOM     51  H   UNL     1      10.767  11.403  21.401  0.00  0.00    +0.031 HD
ATOM     52  H   UNL     1       9.978  14.472  21.097  0.00  0.00    +0.062 HD
ATOM     53  H   UNL     1       9.963  15.849  19.025  0.00  0.00    +0.062 HD
ATOM     54  H   UNL     1       9.733  14.772  16.805  0.00  0.00    +0.062 HD
ATOM     55  H   UNL     1       9.506  12.303  16.620  0.00  0.00    +0.062 HD
ENDBRANCH  35  38
ENDBRANCH  29  32
ENDBRANCH   6  29
TORSDOF 6
ENDMDL
MODEL 2
REMARK VINA RESULT:    -7.620      5.815      9.624
REMARK INTER + INTRA:         -11.357
REMARK INTER:                 -10.985
REMARK INTRA:                  -0.372
REMARK UNBOUND:                -1.286
REMARK  Name = 
REMARK  6 active torsions:
REMARK  status: ('A' for Active; 'I' for Inactive)
REMARK    1  A    between atoms: C_1  and  C_2
REMARK    2  A    between atoms: C_7  and  C_8
REMARK    3  A    between atoms: C_13  and  C_14
REMARK    4  A    between atoms: C_14  and  N_15
REMARK    5  A    between atoms: N_18  and  C_19
REMARK    6  A    between atoms: C_28  and  C_29
REMARK                            x       y       z     vdW  Elec       q    Type
REMARK                         _______ _______ _______ _____ _____    ______ ____
ROOT
ATOM      1  C   UNL     1      -1.475  11.680  19.880  0.00  0.00    +0.030 A 
ATOM      2  C   UNL     1      -2.526  11.400  18.994  0.00  0.00    +0.132 A 
ATOM      3  F   UNL     1      -3.747  11.914  19.213  0.00  0.00    -0.205 F 
ATOM      4  C   UNL     1      -2.357  10.584  17.881  0.00  0.00    -0.025 A 
ATOM      5  C   UNL     1      -1.110  10.021  17.619  0.00  0.00    -0.054 A 
ATOM      6  C   UNL     1      -0.014  10.280  18.462  0.00  0.00    -0.017 A 
ATOM      7  C   UNL     1      -0.214  11.099  19.599  0.00  0.00    +0.052 A 
ATOM      8  H   UNL     1      -3.203  10.382  17.231  0.00  0.00    +0.065 HD
ATOM      9  H   UNL     1      -0.996   9.368  16.755  0.00  0.00    +0.062 HD
ENDROOT
BRANCH   1  15
ATOM     10  C   UNL     1      -1.512  13.916  21.077  0.00  0.00    -0.043 A 
ATOM     11  C   UNL     1      -1.787  14.652  22.242  0.00  0.00    -0.058 A 
ATOM     12  C   UNL     1      -2.252  14.021  23.396  0.00  0.00    -0.061 A 
ATOM     13  C   UNL     1      -2.459  12.647  23.398  0.00  0.00    -0.061 A 
ATOM     14  C   UNL     1      -2.205  11.904  22.245  0.00  0.00    -0.054 A 
ATOM     15  C   UNL     1      -1.731  12.517  21.069  0.00  0.00    -0.011 A 
ATOM     16  H   UNL     1      -1.643  15.730  22.258  0.00  0.00    +0.062 HD
ATOM     17  H   UNL     1      -2.459  14.604  24.289  0.00  0.00    +0.062 HD
ATOM     18  H   UNL     1      -2.825  12.150  24.294  0.00  0.00    +0.062 HD
ATOM     19  H   UNL     1      -2.379  10.828  22.270  0.00  0.00    +0.062 HD
BRANCH  10  20
ATOM     20  C   UNL     1      -1.035  14.658  19.857  0.00  0.00    -0.039 C 
ATOM     21  H   UNL     1      -1.455  15.669  19.842  0.00  0.00    +0.028 HD
ATOM     22  H   UNL     1      -1.316  14.133  18.939  0.00  0.00    +0.028 HD
ATOM     23  H   UNL     1       0.057  14.742  19.848  0.00  0.00    +0.028 HD
ENDBRANCH  10  20
ENDBRANCH   1  15
BRANCH   7  24
ATOM     24  C   UNL     1       0.917  11.300  20.535  0.00  0.00    +0.243 C 
ATOM     25  N   UNL     1       1.725  12.374  20.300  0.00  0.00    -0.325 N 
ATOM     26  O   UNL     1       1.121  10.515  21.451  0.00  0.00    -0.270 OA
ATOM     27  H   UNL     1       2.406  12.587  21.018  0.00  0.00    +0.145 HD
ATOM     28  H   UNL     1       1.441  13.132  19.695  0.00  0.00    +0.145 HD
ENDBRANCH   7  24
BRANCH   6  29
ATOM     29  C   UNL     1       1.319   9.635  18.147  0.00  0.00    +0.039 C 
ATOM     30  H   UNL     1       2.078  10.414  18.004  0.00  0.00    +0.051 HD
ATOM     31  H   UNL     1       1.291   9.021  17.243  0.00  0.00    +0.051 HD
BRANCH  29  32
ATOM     32  N   UNL     1       1.734   8.742  19.215  0.00  0.00    -0.295 N 
ATOM     33  C   UNL     1       2.341   7.552  18.897  0.00  0.00    +0.300 C 
ATOM     34  O   UNL     1       2.652   7.217  17.765  0.00  0.00    -0.253 OA
ATOM     35  N   UNL     1       2.545   6.798  20.023  0.00  0.00    -0.293 N 
ATOM     36  H   UNL     1       1.097   8.669  19.994  0.00  0.00    +0.151 HD
ATOM     37  H   UNL     1       2.696   7.339  20.861  0.00  0.00    +0.151 HD
BRANCH  35  38
ATOM     38  C   UNL     1       3.275   5.549  19.950  0.00  0.00    +0.050 C 
ATOM     39  C   UNL     1       4.284   5.568  18.785  0.00  0.00    -0.026 C 
ATOM     40  C   UNL     1       4.417   4.121  18.293  0.00  0.00    -0.025 C 
ATOM     41  C   UNL     1       3.057   3.582  18.607  0.00  0.00    -0.042 A 
ATOM     42  C   UNL     1       2.469   2.427  18.120  0.00  0.00    -0.058 A 
ATOM     43  C   UNL     1       1.201   2.079  18.590  0.00  0.00    -0.061 A 
ATOM     44  C   UNL     1       0.551   2.873  19.547  0.00  0.00    -0.061 A 
ATOM     45  C   UNL     1       1.157   4.029  20.042  0.00  0.00    -0.057 A 
ATOM     46  C   UNL     1       2.407   4.384  19.554  0.00  0.00    -0.024 A 
ATOM     47  H   UNL     1       3.780   5.327  20.898  0.00  0.00    +0.055 HD
ATOM     48  H   UNL     1       5.249   5.995  19.081  0.00  0.00    +0.029 HD
ATOM     49  H   UNL     1       3.905   6.190  17.961  0.00  0.00    +0.029 HD
ATOM     50  H   UNL     1       4.646   4.083  17.224  0.00  0.00    +0.031 HD
ATOM     51  H   UNL     1       5.178   3.576  18.860  0.00  0.00    +0.031 HD
ATOM     52  H   UNL     1       2.981   1.799  17.397  0.00  0.00    +0.062 HD
ATOM     53  H   UNL     1       0.719   1.176  18.224  0.00  0.00    +0.062 HD
ATOM     54  H   UNL     1      -0.428   2.576  19.917  0.00  0.00    +0.062 HD
ATOM     55  H   UNL     1       0.664   4.627  20.804  0.00  0.00    +0.062 HD
ENDBRANCH  35  38
ENDBRANCH  29  32
ENDBRANCH   6  29
TORSDOF 6
ENDMDL
MODEL 3
REMARK VINA RESULT:    -7.609      6.561     10.132
REMARK INTER + INTRA:         -11.342
REMARK INTER:                 -10.274
REMARK INTRA:                  -1.068
REMARK UNBOUND:                -1.286
REMARK  Name = 
REMARK  6 active torsions:
REMARK  status: ('A' for Active; 'I' for Inactive)
REMARK    1  A    between atoms: C_1  and  C_2
REMARK    2  A    between atoms: C_7  and  C_8
REMARK    3  A    between atoms: C_13  and  C_14
REMARK    4  A    between atoms: C_14  and  N_15
REMARK    5  A    between atoms: N_18  and  C_19
REMARK    6  A    between atoms: C_28  and  C_29
REMARK                            x       y       z     vdW  Elec       q    Type
REMARK                         _______ _______ _______ _____ _____    ______ ____
ROOT
ATOM      1  C   UNL     1      -2.218  12.018  19.868  0.00  0.00    +0.030 A 
ATOM      2  C   UNL     1      -2.699  11.660  18.600  0.00  0.00    +0.132 A 
ATOM      3  F   UNL     1      -3.806  12.242  18.110  0.00  0.00    -0.205 F 
ATOM      4  C   UNL     1      -2.071  10.698  17.816  0.00  0.00    -0.025 A 
ATOM      5  C   UNL     1      -0.926  10.061  18.288  0.00  0.00    -0.054 A 
ATOM      6  C   UNL     1      -0.388  10.391  19.545  0.00  0.00    -0.017 A 
ATOM      7  C   UNL     1      -1.053  11.360  20.333  0.00  0.00    +0.052 A 
ATOM      8  H   UNL     1      -2.488  10.441  16.847  0.00  0.00    +0.065 HD
ATOM      9  H   UNL     1      -0.456   9.295  17.672  0.00  0.00    +0.062 HD
ENDROOT
BRANCH   1  15
ATOM     10  C   UNL     1      -2.561  14.371  20.751  0.00  0.00    -0.043 A 
ATOM     11  C   UNL     1      -3.317  15.267  21.526  0.00  0.00    -0.058 A 
ATOM     12  C   UNL     1      -4.438  14.833  22.233  0.00  0.00    -0.061 A 
ATOM     13  C   UNL     1      -4.826  13.501  22.166  0.00  0.00    -0.061 A 
ATOM     14  C   UNL     1      -4.096  12.602  21.390  0.00  0.00    -0.054 A 
ATOM     15  C   UNL     1      -2.956  13.014  20.670  0.00  0.00    -0.011 A 
ATOM     16  H   UNL     1      -3.037  16.317  21.582  0.00  0.00    +0.062 HD
ATOM     17  H   UNL     1      -5.012  15.538  22.828  0.00  0.00    +0.062 HD
ATOM     18  H   UNL     1      -5.703  13.157  22.713  0.00  0.00    +0.062 HD
ATOM     19  H   UNL     1      -4.422  11.562  21.350  0.00  0.00    +0.062 HD
BRANCH  10  20
ATOM     20  C   UNL     1      -1.375  14.905  19.992  0.00  0.00    -0.039 C 
ATOM     21  H   UNL     1      -1.673  15.191  18.978  0.00  0.00    +0.028 HD
ATOM     22  H   UNL     1      -0.571  14.164  19.941  0.00  0.00    +0.028 HD
ATOM     23  H   UNL     1      -0.956  15.788  20.486  0.00  0.00    +0.028 HD
ENDBRANCH  10  20
ENDBRANCH   1  15
BRANCH   7  24
ATOM     24  C   UNL     1      -0.537  11.643  21.693  0.00  0.00    +0.243 C 
ATOM     25  N   UNL     1      -1.017  10.865  22.705  0.00  0.00    -0.325 N 
ATOM     26  O   UNL     1       0.260  12.551  21.885  0.00  0.00    -0.270 OA
ATOM     27  H   UNL     1      -0.560  10.966  23.603  0.00  0.00    +0.145 HD
ATOM     28  H   UNL     1      -1.494   9.992  22.527  0.00  0.00    +0.145 HD
ENDBRANCH   7  24
BRANCH   6  29
ATOM     29  C   UNL     1       0.851   9.662  20.023  0.00  0.00    +0.039 C 
ATOM     30  H   UNL     1       0.612   9.092  20.929  0.00  0.00    +0.051 HD
ATOM     31  H   UNL     1       1.677  10.338  20.259  0.00  0.00    +0.051 HD
BRANCH  29  32
ATOM     32  N   UNL     1       1.358   8.764  19.001  0.00  0.00    -0.295 N 
ATOM     33  C   UNL     1       2.163   7.715  19.369  0.00  0.00    +0.300 C 
ATOM     34  O   UNL     1       2.419   7.413  20.525  0.00  0.00    -0.253 OA
ATOM     35  N   UNL     1       2.639   7.059  18.263  0.00  0.00    -0.293 N 
ATOM     36  H   UNL     1       1.645   9.203  18.139  0.00  0.00    +0.151 HD
ATOM     37  H   UNL     1       2.017   7.083  17.470  0.00  0.00    +0.151 HD
BRANCH  35  38
ATOM     38  C   UNL     1       3.419   5.847  18.405  0.00  0.00    +0.050 C 
ATOM     39  C   UNL     1       4.177   5.525  17.101  0.00  0.00    -0.026 C 
ATOM     40  C   UNL     1       4.304   3.998  17.031  0.00  0.00    -0.025 C 
ATOM     41  C   UNL     1       3.069   3.571  17.760  0.00  0.00    -0.042 A 
ATOM     42  C   UNL     1       2.473   2.321  17.759  0.00  0.00    -0.058 A 
ATOM     43  C   UNL     1       1.347   2.122  18.560  0.00  0.00    -0.061 A 
ATOM     44  C   UNL     1       0.847   3.161  19.361  0.00  0.00    -0.061 A 
ATOM     45  C   UNL     1       1.462   4.414  19.366  0.00  0.00    -0.057 A 
ATOM     46  C   UNL     1       2.567   4.613  18.549  0.00  0.00    -0.024 A 
ATOM     47  H   UNL     1       4.113   5.917  19.250  0.00  0.00    +0.055 HD
ATOM     48  H   UNL     1       5.151   6.024  17.056  0.00  0.00    +0.029 HD
ATOM     49  H   UNL     1       3.604   5.875  16.230  0.00  0.00    +0.029 HD
ATOM     50  H   UNL     1       4.321   3.647  15.994  0.00  0.00    +0.031 HD
ATOM     51  H   UNL     1       5.195   3.648  17.561  0.00  0.00    +0.031 HD
ATOM     52  H   UNL     1       2.872   1.510  17.158  0.00  0.00    +0.062 HD
ATOM     53  H   UNL     1       0.862   1.149  18.578  0.00  0.00    +0.062 HD
ATOM     54  H   UNL     1      -0.019   2.983  19.994  0.00  0.00    +0.062 HD
ATOM     55  H   UNL     1       1.091   5.208  20.007  0.00  0.00    +0.062 HD
ENDBRANCH  35  38
ENDBRANCH  29  32
ENDBRANCH   6  29
TORSDOF 6
ENDMDL
MODEL 4
REMARK VINA RESULT:    -7.446      5.150      7.580
REMARK INTER + INTRA:         -11.127
REMARK INTER:                 -10.441
REMARK INTRA:                  -0.686
REMARK UNBOUND:                -1.286
REMARK  Name = 
REMARK  6 active torsions:
REMARK  status: ('A' for Active; 'I' for Inactive)
REMARK    1  A    between atoms: C_1  and  C_2
REMARK    2  A    between atoms: C_7  and  C_8
REMARK    3  A    between atoms: C_13  and  C_14
REMARK    4  A    between atoms: C_14  and  N_15
REMARK    5  A    between atoms: N_18  and  C_19
REMARK    6  A    between atoms: C_28  and  C_29
REMARK                            x       y       z     vdW  Elec       q    Type
REMARK                         _______ _______ _______ _____ _____    ______ ____
ROOT
ATOM      1  C   UNL     1       4.009   4.042  19.092  0.00  0.00    +0.030 A 
ATOM      2  C   UNL     1       4.042   2.889  19.890  0.00  0.00    +0.132 A 
ATOM      3  F   UNL     1       4.966   1.941  19.666  0.00  0.00    -0.205 F 
ATOM      4  C   UNL     1       3.131   2.675  20.919  0.00  0.00    -0.025 A 
ATOM      5  C   UNL     1       2.149   3.627  21.181  0.00  0.00    -0.054 A 
ATOM      6  C   UNL     1       2.077   4.812  20.426  0.00  0.00    -0.017 A 
ATOM      7  C   UNL     1       3.004   5.000  19.372  0.00  0.00    +0.052 A 
ATOM      8  H   UNL     1       3.185   1.760  21.500  0.00  0.00    +0.065 HD
ATOM      9  H   UNL     1       1.429   3.439  21.976  0.00  0.00    +0.062 HD
ENDROOT
BRANCH   1  15
ATOM     10  C   UNL     1       6.224   4.838  18.147  0.00  0.00    -0.043 A 
ATOM     11  C   UNL     1       7.101   4.931  17.053  0.00  0.00    -0.058 A 
ATOM     12  C   UNL     1       6.750   4.413  15.807  0.00  0.00    -0.061 A 
ATOM     13  C   UNL     1       5.523   3.783  15.639  0.00  0.00    -0.061 A 
ATOM     14  C   UNL     1       4.648   3.668  16.719  0.00  0.00    -0.054 A 
ATOM     15  C   UNL     1       4.977   4.188  17.986  0.00  0.00    -0.011 A 
ATOM     16  H   UNL     1       8.072   5.410  17.165  0.00  0.00    +0.062 HD
ATOM     17  H   UNL     1       7.439   4.494  14.970  0.00  0.00    +0.062 HD
ATOM     18  H   UNL     1       5.245   3.373  14.670  0.00  0.00    +0.062 HD
ATOM     19  H   UNL     1       3.692   3.167  16.564  0.00  0.00    +0.062 HD
BRANCH  10  20
ATOM     20  C   UNL     1       6.671   5.396  19.472  0.00  0.00    -0.039 C 
ATOM     21  H   UNL     1       7.405   4.729  19.935  0.00  0.00    +0.028 HD
ATOM     22  H   UNL     1       5.823   5.533  20.151  0.00  0.00    +0.028 HD
ATOM     23  H   UNL     1       7.135   6.380  19.349  0.00  0.00    +0.028 HD
ENDBRANCH  10  20
ENDBRANCH   1  15
BRANCH   7  24
ATOM     24  C   UNL     1       2.872   6.205  18.520  0.00  0.00    +0.243 C 
ATOM     25  N   UNL     1       2.010   6.121  17.467  0.00  0.00    -0.325 N 
ATOM     26  O   UNL     1       3.534   7.209  18.747  0.00  0.00    -0.270 OA
ATOM     27  H   UNL     1       1.817   6.985  16.975  0.00  0.00    +0.145 HD
ATOM     28  H   UNL     1       1.313   5.391  17.405  0.00  0.00    +0.145 HD
ENDBRANCH   7  24
BRANCH   6  29
ATOM     29  C   UNL     1       0.984   5.812  20.737  0.00  0.00    +0.039 C 
ATOM     30  H   UNL     1       0.339   5.415  21.529  0.00  0.00    +0.051 HD
ATOM     31  H   UNL     1       0.354   6.037  19.871  0.00  0.00    +0.051 HD
BRANCH  29  32
ATOM     32  N   UNL     1       1.542   7.086  21.156  0.00  0.00    -0.295 N 
ATOM     33  C   UNL     1       0.701   8.147  21.379  0.00  0.00    +0.300 C 
ATOM     34  O   UNL     1      -0.518   8.081  21.343  0.00  0.00    -0.253 OA
ATOM     35  N   UNL     1       1.417   9.285  21.646  0.00  0.00    -0.293 N 
ATOM     36  H   UNL     1       2.408   7.350  20.709  0.00  0.00    +0.151 HD
ATOM     37  H   UNL     1       2.302   9.119  22.102  0.00  0.00    +0.151 HD
BRANCH  35  38
ATOM     38  C   UNL     1       0.742  10.508  22.025  0.00  0.00    +0.050 C 
ATOM     39  C   UNL     1      -0.391  10.223  23.031  0.00  0.00    -0.026 C 
ATOM     40  C   UNL     1      -1.470  11.286  22.793  0.00  0.00    -0.025 C 
ATOM     41  C   UNL     1      -1.291  11.559  21.332  0.00  0.00    -0.042 A 
ATOM     42  C   UNL     1      -2.170  12.198  20.475  0.00  0.00    -0.058 A 
ATOM     43  C   UNL     1      -1.778  12.398  19.149  0.00  0.00    -0.061 A 
ATOM     44  C   UNL     1      -0.513  11.977  18.707  0.00  0.00    -0.061 A 
ATOM     45  C   UNL     1       0.372  11.345  19.583  0.00  0.00    -0.057 A 
ATOM     46  C   UNL     1      -0.032  11.128  20.893  0.00  0.00    -0.024 A 
ATOM     47  H   UNL     1       1.448  11.242  22.434  0.00  0.00    +0.055 HD
ATOM     48  H   UNL     1      -0.034  10.220  24.067  0.00  0.00    +0.029 HD
ATOM     49  H   UNL     1      -0.825   9.229  22.845  0.00  0.00    +0.029 HD
ATOM     50  H   UNL     1      -2.467  10.902  23.027  0.00  0.00    +0.031 HD
ATOM     51  H   UNL     1      -1.270  12.193  23.373  0.00  0.00    +0.031 HD
ATOM     52  H   UNL     1      -3.139  12.545  20.821  0.00  0.00    +0.062 HD
ATOM     53  H   UNL     1      -2.449  12.899  18.457  0.00  0.00    +0.062 HD
ATOM     54  H   UNL     1      -0.216  12.159  17.678  0.00  0.00    +0.062 HD
ATOM     55  H   UNL     1       1.361  11.046  19.247  0.00  0.00    +0.062 HD
ENDBRANCH  35  38
ENDBRANCH  29  32
ENDBRANCH   6  29
TORSDOF 6
ENDMDL
MODEL 5
REMARK VINA RESULT:    -7.383      5.188      8.389
REMARK INTER + INTRA:         -11.043
REMARK INTER:                 -10.484
REMARK INTRA:                  -0.559
REMARK UNBOUND:                -1.286
REMARK  Name = 
REMARK  6 active torsions:
REMARK  status: ('A' for Active; 'I' for Inactive)
REMARK    1  A    between atoms: C_1  and  C_2
REMARK    2  A    between atoms: C_7  and  C_8
REMARK    3  A    between atoms: C_13  and  C_14
REMARK    4  A    between atoms: C_14  and  N_15
REMARK    5  A    between atoms: N_18  and  C_19
REMARK    6  A    between atoms: C_28  and  C_29
REMARK                            x       y       z     vdW  Elec       q    Type
REMARK                         _______ _______ _______ _____ _____    ______ ____
ROOT
ATOM      1  C   UNL     1      -0.064  10.716  20.941  0.00  0.00    +0.030 A 
ATOM      2  C   UNL     1       0.000  10.089  22.195  0.00  0.00    +0.132 A 
ATOM      3  F   UNL     1      -0.578  10.660  23.264  0.00  0.00    -0.205 F 
ATOM      4  C   UNL     1       0.662   8.880  22.384  0.00  0.00    -0.025 A 
ATOM      5  C   UNL     1       1.284   8.257  21.305  0.00  0.00    -0.054 A 
ATOM      6  C   UNL     1       1.239   8.829  20.021  0.00  0.00    -0.017 A 
ATOM      7  C   UNL     1       0.575  10.069  19.855  0.00  0.00    +0.052 A 
ATOM      8  H   UNL     1       0.699   8.439  23.375  0.00  0.00    +0.065 HD
ATOM      9  H   UNL     1       1.816   7.321  21.470  0.00  0.00    +0.062 HD
ENDROOT
BRANCH   1  15
ATOM     10  C   UNL     1      -0.054  13.252  20.932  0.00  0.00    -0.043 A 
ATOM     11  C   UNL     1      -0.762  14.457  20.790  0.00  0.00    -0.058 A 
ATOM     12  C   UNL     1      -2.137  14.457  20.558  0.00  0.00    -0.061 A 
ATOM     13  C   UNL     1      -2.822  13.253  20.453  0.00  0.00    -0.061 A 
ATOM     14  C   UNL     1      -2.131  12.048  20.576  0.00  0.00    -0.054 A 
ATOM     15  C   UNL     1      -0.743  12.021  20.815  0.00  0.00    -0.011 A 
ATOM     16  H   UNL     1      -0.243  15.411  20.857  0.00  0.00    +0.062 HD
ATOM     17  H   UNL     1      -2.671  15.398  20.451  0.00  0.00    +0.062 HD
ATOM     18  H   UNL     1      -3.894  13.247  20.268  0.00  0.00    +0.062 HD
ATOM     19  H   UNL     1      -2.689  11.115  20.486  0.00  0.00    +0.062 HD
BRANCH  10  20
ATOM     20  C   UNL     1       1.434  13.318  21.157  0.00  0.00    -0.039 C 
ATOM     21  H   UNL     1       1.665  13.134  22.211  0.00  0.00    +0.028 HD
ATOM     22  H   UNL     1       1.837  14.291  20.859  0.00  0.00    +0.028 HD
ATOM     23  H   UNL     1       1.957  12.565  20.558  0.00  0.00    +0.028 HD
ENDBRANCH  10  20
ENDBRANCH   1  15
BRANCH   7  24
ATOM     24  C   UNL     1       0.604  10.714  18.522  0.00  0.00    +0.243 C 
ATOM     25  N   UNL     1      -0.449  10.457  17.693  0.00  0.00    -0.325 N 
ATOM     26  O   UNL     1       1.546  11.418  18.186  0.00  0.00    -0.270 OA
ATOM     27  H   UNL     1      -0.496  11.008  16.845  0.00  0.00    +0.145 HD
ATOM     28  H   UNL     1      -1.315  10.066  18.037  0.00  0.00    +0.145 HD
ENDBRANCH   7  24
BRANCH   6  29
ATOM     29  C   UNL     1       1.942   8.123  18.880  0.00  0.00    +0.039 C 
ATOM     30  H   UNL     1       2.721   8.777  18.470  0.00  0.00    +0.051 HD
ATOM     31  H   UNL     1       1.265   7.853  18.066  0.00  0.00    +0.051 HD
BRANCH  29  32
ATOM     32  N   UNL     1       2.539   6.876  19.324  0.00  0.00    -0.295 N 
ATOM     33  C   UNL     1       3.715   6.455  18.756  0.00  0.00    +0.300 C 
ATOM     34  O   UNL     1       4.366   7.105  17.954  0.00  0.00    -0.253 OA
ATOM     35  N   UNL     1       4.054   5.207  19.213  0.00  0.00    -0.293 N 
ATOM     36  H   UNL     1       1.891   6.123  19.504  0.00  0.00    +0.151 HD
ATOM     37  H   UNL     1       3.742   5.013  20.152  0.00  0.00    +0.151 HD
BRANCH  35  38
ATOM     38  C   UNL     1       5.316   4.604  18.840  0.00  0.00    +0.050 C 
ATOM     39  C   UNL     1       6.499   5.509  19.238  0.00  0.00    -0.026 C 
ATOM     40  C   UNL     1       7.611   5.257  18.213  0.00  0.00    -0.025 C 
ATOM     41  C   UNL     1       6.812   4.903  16.998  0.00  0.00    -0.042 A 
ATOM     42  C   UNL     1       7.240   4.872  15.682  0.00  0.00    -0.058 A 
ATOM     43  C   UNL     1       6.336   4.457  14.701  0.00  0.00    -0.061 A 
ATOM     44  C   UNL     1       5.034   4.065  15.049  0.00  0.00    -0.061 A 
ATOM     45  C   UNL     1       4.616   4.087  16.381  0.00  0.00    -0.057 A 
ATOM     46  C   UNL     1       5.510   4.522  17.349  0.00  0.00    -0.024 A 
ATOM     47  H   UNL     1       5.426   3.606  19.281  0.00  0.00    +0.055 HD
ATOM     48  H   UNL     1       6.832   5.325  20.266  0.00  0.00    +0.029 HD
ATOM     49  H   UNL     1       6.203   6.568  19.189  0.00  0.00    +0.029 HD
ATOM     50  H   UNL     1       8.226   6.150  18.065  0.00  0.00    +0.031 HD
ATOM     51  H   UNL     1       8.241   4.412  18.509  0.00  0.00    +0.031 HD
ATOM     52  H   UNL     1       8.253   5.153  15.414  0.00  0.00    +0.062 HD
ATOM     53  H   UNL     1       6.647   4.422  13.660  0.00  0.00    +0.062 HD
ATOM     54  H   UNL     1       4.349   3.726  14.275  0.00  0.00    +0.062 HD
ATOM     55  H   UNL     1       3.617   3.756  16.651  0.00  0.00    +0.062 HD
ENDBRANCH  35  38
ENDBRANCH  29  32
ENDBRANCH   6  29
TORSDOF 6
ENDMDL
MODEL 6
REMARK VINA RESULT:    -7.303      6.291     10.069
REMARK INTER + INTRA:         -10.938
REMARK INTER:                 -10.337
REMARK INTRA:                  -0.601
REMARK UNBOUND:                -1.286
REMARK  Name = 
REMARK  6 active torsions:
REMARK  status: ('A' for Active; 'I' for Inactive)
REMARK    1  A    between atoms: C_1  and  C_2
REMARK    2  A    between atoms: C_7  and  C_8
REMARK    3  A    between atoms: C_13  and  C_14
REMARK    4  A    between atoms: C_14  and  N_15
REMARK    5  A    between atoms: N_18  and  C_19
REMARK    6  A    between atoms: C_28  and  C_29
REMARK                            x       y       z     vdW  Elec       q    Type
REMARK                         _______ _______ _______ _____ _____    ______ ____
ROOT
ATOM      1  C   UNL     1      -1.385  11.664  21.444  0.00  0.00    +0.030 A 
ATOM      2  C   UNL     1      -1.236  11.114  22.726  0.00  0.00    +0.132 A 
ATOM      3  F   UNL     1      -1.885  11.655  23.770  0.00  0.00    -0.205 F 
ATOM      4  C   UNL     1      -0.417  10.017  22.969  0.00  0.00    -0.025 A 
ATOM      5  C   UNL     1       0.283   9.430  21.918  0.00  0.00    -0.054 A 
ATOM      6  C   UNL     1       0.159   9.926  20.608  0.00  0.00    -0.017 A 
ATOM      7  C   UNL     1      -0.666  11.055  20.387  0.00  0.00    +0.052 A 
ATOM      8  H   UNL     1      -0.320   9.635  23.981  0.00  0.00    +0.065 HD
ATOM      9  H   UNL     1       0.936   8.584  22.126  0.00  0.00    +0.062 HD
ENDROOT
BRANCH   1  15
ATOM     10  C   UNL     1      -1.737  14.175  21.405  0.00  0.00    -0.043 A 
ATOM     11  C   UNL     1      -2.600  15.266  21.204  0.00  0.00    -0.058 A 
ATOM     12  C   UNL     1      -3.943  15.068  20.883  0.00  0.00    -0.061 A 
ATOM     13  C   UNL     1      -4.440  13.777  20.748  0.00  0.00    -0.061 A 
ATOM     14  C   UNL     1      -3.593  12.684  20.930  0.00  0.00    -0.054 A 
ATOM     15  C   UNL     1      -2.234  12.858  21.259  0.00  0.00    -0.011 A 
ATOM     16  H   UNL     1      -2.229  16.285  21.293  0.00  0.00    +0.062 HD
ATOM     17  H   UNL     1      -4.597  15.922  20.731  0.00  0.00    +0.062 HD
ATOM     18  H   UNL     1      -5.486  13.617  20.494  0.00  0.00    +0.062 HD
ATOM     19  H   UNL     1      -4.005  11.681  20.815  0.00  0.00    +0.062 HD
BRANCH  10  20
ATOM     20  C   UNL     1      -0.292  14.455  21.726  0.00  0.00    -0.039 C 
ATOM     21  H   UNL     1       0.109  13.670  22.375  0.00  0.00    +0.028 HD
ATOM     22  H   UNL     1      -0.176  15.427  22.214  0.00  0.00    +0.028 HD
ATOM     23  H   UNL     1       0.314  14.487  20.815  0.00  0.00    +0.028 HD
ENDBRANCH  10  20
ENDBRANCH   1  15
BRANCH   7  24
ATOM     24  C   UNL     1      -0.726  11.632  19.023  0.00  0.00    +0.243 C 
ATOM     25  N   UNL     1       0.242  12.536  18.696  0.00  0.00    -0.325 N 
ATOM     26  O   UNL     1      -1.622  11.323  18.249  0.00  0.00    -0.270 OA
ATOM     27  H   UNL     1       0.281  12.818  17.724  0.00  0.00    +0.145 HD
ATOM     28  H   UNL     1       1.091  12.627  19.237  0.00  0.00    +0.145 HD
ENDBRANCH   7  24
BRANCH   6  29
ATOM     29  C   UNL     1       0.951   9.266  19.498  0.00  0.00    +0.039 C 
ATOM     30  H   UNL     1       1.431  10.036  18.883  0.00  0.00    +0.051 HD
ATOM     31  H   UNL     1       0.330   8.649  18.843  0.00  0.00    +0.051 HD
BRANCH  29  32
ATOM     32  N   UNL     1       1.962   8.372  20.035  0.00  0.00    -0.295 N 
ATOM     33  C   UNL     1       2.353   7.281  19.300  0.00  0.00    +0.300 C 
ATOM     34  O   UNL     1       1.979   7.046  18.162  0.00  0.00    -0.253 OA
ATOM     35  N   UNL     1       3.217   6.497  20.020  0.00  0.00    -0.293 N 
ATOM     36  H   UNL     1       1.894   8.182  21.025  0.00  0.00    +0.151 HD
ATOM     37  H   UNL     1       3.785   7.006  20.680  0.00  0.00    +0.151 HD
BRANCH  35  38
ATOM     38  C   UNL     1       3.853   5.349  19.408  0.00  0.00    +0.050 C 
ATOM     39  C   UNL     1       4.221   5.640  17.940  0.00  0.00    -0.026 C 
ATOM     40  C   UNL     1       4.138   4.304  17.191  0.00  0.00    -0.025 C 
ATOM     41  C   UNL     1       3.079   3.597  17.976  0.00  0.00    -0.042 A 
ATOM     42  C   UNL     1       2.353   2.478  17.605  0.00  0.00    -0.058 A 
ATOM     43  C   UNL     1       1.443   1.943  18.520  0.00  0.00    -0.061 A 
ATOM     44  C   UNL     1       1.288   2.517  19.791  0.00  0.00    -0.061 A 
ATOM     45  C   UNL     1       2.034   3.638  20.162  0.00  0.00    -0.057 A 
ATOM     46  C   UNL     1       2.919   4.180  19.240  0.00  0.00    -0.024 A 
ATOM     47  H   UNL     1       4.738   5.035  19.975  0.00  0.00    +0.055 HD
ATOM     48  H   UNL     1       5.207   6.108  17.846  0.00  0.00    +0.029 HD
ATOM     49  H   UNL     1       3.497   6.342  17.497  0.00  0.00    +0.029 HD
ATOM     50  H   UNL     1       3.856   4.451  16.144  0.00  0.00    +0.031 HD
ATOM     51  H   UNL     1       5.083   3.755  17.252  0.00  0.00    +0.031 HD
ATOM     52  H   UNL     1       2.489   2.019  16.631  0.00  0.00    +0.062 HD
ATOM     53  H   UNL     1       0.863   1.064  18.254  0.00  0.00    +0.062 HD
ATOM     54  H   UNL     1       0.590   2.076  20.499  0.00  0.00    +0.062 HD
ATOM     55  H   UNL     1       1.933   4.064  21.156  0.00  0.00    +0.062 HD
ENDBRANCH  35  38
ENDBRANCH  29  32
ENDBRANCH   6  29
TORSDOF 6
ENDMDL
MODEL 7
REMARK VINA RESULT:    -7.285      6.662      9.514
REMARK INTER + INTRA:         -10.913
REMARK INTER:                  -9.643
REMARK INTRA:                  -1.271
REMARK UNBOUND:                -1.286
REMARK  Name = 
REMARK  6 active torsions:
REMARK  status: ('A' for Active; 'I' for Inactive)
REMARK    1  A    between atoms: C_1  and  C_2
REMARK    2  A    between atoms: C_7  and  C_8
REMARK    3  A    between atoms: C_13  and  C_14
REMARK    4  A    between atoms: C_14  and  N_15
REMARK    5  A    between atoms: N_18  and  C_19
REMARK    6  A    between atoms: C_28  and  C_29
REMARK                            x       y       z     vdW  Elec       q    Type
REMARK                         _______ _______ _______ _____ _____    ______ ____
ROOT
ATOM      1  C   UNL     1      -1.627  11.891  21.560  0.00  0.00    +0.030 A 
ATOM      2  C   UNL     1      -1.514  11.131  22.733  0.00  0.00    +0.132 A 
ATOM      3  F   UNL     1      -2.334  11.366  23.770  0.00  0.00    -0.205 F 
ATOM      4  C   UNL     1      -0.558  10.130  22.876  0.00  0.00    -0.025 A 
ATOM      5  C   UNL     1       0.320   9.859  21.830  0.00  0.00    -0.054 A 
ATOM      6  C   UNL     1       0.243  10.577  20.623  0.00  0.00    -0.017 A 
ATOM      7  C   UNL     1      -0.726  11.603  20.506  0.00  0.00    +0.052 A 
ATOM      8  H   UNL     1      -0.497   9.578  23.809  0.00  0.00    +0.065 HD
ATOM      9  H   UNL     1       1.076   9.086  21.962  0.00  0.00    +0.062 HD
ENDROOT
BRANCH   1  15
ATOM     10  C   UNL     1      -2.371  14.286  21.939  0.00  0.00    -0.043 A 
ATOM     11  C   UNL     1      -3.372  15.267  21.830  0.00  0.00    -0.058 A 
ATOM     12  C   UNL     1      -4.625  14.956  21.303  0.00  0.00    -0.061 A 
ATOM     13  C   UNL     1      -4.893  13.664  20.868  0.00  0.00    -0.061 A 
ATOM     14  C   UNL     1      -3.905  12.683  20.955  0.00  0.00    -0.054 A 
ATOM     15  C   UNL     1      -2.633  12.970  21.488  0.00  0.00    -0.011 A 
ATOM     16  H   UNL     1      -3.180  16.287  22.154  0.00  0.00    +0.062 HD
ATOM     17  H   UNL     1      -5.389  15.725  21.226  0.00  0.00    +0.062 HD
ATOM     18  H   UNL     1      -5.868  13.416  20.453  0.00  0.00    +0.062 HD
ATOM     19  H   UNL     1      -4.137  11.677  20.604  0.00  0.00    +0.062 HD
BRANCH  10  20
ATOM     20  C   UNL     1      -1.030  14.690  22.494  0.00  0.00    -0.039 C 
ATOM     21  H   UNL     1      -0.311  14.829  21.680  0.00  0.00    +0.028 HD
ATOM     22  H   UNL     1      -0.650  13.940  23.194  0.00  0.00    +0.028 HD
ATOM     23  H   UNL     1      -1.101  15.631  23.050  0.00  0.00    +0.028 HD
ENDBRANCH  10  20
ENDBRANCH   1  15
BRANCH   7  24
ATOM     24  C   UNL     1      -0.748  12.418  19.269  0.00  0.00    +0.243 C 
ATOM     25  N   UNL     1      -1.557  11.980  18.261  0.00  0.00    -0.325 N 
ATOM     26  O   UNL     1      -0.048  13.416  19.162  0.00  0.00    -0.270 OA
ATOM     27  H   UNL     1      -1.677  12.611  17.478  0.00  0.00    +0.145 HD
ATOM     28  H   UNL     1      -2.286  11.299  18.420  0.00  0.00    +0.145 HD
ENDBRANCH   7  24
BRANCH   6  29
ATOM     29  C   UNL     1       1.228  10.258  19.518  0.00  0.00    +0.039 C 
ATOM     30  H   UNL     1       2.050  10.982  19.541  0.00  0.00    +0.051 HD
ATOM     31  H   UNL     1       0.776  10.292  18.523  0.00  0.00    +0.051 HD
BRANCH  29  32
ATOM     32  N   UNL     1       1.759   8.914  19.661  0.00  0.00    -0.295 N 
ATOM     33  C   UNL     1       1.971   8.152  18.539  0.00  0.00    +0.300 C 
ATOM     34  O   UNL     1       1.833   8.556  17.395  0.00  0.00    -0.253 OA
ATOM     35  N   UNL     1       2.355   6.882  18.882  0.00  0.00    -0.293 N 
ATOM     36  H   UNL     1       1.398   8.384  20.441  0.00  0.00    +0.151 HD
ATOM     37  H   UNL     1       2.871   6.826  19.747  0.00  0.00    +0.151 HD
BRANCH  35  38
ATOM     38  C   UNL     1       2.744   5.930  17.863  0.00  0.00    +0.050 C 
ATOM     39  C   UNL     1       2.542   4.482  18.355  0.00  0.00    -0.026 C 
ATOM     40  C   UNL     1       3.607   3.627  17.659  0.00  0.00    -0.025 C 
ATOM     41  C   UNL     1       4.711   4.622  17.486  0.00  0.00    -0.042 A 
ATOM     42  C   UNL     1       6.042   4.371  17.199  0.00  0.00    -0.058 A 
ATOM     43  C   UNL     1       6.900   5.459  17.025  0.00  0.00    -0.061 A 
ATOM     44  C   UNL     1       6.416   6.773  17.119  0.00  0.00    -0.061 A 
ATOM     45  C   UNL     1       5.069   7.017  17.396  0.00  0.00    -0.057 A 
ATOM     46  C   UNL     1       4.226   5.932  17.592  0.00  0.00    -0.024 A 
ATOM     47  H   UNL     1       2.198   6.102  16.928  0.00  0.00    +0.055 HD
ATOM     48  H   UNL     1       1.526   4.118  18.161  0.00  0.00    +0.029 HD
ATOM     49  H   UNL     1       2.694   4.424  19.443  0.00  0.00    +0.029 HD
ATOM     50  H   UNL     1       3.904   2.776  18.280  0.00  0.00    +0.031 HD
ATOM     51  H   UNL     1       3.260   3.276  16.682  0.00  0.00    +0.031 HD
ATOM     52  H   UNL     1       6.413   3.356  17.103  0.00  0.00    +0.062 HD
ATOM     53  H   UNL     1       7.949   5.289  16.797  0.00  0.00    +0.062 HD
ATOM     54  H   UNL     1       7.093   7.609  16.961  0.00  0.00    +0.062 HD
ATOM     55  H   UNL     1       4.690   8.034  17.440  0.00  0.00    +0.062 HD
ENDBRANCH  35  38
ENDBRANCH  29  32
ENDBRANCH   6  29
TORSDOF 6
ENDMDL
MODEL 8
REMARK VINA RESULT:    -7.261      6.574      9.216
REMARK INTER + INTRA:         -10.882
REMARK INTER:                  -9.344
REMARK INTRA:                  -1.538
REMARK UNBOUND:                -1.286
REMARK  Name = 
REMARK  6 active torsions:
REMARK  status: ('A' for Active; 'I' for Inactive)
REMARK    1  A    between atoms: C_1  and  C_2
REMARK    2  A    between atoms: C_7  and  C_8
REMARK    3  A    between atoms: C_13  and  C_14
REMARK    4  A    between atoms: C_14  and  N_15
REMARK    5  A    between atoms: N_18  and  C_19
REMARK    6  A    between atoms: C_28  and  C_29
REMARK                            x       y       z     vdW  Elec       q    Type
REMARK                         _______ _______ _______ _____ _____    ______ ____
ROOT
ATOM      1  C   UNL     1      -0.335  13.230  20.973  0.00  0.00    +0.030 A 
ATOM      2  C   UNL     1       0.721  13.966  21.531  0.00  0.00    +0.132 A 
ATOM      3  F   UNL     1       0.548  14.618  22.692  0.00  0.00    -0.205 F 
ATOM      4  C   UNL     1       1.964  14.060  20.914  0.00  0.00    -0.025 A 
ATOM      5  C   UNL     1       2.186  13.407  19.704  0.00  0.00    -0.054 A 
ATOM      6  C   UNL     1       1.171  12.640  19.104  0.00  0.00    -0.017 A 
ATOM      7  C   UNL     1      -0.092  12.573  19.741  0.00  0.00    +0.052 A 
ATOM      8  H   UNL     1       2.748  14.653  21.376  0.00  0.00    +0.065 HD
ATOM      9  H   UNL     1       3.158  13.505  19.222  0.00  0.00    +0.062 HD
ENDROOT
BRANCH   1  15
ATOM     10  C   UNL     1      -1.997  12.207  22.592  0.00  0.00    -0.043 A 
ATOM     11  C   UNL     1      -3.258  12.252  23.211  0.00  0.00    -0.058 A 
ATOM     12  C   UNL     1      -4.173  13.256  22.898  0.00  0.00    -0.061 A 
ATOM     13  C   UNL     1      -3.838  14.236  21.971  0.00  0.00    -0.061 A 
ATOM     14  C   UNL     1      -2.585  14.213  21.359  0.00  0.00    -0.054 A 
ATOM     15  C   UNL     1      -1.644  13.207  21.654  0.00  0.00    -0.011 A 
ATOM     16  H   UNL     1      -3.536  11.502  23.948  0.00  0.00    +0.062 HD
ATOM     17  H   UNL     1      -5.145  13.278  23.385  0.00  0.00    +0.062 HD
ATOM     18  H   UNL     1      -4.547  15.024  21.726  0.00  0.00    +0.062 HD
ATOM     19  H   UNL     1      -2.343  14.994  20.638  0.00  0.00    +0.062 HD
BRANCH  10  20
ATOM     20  C   UNL     1      -1.043  11.111  22.990  0.00  0.00    -0.039 C 
ATOM     21  H   UNL     1      -1.163  10.873  24.051  0.00  0.00    +0.028 HD
ATOM     22  H   UNL     1      -0.005  11.399  22.795  0.00  0.00    +0.028 HD
ATOM     23  H   UNL     1      -1.229  10.198  22.413  0.00  0.00    +0.028 HD
ENDBRANCH  10  20
ENDBRANCH   1  15
BRANCH   7  24
ATOM     24  C   UNL     1      -1.187  11.840  19.065  0.00  0.00    +0.243 C 
ATOM     25  N   UNL     1      -1.895  12.526  18.122  0.00  0.00    -0.325 N 
ATOM     26  O   UNL     1      -1.450  10.684  19.370  0.00  0.00    -0.270 OA
ATOM     27  H   UNL     1      -2.544  11.983  17.566  0.00  0.00    +0.145 HD
ATOM     28  H   UNL     1      -1.550  13.386  17.718  0.00  0.00    +0.145 HD
ENDBRANCH   7  24
BRANCH   6  29
ATOM     29  C   UNL     1       1.453  11.960  17.781  0.00  0.00    +0.039 C 
ATOM     30  H   UNL     1       1.884  12.686  17.082  0.00  0.00    +0.051 HD
ATOM     31  H   UNL     1       0.555  11.540  17.320  0.00  0.00    +0.051 HD
BRANCH  29  32
ATOM     32  N   UNL     1       2.367  10.844  17.949  0.00  0.00    -0.295 N 
ATOM     33  C   UNL     1       1.873   9.564  17.931  0.00  0.00    +0.300 C 
ATOM     34  O   UNL     1       0.712   9.275  17.687  0.00  0.00    -0.253 OA
ATOM     35  N   UNL     1       2.861   8.661  18.227  0.00  0.00    -0.293 N 
ATOM     36  H   UNL     1       3.099  10.980  18.630  0.00  0.00    +0.151 HD
ATOM     37  H   UNL     1       3.783   8.948  17.937  0.00  0.00    +0.151 HD
BRANCH  35  38
ATOM     38  C   UNL     1       2.603   7.237  18.156  0.00  0.00    +0.050 C 
ATOM     39  C   UNL     1       2.367   6.650  19.562  0.00  0.00    -0.026 C 
ATOM     40  C   UNL     1       2.863   5.199  19.522  0.00  0.00    -0.025 C 
ATOM     41  C   UNL     1       3.952   5.293  18.500  0.00  0.00    -0.042 A 
ATOM     42  C   UNL     1       4.967   4.383  18.256  0.00  0.00    -0.058 A 
ATOM     43  C   UNL     1       5.853   4.643  17.208  0.00  0.00    -0.061 A 
ATOM     44  C   UNL     1       5.702   5.789  16.412  0.00  0.00    -0.061 A 
ATOM     45  C   UNL     1       4.668   6.694  16.657  0.00  0.00    -0.057 A 
ATOM     46  C   UNL     1       3.804   6.444  17.714  0.00  0.00    -0.024 A 
ATOM     47  H   UNL     1       1.754   7.019  17.497  0.00  0.00    +0.055 HD
ATOM     48  H   UNL     1       1.317   6.720  19.868  0.00  0.00    +0.029 HD
ATOM     49  H   UNL     1       2.951   7.205  20.311  0.00  0.00    +0.029 HD
ATOM     50  H   UNL     1       3.234   4.878  20.500  0.00  0.00    +0.031 HD
ATOM     51  H   UNL     1       2.078   4.520  19.175  0.00  0.00    +0.031 HD
ATOM     52  H   UNL     1       5.071   3.484  18.856  0.00  0.00    +0.062 HD
ATOM     53  H   UNL     1       6.657   3.944  16.995  0.00  0.00    +0.062 HD
ATOM     54  H   UNL     1       6.389   5.966  15.588  0.00  0.00    +0.062 HD
ATOM     55  H   UNL     1       4.535   7.566  16.022  0.00  0.00    +0.062 HD
ENDBRANCH  35  38
ENDBRANCH  29  32
ENDBRANCH   6  29
TORSDOF 6
ENDMDL
MODEL 9
REMARK VINA RESULT:    -7.160      5.827      9.877
REMARK INTER + INTRA:         -10.749
REMARK INTER:                  -9.476
REMARK INTRA:                  -1.273
REMARK UNBOUND:                -1.286
REMARK  Name = 
REMARK  6 active torsions:
REMARK  status: ('A' for Active; 'I' for Inactive)
REMARK    1  A    between atoms: C_1  and  C_2
REMARK    2  A    between atoms: C_7  and  C_8
REMARK    3  A    between atoms: C_13  and  C_14
REMARK    4  A    between atoms: C_14  and  N_15
REMARK    5  A    between atoms: N_18  and  C_19
REMARK    6  A    between atoms: C_28  and  C_29
REMARK                            x       y       z     vdW  Elec       q    Type
REMARK                         _______ _______ _______ _____ _____    ______ ____
ROOT
ATOM      1  C   UNL     1      -0.698  11.420  20.891  0.00  0.00    +0.030 A 
ATOM      2  C   UNL     1      -0.554  10.550  21.983  0.00  0.00    +0.132 A 
ATOM      3  F   UNL     1      -1.182  10.811  23.140  0.00  0.00    -0.205 F 
ATOM      4  C   UNL     1       0.239   9.409  21.919  0.00  0.00    -0.025 A 
ATOM      5  C   UNL     1       0.917   9.104  20.742  0.00  0.00    -0.054 A 
ATOM      6  C   UNL     1       0.797   9.929  19.609  0.00  0.00    -0.017 A 
ATOM      7  C   UNL     1      -0.001  11.094  19.702  0.00  0.00    +0.052 A 
ATOM      8  H   UNL     1       0.334   8.773  22.794  0.00  0.00    +0.065 HD
ATOM      9  H   UNL     1       1.551   8.218  20.711  0.00  0.00    +0.062 HD
ENDROOT
BRANCH   1  15
ATOM     10  C   UNL     1      -0.984  13.865  21.498  0.00  0.00    -0.043 A 
ATOM     11  C   UNL     1      -1.821  14.989  21.603  0.00  0.00    -0.058 A 
ATOM     12  C   UNL     1      -3.175  14.907  21.279  0.00  0.00    -0.061 A 
ATOM     13  C   UNL     1      -3.709  13.703  20.835  0.00  0.00    -0.061 A 
ATOM     14  C   UNL     1      -2.888  12.582  20.712  0.00  0.00    -0.054 A 
ATOM     15  C   UNL     1      -1.518  12.639  21.037  0.00  0.00    -0.011 A 
ATOM     16  H   UNL     1      -1.421  15.944  21.937  0.00  0.00    +0.062 HD
ATOM     17  H   UNL     1      -3.810  15.785  21.365  0.00  0.00    +0.062 HD
ATOM     18  H   UNL     1      -4.764  13.634  20.577  0.00  0.00    +0.062 HD
ATOM     19  H   UNL     1      -3.329  11.650  20.358  0.00  0.00    +0.062 HD
BRANCH  10  20
ATOM     20  C   UNL     1       0.474  14.025  21.840  0.00  0.00    -0.039 C 
ATOM     21  H   UNL     1       0.667  13.656  22.853  0.00  0.00    +0.028 HD
ATOM     22  H   UNL     1       0.786  15.071  21.767  0.00  0.00    +0.028 HD
ATOM     23  H   UNL     1       1.106  13.460  21.146  0.00  0.00    +0.028 HD
ENDBRANCH  10  20
ENDBRANCH   1  15
BRANCH   7  24
ATOM     24  C   UNL     1      -0.056  12.010  18.538  0.00  0.00    +0.243 C 
ATOM     25  N   UNL     1      -1.044  11.782  17.625  0.00  0.00    -0.325 N 
ATOM     26  O   UNL     1       0.769  12.903  18.403  0.00  0.00    -0.270 OA
ATOM     27  H   UNL     1      -1.165  12.490  16.911  0.00  0.00    +0.145 HD
ATOM     28  H   UNL     1      -1.842  11.201  17.837  0.00  0.00    +0.145 HD
ENDBRANCH   7  24
BRANCH   6  29
ATOM     29  C   UNL     1       1.565   9.566  18.354  0.00  0.00    +0.039 C 
ATOM     30  H   UNL     1       2.632   9.758  18.510  0.00  0.00    +0.051 HD
ATOM     31  H   UNL     1       1.243  10.137  17.479  0.00  0.00    +0.051 HD
BRANCH  29  32
ATOM     32  N   UNL     1       1.368   8.170  18.005  0.00  0.00    -0.295 N 
ATOM     33  C   UNL     1       2.367   7.266  18.264  0.00  0.00    +0.300 C 
ATOM     34  O   UNL     1       3.398   7.528  18.864  0.00  0.00    -0.253 OA
ATOM     35  N   UNL     1       2.047   6.033  17.756  0.00  0.00    -0.293 N 
ATOM     36  H   UNL     1       0.896   8.002  17.129  0.00  0.00    +0.151 HD
ATOM     37  H   UNL     1       1.058   5.838  17.736  0.00  0.00    +0.151 HD
BRANCH  35  38
ATOM     38  C   UNL     1       2.900   4.890  18.006  0.00  0.00    +0.050 C 
ATOM     39  C   UNL     1       2.656   3.781  16.962  0.00  0.00    -0.026 C 
ATOM     40  C   UNL     1       2.935   2.446  17.664  0.00  0.00    -0.025 C 
ATOM     41  C   UNL     1       2.563   2.777  19.075  0.00  0.00    -0.042 A 
ATOM     42  C   UNL     1       2.310   1.897  20.114  0.00  0.00    -0.058 A 
ATOM     43  C   UNL     1       2.031   2.424  21.377  0.00  0.00    -0.061 A 
ATOM     44  C   UNL     1       2.029   3.812  21.587  0.00  0.00    -0.061 A 
ATOM     45  C   UNL     1       2.298   4.691  20.537  0.00  0.00    -0.057 A 
ATOM     46  C   UNL     1       2.551   4.163  19.278  0.00  0.00    -0.024 A 
ATOM     47  H   UNL     1       3.958   5.179  18.025  0.00  0.00    +0.055 HD
ATOM     48  H   UNL     1       3.273   3.915  16.066  0.00  0.00    +0.029 HD
ATOM     49  H   UNL     1       1.608   3.796  16.628  0.00  0.00    +0.029 HD
ATOM     50  H   UNL     1       2.321   1.642  17.247  0.00  0.00    +0.031 HD
ATOM     51  H   UNL     1       3.995   2.180  17.606  0.00  0.00    +0.031 HD
ATOM     52  H   UNL     1       2.334   0.823  19.958  0.00  0.00    +0.062 HD
ATOM     53  H   UNL     1       1.831   1.755  22.209  0.00  0.00    +0.062 HD
ATOM     54  H   UNL     1       1.830   4.205  22.581  0.00  0.00    +0.062 HD
ATOM     55  H   UNL     1       2.324   5.764  20.708  0.00  0.00    +0.062 HD
ENDBRANCH  35  38
ENDBRANCH  29  32
ENDBRANCH   6  29
TORSDOF 6
ENDMDL
MODEL 10
REMARK VINA RESULT:    -7.136      5.360      7.519
REMARK INTER + INTRA:         -10.717
REMARK INTER:                 -10.195
REMARK INTRA:                  -0.522
REMARK UNBOUND:                -1.286
REMARK  Name = 
REMARK  6 active torsions:
REMARK  status: ('A' for Active; 'I' for Inactive)
REMARK    1  A    between atoms: C_1  and  C_2
REMARK    2  A    between atoms: C_7  and  C_8
REMARK    3  A    between atoms: C_13  and  C_14
REMARK    4  A    between atoms: C_14  and  N_15
REMARK    5  A    between atoms: N_18  and  C_19
REMARK    6  A    between atoms: C_28  and  C_29
REMARK                            x       y       z     vdW  Elec       q    Type
REMARK                         _______ _______ _______ _____ _____    ______ ____
ROOT
ATOM      1  C   UNL     1       3.940   4.018  19.323  0.00  0.00    +0.030 A 
ATOM      2  C   UNL     1       3.919   2.866  20.124  0.00  0.00    +0.132 A 
ATOM      3  F   UNL     1       4.832   1.899  19.937  0.00  0.00    -0.205 F 
ATOM      4  C   UNL     1       2.964   2.673  21.117  0.00  0.00    -0.025 A 
ATOM      5  C   UNL     1       1.992   3.645  21.339  0.00  0.00    -0.054 A 
ATOM      6  C   UNL     1       1.973   4.829  20.580  0.00  0.00    -0.017 A 
ATOM      7  C   UNL     1       2.943   4.996  19.562  0.00  0.00    +0.052 A 
ATOM      8  H   UNL     1       2.978   1.758  21.702  0.00  0.00    +0.065 HD
ATOM      9  H   UNL     1       1.239   3.473  22.107  0.00  0.00    +0.062 HD
ENDROOT
BRANCH   1  15
ATOM     10  C   UNL     1       4.715   3.710  16.928  0.00  0.00    -0.043 A 
ATOM     11  C   UNL     1       5.720   3.870  15.959  0.00  0.00    -0.058 A 
ATOM     12  C   UNL     1       6.954   4.427  16.292  0.00  0.00    -0.061 A 
ATOM     13  C   UNL     1       7.197   4.844  17.595  0.00  0.00    -0.061 A 
ATOM     14  C   UNL     1       6.205   4.707  18.565  0.00  0.00    -0.054 A 
ATOM     15  C   UNL     1       4.952   4.142  18.255  0.00  0.00    -0.011 A 
ATOM     16  H   UNL     1       5.546   3.560  14.930  0.00  0.00    +0.062 HD
ATOM     17  H   UNL     1       7.722   4.543  15.531  0.00  0.00    +0.062 HD
ATOM     18  H   UNL     1       8.157   5.284  17.859  0.00  0.00    +0.062 HD
ATOM     19  H   UNL     1       6.417   5.045  19.580  0.00  0.00    +0.062 HD
BRANCH  10  20
ATOM     20  C   UNL     1       3.395   3.123  16.501  0.00  0.00    -0.039 C 
ATOM     21  H   UNL     1       2.631   3.322  17.258  0.00  0.00    +0.028 HD
ATOM     22  H   UNL     1       3.476   2.044  16.338  0.00  0.00    +0.028 HD
ATOM     23  H   UNL     1       3.058   3.559  15.554  0.00  0.00    +0.028 HD
ENDBRANCH  10  20
ENDBRANCH   1  15
BRANCH   7  24
ATOM     24  C   UNL     1       2.869   6.201  18.704  0.00  0.00    +0.243 C 
ATOM     25  N   UNL     1       2.037   6.135  17.624  0.00  0.00    -0.325 N 
ATOM     26  O   UNL     1       3.547   7.189  18.949  0.00  0.00    -0.270 OA
ATOM     27  H   UNL     1       1.882   7.002  17.125  0.00  0.00    +0.145 HD
ATOM     28  H   UNL     1       1.325   5.422  17.543  0.00  0.00    +0.145 HD
ENDBRANCH   7  24
BRANCH   6  29
ATOM     29  C   UNL     1       0.888   5.851  20.846  0.00  0.00    +0.039 C 
ATOM     30  H   UNL     1       0.253   5.504  21.670  0.00  0.00    +0.051 HD
ATOM     31  H   UNL     1       0.248   6.028  19.978  0.00  0.00    +0.051 HD
BRANCH  29  32
ATOM     32  N   UNL     1       1.458   7.144  21.183  0.00  0.00    -0.295 N 
ATOM     33  C   UNL     1       0.621   8.202  21.434  0.00  0.00    +0.300 C 
ATOM     34  O   UNL     1      -0.597   8.121  21.489  0.00  0.00    -0.253 OA
ATOM     35  N   UNL     1       1.339   9.356  21.610  0.00  0.00    -0.293 N 
ATOM     36  H   UNL     1       2.285   7.404  20.665  0.00  0.00    +0.151 HD
ATOM     37  H   UNL     1       2.256   9.216  22.005  0.00  0.00    +0.151 HD
BRANCH  35  38
ATOM     38  C   UNL     1       0.676  10.584  22.000  0.00  0.00    +0.050 C 
ATOM     39  C   UNL     1      -0.436  10.306  23.031  0.00  0.00    -0.026 C 
ATOM     40  C   UNL     1      -1.516  11.372  22.812  0.00  0.00    -0.025 C 
ATOM     41  C   UNL     1      -1.368  11.639  21.347  0.00  0.00    -0.042 A 
ATOM     42  C   UNL     1      -2.264  12.277  20.506  0.00  0.00    -0.058 A 
ATOM     43  C   UNL     1      -1.900  12.470  19.172  0.00  0.00    -0.061 A 
ATOM     44  C   UNL     1      -0.648  12.043  18.704  0.00  0.00    -0.061 A 
ATOM     45  C   UNL     1       0.255  11.412  19.562  0.00  0.00    -0.057 A 
ATOM     46  C   UNL     1      -0.121  11.201  20.881  0.00  0.00    -0.024 A 
ATOM     47  H   UNL     1       1.393  11.316  22.389  0.00  0.00    +0.055 HD
ATOM     48  H   UNL     1      -0.055  10.306  24.059  0.00  0.00    +0.029 HD
ATOM     49  H   UNL     1      -0.876   9.313  22.859  0.00  0.00    +0.029 HD
ATOM     50  H   UNL     1      -2.509  10.993  23.071  0.00  0.00    +0.031 HD
ATOM     51  H   UNL     1      -1.300  12.281  23.384  0.00  0.00    +0.031 HD
ATOM     52  H   UNL     1      -3.224  12.628  20.872  0.00  0.00    +0.062 HD
ATOM     53  H   UNL     1      -2.585  12.970  18.492  0.00  0.00    +0.062 HD
ATOM     54  H   UNL     1      -0.372  12.219  17.667  0.00  0.00    +0.062 HD
ATOM     55  H   UNL     1       1.235  11.108  19.205  0.00  0.00    +0.062 HD
ENDBRANCH  35  38
ENDBRANCH  29  32
ENDBRANCH   6  29
TORSDOF 6
ENDMDL
MODEL 11
REMARK VINA RESULT:    -7.111      6.074      9.669
REMARK INTER + INTRA:         -10.683
REMARK INTER:                 -10.054
REMARK INTRA:                  -0.630
REMARK UNBOUND:                -1.286
REMARK  Name = 
REMARK  6 active torsions:
REMARK  status: ('A' for Active; 'I' for Inactive)
REMARK    1  A    between atoms: C_1  and  C_2
REMARK    2  A    between atoms: C_7  and  C_8
REMARK    3  A    between atoms: C_13  and  C_14
REMARK    4  A    between atoms: C_14  and  N_15
REMARK    5  A    between atoms: N_18  and  C_19
REMARK    6  A    between atoms: C_28  and  C_29
REMARK                            x       y       z     vdW  Elec       q    Type
REMARK                         _______ _______ _______ _____ _____    ______ ____
ROOT
ATOM      1  C   UNL     1      -0.515  12.690  20.293  0.00  0.00    +0.030 A 
ATOM      2  C   UNL     1       0.350  13.794  20.342  0.00  0.00    +0.132 A 
ATOM      3  F   UNL     1      -0.002  14.895  21.025  0.00  0.00    -0.205 F 
ATOM      4  C   UNL     1       1.578  13.800  19.689  0.00  0.00    -0.025 A 
ATOM      5  C   UNL     1       1.979  12.683  18.961  0.00  0.00    -0.054 A 
ATOM      6  C   UNL     1       1.162  11.540  18.890  0.00  0.00    -0.017 A 
ATOM      7  C   UNL     1      -0.092  11.563  19.548  0.00  0.00    +0.052 A 
ATOM      8  H   UNL     1       2.208  14.683  19.742  0.00  0.00    +0.065 HD
ATOM      9  H   UNL     1       2.934  12.708  18.438  0.00  0.00    +0.062 HD
ENDROOT
BRANCH   1  15
ATOM     10  C   UNL     1      -2.049  12.216  22.256  0.00  0.00    -0.043 A 
ATOM     11  C   UNL     1      -3.320  12.331  22.845  0.00  0.00    -0.058 A 
ATOM     12  C   UNL     1      -4.368  12.958  22.172  0.00  0.00    -0.061 A 
ATOM     13  C   UNL     1      -4.158  13.489  20.905  0.00  0.00    -0.061 A 
ATOM     14  C   UNL     1      -2.899  13.396  20.312  0.00  0.00    -0.054 A 
ATOM     15  C   UNL     1      -1.825  12.763  20.970  0.00  0.00    -0.011 A 
ATOM     16  H   UNL     1      -3.503  11.933  23.841  0.00  0.00    +0.062 HD
ATOM     17  H   UNL     1      -5.345  13.039  22.641  0.00  0.00    +0.062 HD
ATOM     18  H   UNL     1      -4.971  13.983  20.376  0.00  0.00    +0.062 HD
ATOM     19  H   UNL     1      -2.757  13.824  19.319  0.00  0.00    +0.062 HD
BRANCH  10  20
ATOM     20  C   UNL     1      -0.953  11.549  23.044  0.00  0.00    -0.039 C 
ATOM     21  H   UNL     1      -0.631  10.632  22.541  0.00  0.00    +0.028 HD
ATOM     22  H   UNL     1      -1.283  11.311  24.060  0.00  0.00    +0.028 HD
ATOM     23  H   UNL     1      -0.083  12.206  23.143  0.00  0.00    +0.028 HD
ENDBRANCH  10  20
ENDBRANCH   1  15
BRANCH   7  24
ATOM     24  C   UNL     1      -0.990  10.394  19.399  0.00  0.00    +0.243 C 
ATOM     25  N   UNL     1      -1.885  10.435  18.369  0.00  0.00    -0.325 N 
ATOM     26  O   UNL     1      -0.939   9.459  20.186  0.00  0.00    -0.270 OA
ATOM     27  H   UNL     1      -2.396   9.580  18.186  0.00  0.00    +0.145 HD
ATOM     28  H   UNL     1      -1.785  11.086  17.602  0.00  0.00    +0.145 HD
ENDBRANCH   7  24
BRANCH   6  29
ATOM     29  C   UNL     1       1.632  10.354  18.074  0.00  0.00    +0.039 C 
ATOM     30  H   UNL     1       2.611  10.579  17.634  0.00  0.00    +0.051 HD
ATOM     31  H   UNL     1       0.947  10.099  17.262  0.00  0.00    +0.051 HD
BRANCH  29  32
ATOM     32  N   UNL     1       1.731   9.160  18.894  0.00  0.00    -0.295 N 
ATOM     33  C   UNL     1       2.512   8.115  18.468  0.00  0.00    +0.300 C 
ATOM     34  O   UNL     1       3.224   8.145  17.477  0.00  0.00    -0.253 OA
ATOM     35  N   UNL     1       2.381   7.039  19.308  0.00  0.00    -0.293 N 
ATOM     36  H   UNL     1       0.872   8.862  19.334  0.00  0.00    +0.151 HD
ATOM     37  H   UNL     1       2.185   7.285  20.266  0.00  0.00    +0.151 HD
BRANCH  35  38
ATOM     38  C   UNL     1       3.199   5.858  19.124  0.00  0.00    +0.050 C 
ATOM     39  C   UNL     1       3.170   5.392  17.655  0.00  0.00    -0.026 C 
ATOM     40  C   UNL     1       3.345   3.868  17.672  0.00  0.00    -0.025 C 
ATOM     41  C   UNL     1       2.718   3.520  18.986  0.00  0.00    -0.042 A 
ATOM     42  C   UNL     1       2.300   2.274  19.421  0.00  0.00    -0.058 A 
ATOM     43  C   UNL     1       1.787   2.161  20.716  0.00  0.00    -0.061 A 
ATOM     44  C   UNL     1       1.717   3.283  21.557  0.00  0.00    -0.061 A 
ATOM     45  C   UNL     1       2.154   4.533  21.113  0.00  0.00    -0.057 A 
ATOM     46  C   UNL     1       2.641   4.644  19.818  0.00  0.00    -0.024 A 
ATOM     47  H   UNL     1       4.229   6.032  19.456  0.00  0.00    +0.055 HD
ATOM     48  H   UNL     1       3.935   5.890  17.048  0.00  0.00    +0.029 HD
ATOM     49  H   UNL     1       2.199   5.633  17.196  0.00  0.00    +0.029 HD
ATOM     50  H   UNL     1       2.834   3.399  16.827  0.00  0.00    +0.031 HD
ATOM     51  H   UNL     1       4.403   3.589  17.674  0.00  0.00    +0.031 HD
ATOM     52  H   UNL     1       2.374   1.401  18.780  0.00  0.00    +0.062 HD
ATOM     53  H   UNL     1       1.453   1.194  21.082  0.00  0.00    +0.062 HD
ATOM     54  H   UNL     1       1.334   3.174  22.568  0.00  0.00    +0.062 HD
ATOM     55  H   UNL     1       2.126   5.394  21.775  0.00  0.00    +0.062 HD
ENDBRANCH  35  38
ENDBRANCH  29  32
ENDBRANCH   6  29
TORSDOF 6
ENDMDL
MODEL 12
REMARK VINA RESULT:    -7.034      6.658      9.304
REMARK INTER + INTRA:         -10.581
REMARK INTER:                  -9.442
REMARK INTRA:                  -1.140
REMARK UNBOUND:                -1.286
REMARK  Name = 
REMARK  6 active torsions:
REMARK  status: ('A' for Active; 'I' for Inactive)
REMARK    1  A    between atoms: C_1  and  C_2
REMARK    2  A    between atoms: C_7  and  C_8
REMARK    3  A    between atoms: C_13  and  C_14
REMARK    4  A    between atoms: C_14  and  N_15
REMARK    5  A    between atoms: N_18  and  C_19
REMARK    6  A    between atoms: C_28  and  C_29
REMARK                            x       y       z     vdW  Elec       q    Type
REMARK                         _______ _______ _______ _____ _____    ______ ____
ROOT
ATOM      1  C   UNL     1      -1.028  11.930  21.854  0.00  0.00    +0.030 A 
ATOM      2  C   UNL     1      -0.940  10.698  22.520  0.00  0.00    +0.132 A 
ATOM      3  F   UNL     1      -1.515  10.540  23.722  0.00  0.00    -0.205 F 
ATOM      4  C   UNL     1      -0.256   9.614  21.980  0.00  0.00    -0.025 A 
ATOM      5  C   UNL     1       0.364   9.736  20.739  0.00  0.00    -0.054 A 
ATOM      6  C   UNL     1       0.295  10.941  20.017  0.00  0.00    -0.017 A 
ATOM      7  C   UNL     1      -0.391  12.037  20.594  0.00  0.00    +0.052 A 
ATOM      8  H   UNL     1      -0.201   8.684  22.538  0.00  0.00    +0.065 HD
ATOM      9  H   UNL     1       0.913   8.885  20.337  0.00  0.00    +0.062 HD
ENDROOT
BRANCH   1  15
ATOM     10  C   UNL     1      -3.083  13.370  22.226  0.00  0.00    -0.043 A 
ATOM     11  C   UNL     1      -3.690  14.451  22.887  0.00  0.00    -0.058 A 
ATOM     12  C   UNL     1      -2.974  15.232  23.793  0.00  0.00    -0.061 A 
ATOM     13  C   UNL     1      -1.642  14.936  24.060  0.00  0.00    -0.061 A 
ATOM     14  C   UNL     1      -1.029  13.858  23.424  0.00  0.00    -0.054 A 
ATOM     15  C   UNL     1      -1.730  13.057  22.501  0.00  0.00    -0.011 A 
ATOM     16  H   UNL     1      -4.735  14.693  22.701  0.00  0.00    +0.062 HD
ATOM     17  H   UNL     1      -3.458  16.065  24.296  0.00  0.00    +0.062 HD
ATOM     18  H   UNL     1      -1.079  15.540  24.770  0.00  0.00    +0.062 HD
ATOM     19  H   UNL     1       0.016  13.643  23.653  0.00  0.00    +0.062 HD
BRANCH  10  20
ATOM     20  C   UNL     1      -3.917  12.551  21.276  0.00  0.00    -0.039 C 
ATOM     21  H   UNL     1      -3.533  12.648  20.256  0.00  0.00    +0.028 HD
ATOM     22  H   UNL     1      -4.966  12.860  21.303  0.00  0.00    +0.028 HD
ATOM     23  H   UNL     1      -3.896  11.490  21.548  0.00  0.00    +0.028 HD
ENDBRANCH  10  20
ENDBRANCH   1  15
BRANCH   7  24
ATOM     24  C   UNL     1      -0.388  13.332  19.874  0.00  0.00    +0.243 C 
ATOM     25  N   UNL     1      -1.354  13.510  18.927  0.00  0.00    -0.325 N 
ATOM     26  O   UNL     1       0.464  14.179  20.108  0.00  0.00    -0.270 OA
ATOM     27  H   UNL     1      -1.436  14.442  18.541  0.00  0.00    +0.145 HD
ATOM     28  H   UNL     1      -2.174  12.921  18.885  0.00  0.00    +0.145 HD
ENDBRANCH   7  24
BRANCH   6  29
ATOM     29  C   UNL     1       0.997  11.033  18.678  0.00  0.00    +0.039 C 
ATOM     30  H   UNL     1       1.337  12.062  18.514  0.00  0.00    +0.051 HD
ATOM     31  H   UNL     1       0.353  10.752  17.841  0.00  0.00    +0.051 HD
BRANCH  29  32
ATOM     32  N   UNL     1       2.133  10.129  18.619  0.00  0.00    -0.295 N 
ATOM     33  C   UNL     1       2.001   8.927  17.970  0.00  0.00    +0.300 C 
ATOM     34  O   UNL     1       1.011   8.586  17.343  0.00  0.00    -0.253 OA
ATOM     35  N   UNL     1       3.132   8.167  18.126  0.00  0.00    -0.293 N 
ATOM     36  H   UNL     1       2.686  10.069  19.461  0.00  0.00    +0.151 HD
ATOM     37  H   UNL     1       3.980   8.703  18.221  0.00  0.00    +0.151 HD
BRANCH  35  38
ATOM     38  C   UNL     1       3.270   6.902  17.435  0.00  0.00    +0.050 C 
ATOM     39  C   UNL     1       2.577   5.768  18.217  0.00  0.00    -0.026 C 
ATOM     40  C   UNL     1       3.361   4.484  17.917  0.00  0.00    -0.025 C 
ATOM     41  C   UNL     1       4.735   5.030  17.689  0.00  0.00    -0.042 A 
ATOM     42  C   UNL     1       5.933   4.335  17.681  0.00  0.00    -0.058 A 
ATOM     43  C   UNL     1       7.106   5.037  17.390  0.00  0.00    -0.061 A 
ATOM     44  C   UNL     1       7.063   6.408  17.095  0.00  0.00    -0.061 A 
ATOM     45  C   UNL     1       5.848   7.098  17.092  0.00  0.00    -0.057 A 
ATOM     46  C   UNL     1       4.690   6.401  17.405  0.00  0.00    -0.024 A 
ATOM     47  H   UNL     1       2.879   6.964  16.412  0.00  0.00    +0.055 HD
ATOM     48  H   UNL     1       1.516   5.676  17.958  0.00  0.00    +0.029 HD
ATOM     49  H   UNL     1       2.621   5.968  19.298  0.00  0.00    +0.029 HD
ATOM     50  H   UNL     1       3.322   3.788  18.760  0.00  0.00    +0.031 HD
ATOM     51  H   UNL     1       2.993   3.997  17.009  0.00  0.00    +0.031 HD
ATOM     52  H   UNL     1       5.965   3.270  17.886  0.00  0.00    +0.062 HD
ATOM     53  H   UNL     1       8.058   4.514  17.376  0.00  0.00    +0.062 HD
ATOM     54  H   UNL     1       7.982   6.935  16.851  0.00  0.00    +0.062 HD
ATOM     55  H   UNL     1       5.814   8.153  16.836  0.00  0.00    +0.062 HD
ENDBRANCH  35  38
ENDBRANCH  29  32
ENDBRANCH   6  29
TORSDOF 6
ENDMDL
MODEL 13
REMARK VINA RESULT:    -6.992      5.724      9.735
REMARK INTER + INTRA:         -10.526
REMARK INTER:                  -9.975
REMARK INTRA:                  -0.551
REMARK UNBOUND:                -1.286
REMARK  Name = 
REMARK  6 active torsions:
REMARK  status: ('A' for Active; 'I' for Inactive)
REMARK    1  A    between atoms: C_1  and  C_2
REMARK    2  A    between atoms: C_7  and  C_8
REMARK    3  A    between atoms: C_13  and  C_14
REMARK    4  A    between atoms: C_14  and  N_15
REMARK    5  A    between atoms: N_18  and  C_19
REMARK    6  A    between atoms: C_28  and  C_29
REMARK                            x       y       z     vdW  Elec       q    Type
REMARK                         _______ _______ _______ _____ _____    ______ ____
ROOT
ATOM      1  C   UNL     1      -0.563  11.294  21.196  0.00  0.00    +0.030 A 
ATOM      2  C   UNL     1      -0.716  10.283  22.156  0.00  0.00    +0.132 A 
ATOM      3  F   UNL     1      -1.340  10.544  23.316  0.00  0.00    -0.205 F 
ATOM      4  C   UNL     1      -0.229   8.995  21.958  0.00  0.00    -0.025 A 
ATOM      5  C   UNL     1       0.432   8.681  20.774  0.00  0.00    -0.054 A 
ATOM      6  C   UNL     1       0.602   9.650  19.767  0.00  0.00    -0.017 A 
ATOM      7  C   UNL     1       0.114  10.958  19.998  0.00  0.00    +0.052 A 
ATOM      8  H   UNL     1      -0.358   8.248  22.736  0.00  0.00    +0.065 HD
ATOM      9  H   UNL     1       0.826   7.675  20.639  0.00  0.00    +0.062 HD
ENDROOT
BRANCH   1  15
ATOM     10  C   UNL     1      -2.306  13.126  21.003  0.00  0.00    -0.043 A 
ATOM     11  C   UNL     1      -2.724  14.428  21.328  0.00  0.00    -0.058 A 
ATOM     12  C   UNL     1      -1.921  15.267  22.100  0.00  0.00    -0.061 A 
ATOM     13  C   UNL     1      -0.694  14.813  22.568  0.00  0.00    -0.061 A 
ATOM     14  C   UNL     1      -0.272  13.518  22.269  0.00  0.00    -0.054 A 
ATOM     15  C   UNL     1      -1.062  12.653  21.486  0.00  0.00    -0.011 A 
ATOM     16  H   UNL     1      -3.686  14.799  20.980  0.00  0.00    +0.062 HD
ATOM     17  H   UNL     1      -2.258  16.272  22.341  0.00  0.00    +0.062 HD
ATOM     18  H   UNL     1      -0.066  15.462  23.175  0.00  0.00    +0.062 HD
ATOM     19  H   UNL     1       0.693  13.183  22.651  0.00  0.00    +0.062 HD
BRANCH  10  20
ATOM     20  C   UNL     1      -3.229  12.261  20.186  0.00  0.00    -0.039 C 
ATOM     21  H   UNL     1      -3.941  12.883  19.636  0.00  0.00    +0.028 HD
ATOM     22  H   UNL     1      -3.774  11.554  20.820  0.00  0.00    +0.028 HD
ATOM     23  H   UNL     1      -2.668  11.662  19.460  0.00  0.00    +0.028 HD
ENDBRANCH  10  20
ENDBRANCH   1  15
BRANCH   7  24
ATOM     24  C   UNL     1       0.370  12.000  18.976  0.00  0.00    +0.243 C 
ATOM     25  N   UNL     1      -0.549  12.117  17.975  0.00  0.00    -0.325 N 
ATOM     26  O   UNL     1       1.377  12.694  19.026  0.00  0.00    -0.270 OA
ATOM     27  H   UNL     1      -0.445  12.917  17.363  0.00  0.00    +0.145 HD
ATOM     28  H   UNL     1      -1.471  11.709  18.048  0.00  0.00    +0.145 HD
ENDBRANCH   7  24
BRANCH   6  29
ATOM     29  C   UNL     1       1.341   9.268  18.502  0.00  0.00    +0.039 C 
ATOM     30  H   UNL     1       1.635  10.175  17.962  0.00  0.00    +0.051 HD
ATOM     31  H   UNL     1       0.738   8.654  17.826  0.00  0.00    +0.051 HD
BRANCH  29  32
ATOM     32  N   UNL     1       2.521   8.476  18.802  0.00  0.00    -0.295 N 
ATOM     33  C   UNL     1       2.511   7.129  18.537  0.00  0.00    +0.300 C 
ATOM     34  O   UNL     1       1.603   6.544  17.968  0.00  0.00    -0.253 OA
ATOM     35  N   UNL     1       3.658   6.537  18.999  0.00  0.00    -0.293 N 
ATOM     36  H   UNL     1       2.994   8.709  19.663  0.00  0.00    +0.151 HD
ATOM     37  H   UNL     1       4.466   7.140  18.992  0.00  0.00    +0.151 HD
BRANCH  35  38
ATOM     38  C   UNL     1       3.924   5.139  18.731  0.00  0.00    +0.050 C 
ATOM     39  C   UNL     1       3.878   4.849  17.218  0.00  0.00    -0.026 C 
ATOM     40  C   UNL     1       3.398   3.401  17.061  0.00  0.00    -0.025 C 
ATOM     41  C   UNL     1       2.533   3.249  18.272  0.00  0.00    -0.042 A 
ATOM     42  C   UNL     1       1.585   2.270  18.519  0.00  0.00    -0.058 A 
ATOM     43  C   UNL     1       0.922   2.284  19.749  0.00  0.00    -0.061 A 
ATOM     44  C   UNL     1       1.228   3.256  20.714  0.00  0.00    -0.061 A 
ATOM     45  C   UNL     1       2.195   4.231  20.461  0.00  0.00    -0.057 A 
ATOM     46  C   UNL     1       2.833   4.228  19.228  0.00  0.00    -0.024 A 
ATOM     47  H   UNL     1       4.886   4.828  19.157  0.00  0.00    +0.055 HD
ATOM     48  H   UNL     1       4.847   5.020  16.734  0.00  0.00    +0.029 HD
ATOM     49  H   UNL     1       3.158   5.518  16.723  0.00  0.00    +0.029 HD
ATOM     50  H   UNL     1       2.842   3.265  16.128  0.00  0.00    +0.031 HD
ATOM     51  H   UNL     1       4.236   2.698  17.105  0.00  0.00    +0.031 HD
ATOM     52  H   UNL     1       1.364   1.504  17.783  0.00  0.00    +0.062 HD
ATOM     53  H   UNL     1       0.176   1.526  19.969  0.00  0.00    +0.062 HD
ATOM     54  H   UNL     1       0.718   3.240  21.674  0.00  0.00    +0.062 HD
ATOM     55  H   UNL     1       2.450   4.965  21.220  0.00  0.00    +0.062 HD
ENDBRANCH  35  38
ENDBRANCH  29  32
ENDBRANCH   6  29
TORSDOF 6
ENDMDL
MODEL 14
REMARK VINA RESULT:    -6.965      5.454      8.103
REMARK INTER + INTRA:         -10.491
REMARK INTER:                  -9.838
REMARK INTRA:                  -0.653
REMARK UNBOUND:                -1.286
REMARK  Name = 
REMARK  6 active torsions:
REMARK  status: ('A' for Active; 'I' for Inactive)
REMARK    1  A    between atoms: C_1  and  C_2
REMARK    2  A    between atoms: C_7  and  C_8
REMARK    3  A    between atoms: C_13  and  C_14
REMARK    4  A    between atoms: C_14  and  N_15
REMARK    5  A    between atoms: N_18  and  C_19
REMARK    6  A    between atoms: C_28  and  C_29
REMARK                            x       y       z     vdW  Elec       q    Type
REMARK                         _______ _______ _______ _____ _____    ______ ____
ROOT
ATOM      1  C   UNL     1       3.004   5.647  18.357  0.00  0.00    +0.030 A 
ATOM      2  C   UNL     1       3.596   6.444  17.366  0.00  0.00    +0.132 A 
ATOM      3  F   UNL     1       4.339   5.878  16.401  0.00  0.00    -0.205 F 
ATOM      4  C   UNL     1       3.453   7.827  17.346  0.00  0.00    -0.025 A 
ATOM      5  C   UNL     1       2.699   8.458  18.333  0.00  0.00    -0.054 A 
ATOM      6  C   UNL     1       2.068   7.709  19.343  0.00  0.00    -0.017 A 
ATOM      7  C   UNL     1       2.242   6.304  19.353  0.00  0.00    +0.052 A 
ATOM      8  H   UNL     1       3.942   8.405  16.568  0.00  0.00    +0.065 HD
ATOM      9  H   UNL     1       2.611   9.543  18.318  0.00  0.00    +0.062 HD
ENDROOT
BRANCH   1  15
ATOM     10  C   UNL     1       4.410   3.598  18.866  0.00  0.00    -0.043 A 
ATOM     11  C   UNL     1       4.555   2.200  18.835  0.00  0.00    -0.058 A 
ATOM     12  C   UNL     1       3.564   1.389  18.282  0.00  0.00    -0.061 A 
ATOM     13  C   UNL     1       2.410   1.962  17.762  0.00  0.00    -0.061 A 
ATOM     14  C   UNL     1       2.244   3.346  17.799  0.00  0.00    -0.054 A 
ATOM     15  C   UNL     1       3.232   4.188  18.348  0.00  0.00    -0.011 A 
ATOM     16  H   UNL     1       5.446   1.731  19.246  0.00  0.00    +0.062 HD
ATOM     17  H   UNL     1       3.692   0.310  18.265  0.00  0.00    +0.062 HD
ATOM     18  H   UNL     1       1.632   1.334  17.333  0.00  0.00    +0.062 HD
ATOM     19  H   UNL     1       1.328   3.773  17.390  0.00  0.00    +0.062 HD
BRANCH  10  20
ATOM     20  C   UNL     1       5.504   4.417  19.498  0.00  0.00    -0.039 C 
ATOM     21  H   UNL     1       6.223   4.737  18.737  0.00  0.00    +0.028 HD
ATOM     22  H   UNL     1       6.024   3.850  20.276  0.00  0.00    +0.028 HD
ATOM     23  H   UNL     1       5.098   5.312  19.980  0.00  0.00    +0.028 HD
ENDBRANCH  10  20
ENDBRANCH   1  15
BRANCH   7  24
ATOM     24  C   UNL     1       1.651   5.526  20.467  0.00  0.00    +0.243 C 
ATOM     25  N   UNL     1       2.476   5.228  21.512  0.00  0.00    -0.325 N 
ATOM     26  O   UNL     1       0.487   5.152  20.423  0.00  0.00    -0.270 OA
ATOM     27  H   UNL     1       2.035   4.822  22.329  0.00  0.00    +0.145 HD
ATOM     28  H   UNL     1       3.353   5.710  21.654  0.00  0.00    +0.145 HD
ENDBRANCH   7  24
BRANCH   6  29
ATOM     29  C   UNL     1       1.271   8.439  20.404  0.00  0.00    +0.039 C 
ATOM     30  H   UNL     1       1.778   8.346  21.371  0.00  0.00    +0.051 HD
ATOM     31  H   UNL     1       0.256   8.049  20.516  0.00  0.00    +0.051 HD
BRANCH  29  32
ATOM     32  N   UNL     1       1.116   9.844  20.070  0.00  0.00    -0.295 N 
ATOM     33  C   UNL     1      -0.142  10.347  19.850  0.00  0.00    +0.300 C 
ATOM     34  O   UNL     1      -1.175   9.715  20.007  0.00  0.00    -0.253 OA
ATOM     35  N   UNL     1      -0.075  11.650  19.429  0.00  0.00    -0.293 N 
ATOM     36  H   UNL     1       1.812  10.222  19.443  0.00  0.00    +0.151 HD
ATOM     37  H   UNL     1       0.716  12.160  19.790  0.00  0.00    +0.151 HD
BRANCH  35  38
ATOM     38  C   UNL     1      -1.283  12.427  19.244  0.00  0.00    +0.050 C 
ATOM     39  C   UNL     1      -2.153  12.405  20.516  0.00  0.00    -0.026 C 
ATOM     40  C   UNL     1      -3.611  12.524  20.056  0.00  0.00    -0.025 C 
ATOM     41  C   UNL     1      -3.546  11.864  18.714  0.00  0.00    -0.042 A 
ATOM     42  C   UNL     1      -4.600  11.394  17.949  0.00  0.00    -0.058 A 
ATOM     43  C   UNL     1      -4.318  10.856  16.691  0.00  0.00    -0.061 A 
ATOM     44  C   UNL     1      -3.000  10.815  16.211  0.00  0.00    -0.061 A 
ATOM     45  C   UNL     1      -1.945  11.303  16.985  0.00  0.00    -0.057 A 
ATOM     46  C   UNL     1      -2.228  11.814  18.244  0.00  0.00    -0.024 A 
ATOM     47  H   UNL     1      -1.052  13.457  18.949  0.00  0.00    +0.055 HD
ATOM     48  H   UNL     1      -1.875  13.197  21.221  0.00  0.00    +0.029 HD
ATOM     49  H   UNL     1      -2.026  11.451  21.050  0.00  0.00    +0.029 HD
ATOM     50  H   UNL     1      -4.289  12.009  20.743  0.00  0.00    +0.031 HD
ATOM     51  H   UNL     1      -3.910  13.571  19.946  0.00  0.00    +0.031 HD
ATOM     52  H   UNL     1      -5.623  11.447  18.309  0.00  0.00    +0.062 HD
ATOM     53  H   UNL     1      -5.127  10.483  16.069  0.00  0.00    +0.062 HD
ATOM     54  H   UNL     1      -2.800  10.412  15.221  0.00  0.00    +0.062 HD
ATOM     55  H   UNL     1      -0.929  11.296  16.600  0.00  0.00    +0.062 HD
ENDBRANCH  35  38
ENDBRANCH  29  32
ENDBRANCH   6  29
TORSDOF 6
ENDMDL
MODEL 15
REMARK VINA RESULT:    -6.961      6.634      9.226
REMARK INTER + INTRA:         -10.486
REMARK INTER:                  -8.758
REMARK INTRA:                  -1.728
REMARK UNBOUND:                -1.286
REMARK  Name = 
REMARK  6 active torsions:
REMARK  status: ('A' for Active; 'I' for Inactive)
REMARK    1  A    between atoms: C_1  and  C_2
REMARK    2  A    between atoms: C_7  and  C_8
REMARK    3  A    between atoms: C_13  and  C_14
REMARK    4  A    between atoms: C_14  and  N_15
REMARK    5  A    between atoms: N_18  and  C_19
REMARK    6  A    between atoms: C_28  and  C_29
REMARK                            x       y       z     vdW  Elec       q    Type
REMARK                         _______ _______ _______ _____ _____    ______ ____
ROOT
ATOM      1  C   UNL     1      -0.176  13.195  21.055  0.00  0.00    +0.030 A 
ATOM      2  C   UNL     1       0.868  14.010  21.516  0.00  0.00    +0.132 A 
ATOM      3  F   UNL     1       0.743  14.672  22.677  0.00  0.00    -0.205 F 
ATOM      4  C   UNL     1       2.048  14.175  20.799  0.00  0.00    -0.025 A 
ATOM      5  C   UNL     1       2.218  13.515  19.585  0.00  0.00    -0.054 A 
ATOM      6  C   UNL     1       1.212  12.670  19.080  0.00  0.00    -0.017 A 
ATOM      7  C   UNL     1       0.012  12.531  19.818  0.00  0.00    +0.052 A 
ATOM      8  H   UNL     1       2.824  14.828  21.187  0.00  0.00    +0.065 HD
ATOM      9  H   UNL     1       3.139  13.668  19.024  0.00  0.00    +0.062 HD
ENDROOT
BRANCH   1  15
ATOM     10  C   UNL     1      -2.478  14.033  21.714  0.00  0.00    -0.043 A 
ATOM     11  C   UNL     1      -3.641  13.872  22.486  0.00  0.00    -0.058 A 
ATOM     12  C   UNL     1      -3.761  12.817  23.390  0.00  0.00    -0.061 A 
ATOM     13  C   UNL     1      -2.726  11.901  23.526  0.00  0.00    -0.061 A 
ATOM     14  C   UNL     1      -1.571  12.037  22.757  0.00  0.00    -0.054 A 
ATOM     15  C   UNL     1      -1.423  13.097  21.841  0.00  0.00    -0.011 A 
ATOM     16  H   UNL     1      -4.468  14.572  22.386  0.00  0.00    +0.062 HD
ATOM     17  H   UNL     1      -4.667  12.707  23.980  0.00  0.00    +0.062 HD
ATOM     18  H   UNL     1      -2.816  11.073  24.227  0.00  0.00    +0.062 HD
ATOM     19  H   UNL     1      -0.774  11.303  22.879  0.00  0.00    +0.062 HD
BRANCH  10  20
ATOM     20  C   UNL     1      -2.418  15.179  20.739  0.00  0.00    -0.039 C 
ATOM     21  H   UNL     1      -3.269  15.135  20.052  0.00  0.00    +0.028 HD
ATOM     22  H   UNL     1      -1.485  15.164  20.167  0.00  0.00    +0.028 HD
ATOM     23  H   UNL     1      -2.450  16.142  21.260  0.00  0.00    +0.028 HD
ENDBRANCH  10  20
ENDBRANCH   1  15
BRANCH   7  24
ATOM     24  C   UNL     1      -1.081  11.713  19.244  0.00  0.00    +0.243 C 
ATOM     25  N   UNL     1      -1.111  10.395  19.595  0.00  0.00    -0.325 N 
ATOM     26  O   UNL     1      -1.893  12.203  18.470  0.00  0.00    -0.270 OA
ATOM     27  H   UNL     1      -1.934   9.875  19.316  0.00  0.00    +0.145 HD
ATOM     28  H   UNL     1      -0.590  10.042  20.386  0.00  0.00    +0.145 HD
ENDBRANCH   7  24
BRANCH   6  29
ATOM     29  C   UNL     1       1.433  11.984  17.748  0.00  0.00    +0.039 C 
ATOM     30  H   UNL     1       1.827  12.708  17.025  0.00  0.00    +0.051 HD
ATOM     31  H   UNL     1       0.517  11.558  17.333  0.00  0.00    +0.051 HD
BRANCH  29  32
ATOM     32  N   UNL     1       2.360  10.873  17.878  0.00  0.00    -0.295 N 
ATOM     33  C   UNL     1       1.870   9.591  17.903  0.00  0.00    +0.300 C 
ATOM     34  O   UNL     1       0.699   9.295  17.727  0.00  0.00    -0.253 OA
ATOM     35  N   UNL     1       2.877   8.694  18.153  0.00  0.00    -0.293 N 
ATOM     36  H   UNL     1       3.128  11.019  18.516  0.00  0.00    +0.151 HD
ATOM     37  H   UNL     1       3.780   8.981  17.809  0.00  0.00    +0.151 HD
BRANCH  35  38
ATOM     38  C   UNL     1       2.620   7.270  18.114  0.00  0.00    +0.050 C 
ATOM     39  C   UNL     1       2.391   6.712  19.533  0.00  0.00    -0.026 C 
ATOM     40  C   UNL     1       2.889   5.261  19.521  0.00  0.00    -0.025 C 
ATOM     41  C   UNL     1       3.973   5.334  18.493  0.00  0.00    -0.042 A 
ATOM     42  C   UNL     1       4.989   4.421  18.264  0.00  0.00    -0.058 A 
ATOM     43  C   UNL     1       5.870   4.660  17.207  0.00  0.00    -0.061 A 
ATOM     44  C   UNL     1       5.715   5.789  16.388  0.00  0.00    -0.061 A 
ATOM     45  C   UNL     1       4.680   6.698  16.618  0.00  0.00    -0.057 A 
ATOM     46  C   UNL     1       3.821   6.468  17.684  0.00  0.00    -0.024 A 
ATOM     47  H   UNL     1       1.769   7.037  17.463  0.00  0.00    +0.055 HD
ATOM     48  H   UNL     1       1.343   6.787  19.842  0.00  0.00    +0.029 HD
ATOM     49  H   UNL     1       2.978   7.283  20.267  0.00  0.00    +0.029 HD
ATOM     50  H   UNL     1       3.264   4.961  20.505  0.00  0.00    +0.031 HD
ATOM     51  H   UNL     1       2.104   4.573  19.193  0.00  0.00    +0.031 HD
ATOM     52  H   UNL     1       5.096   3.536  18.883  0.00  0.00    +0.062 HD
ATOM     53  H   UNL     1       6.675   3.957  17.006  0.00  0.00    +0.062 HD
ATOM     54  H   UNL     1       6.397   5.949  15.557  0.00  0.00    +0.062 HD
ATOM     55  H   UNL     1       4.544   7.555  15.966  0.00  0.00    +0.062 HD
ENDBRANCH  35  38
ENDBRANCH  29  32
ENDBRANCH   6  29
TORSDOF 6
ENDMDL
MODEL 16
REMARK VINA RESULT:    -6.912      5.347      7.975
REMARK INTER + INTRA:         -10.421
REMARK INTER:                  -9.981
REMARK INTRA:                  -0.440
REMARK UNBOUND:                -1.286
REMARK  Name = 
REMARK  6 active torsions:
REMARK  status: ('A' for Active; 'I' for Inactive)
REMARK    1  A    between atoms: C_1  and  C_2
REMARK    2  A    between atoms: C_7  and  C_8
REMARK    3  A    between atoms: C_13  and  C_14
REMARK    4  A    between atoms: C_14  and  N_15
REMARK    5  A    between atoms: N_18  and  C_19
REMARK    6  A    between atoms: C_28  and  C_29
REMARK                            x       y       z     vdW  Elec       q    Type
REMARK                         _______ _______ _______ _____ _____    ______ ____
ROOT
ATOM      1  C   UNL     1       3.567   5.145  18.392  0.00  0.00    +0.030 A 
ATOM      2  C   UNL     1       4.331   5.784  17.404  0.00  0.00    +0.132 A 
ATOM      3  F   UNL     1       5.228   5.085  16.690  0.00  0.00    -0.205 F 
ATOM      4  C   UNL     1       4.204   7.142  17.135  0.00  0.00    -0.025 A 
ATOM      5  C   UNL     1       3.293   7.908  17.857  0.00  0.00    -0.054 A 
ATOM      6  C   UNL     1       2.487   7.319  18.849  0.00  0.00    -0.017 A 
ATOM      7  C   UNL     1       2.645   5.938  19.118  0.00  0.00    +0.052 A 
ATOM      8  H   UNL     1       4.828   7.598  16.372  0.00  0.00    +0.065 HD
ATOM      9  H   UNL     1       3.218   8.975  17.651  0.00  0.00    +0.062 HD
ENDROOT
BRANCH   1  15
ATOM     10  C   UNL     1       3.179   2.691  17.882  0.00  0.00    -0.043 A 
ATOM     11  C   UNL     1       3.435   1.343  18.189  0.00  0.00    -0.058 A 
ATOM     12  C   UNL     1       4.257   0.996  19.260  0.00  0.00    -0.061 A 
ATOM     13  C   UNL     1       4.843   1.990  20.035  0.00  0.00    -0.061 A 
ATOM     14  C   UNL     1       4.611   3.332  19.735  0.00  0.00    -0.054 A 
ATOM     15  C   UNL     1       3.781   3.709  18.660  0.00  0.00    -0.011 A 
ATOM     16  H   UNL     1       2.996   0.550  17.588  0.00  0.00    +0.062 HD
ATOM     17  H   UNL     1       4.445  -0.051  19.485  0.00  0.00    +0.062 HD
ATOM     18  H   UNL     1       5.488   1.725  20.870  0.00  0.00    +0.062 HD
ATOM     19  H   UNL     1       5.084   4.094  20.354  0.00  0.00    +0.062 HD
BRANCH  10  20
ATOM     20  C   UNL     1       2.302   3.002  16.698  0.00  0.00    -0.039 C 
ATOM     21  H   UNL     1       2.433   4.045  16.395  0.00  0.00    +0.028 HD
ATOM     22  H   UNL     1       1.248   2.816  16.926  0.00  0.00    +0.028 HD
ATOM     23  H   UNL     1       2.555   2.365  15.843  0.00  0.00    +0.028 HD
ENDBRANCH  10  20
ENDBRANCH   1  15
BRANCH   7  24
ATOM     24  C   UNL     1       1.860   5.338  20.222  0.00  0.00    +0.243 C 
ATOM     25  N   UNL     1       2.353   5.499  21.483  0.00  0.00    -0.325 N 
ATOM     26  O   UNL     1       0.837   4.707  19.993  0.00  0.00    -0.270 OA
ATOM     27  H   UNL     1       1.746   5.212  22.241  0.00  0.00    +0.145 HD
ATOM     28  H   UNL     1       3.061   6.189  21.695  0.00  0.00    +0.145 HD
ENDBRANCH   7  24
BRANCH   6  29
ATOM     29  C   UNL     1       1.520   8.194  19.620  0.00  0.00    +0.039 C 
ATOM     30  H   UNL     1       1.918   8.381  20.624  0.00  0.00    +0.051 HD
ATOM     31  H   UNL     1       0.531   7.741  19.728  0.00  0.00    +0.051 HD
BRANCH  29  32
ATOM     32  N   UNL     1       1.300   9.458  18.940  0.00  0.00    -0.295 N 
ATOM     33  C   UNL     1       0.141  10.154  19.175  0.00  0.00    +0.300 C 
ATOM     34  O   UNL     1      -0.701   9.835  20.000  0.00  0.00    -0.253 OA
ATOM     35  N   UNL     1       0.060  11.250  18.356  0.00  0.00    -0.293 N 
ATOM     36  H   UNL     1       1.597   9.491  17.976  0.00  0.00    +0.151 HD
ATOM     37  H   UNL     1       0.954  11.647  18.108  0.00  0.00    +0.151 HD
BRANCH  35  38
ATOM     38  C   UNL     1      -1.023  12.201  18.501  0.00  0.00    +0.050 C 
ATOM     39  C   UNL     1      -1.405  12.377  19.985  0.00  0.00    -0.026 C 
ATOM     40  C   UNL     1      -2.902  12.706  20.018  0.00  0.00    -0.025 C 
ATOM     41  C   UNL     1      -3.385  11.983  18.801  0.00  0.00    -0.042 A 
ATOM     42  C   UNL     1      -4.689  11.652  18.473  0.00  0.00    -0.058 A 
ATOM     43  C   UNL     1      -4.926  11.019  17.250  0.00  0.00    -0.061 A 
ATOM     44  C   UNL     1      -3.866  10.744  16.371  0.00  0.00    -0.061 A 
ATOM     45  C   UNL     1      -2.556  11.094  16.705  0.00  0.00    -0.057 A 
ATOM     46  C   UNL     1      -2.324  11.701  17.931  0.00  0.00    -0.024 A 
ATOM     47  H   UNL     1      -0.768  13.166  18.049  0.00  0.00    +0.055 HD
ATOM     48  H   UNL     1      -0.800  13.147  20.479  0.00  0.00    +0.029 HD
ATOM     49  H   UNL     1      -1.233  11.441  20.537  0.00  0.00    +0.029 HD
ATOM     50  H   UNL     1      -3.370  12.339  20.937  0.00  0.00    +0.031 HD
ATOM     51  H   UNL     1      -3.075  13.782  19.911  0.00  0.00    +0.031 HD
ATOM     52  H   UNL     1      -5.512  11.885  19.141  0.00  0.00    +0.062 HD
ATOM     53  H   UNL     1      -5.940  10.751  16.968  0.00  0.00    +0.062 HD
ATOM     54  H   UNL     1      -4.070  10.269  15.415  0.00  0.00    +0.062 HD
ATOM     55  H   UNL     1      -1.742  10.906  16.011  0.00  0.00    +0.062 HD
ENDBRANCH  35  38
ENDBRANCH  29  32
ENDBRANCH   6  29
TORSDOF 6
ENDMDL
MODEL 17
REMARK VINA RESULT:    -6.868      5.648      8.453
REMARK INTER + INTRA:         -10.363
REMARK INTER:                  -9.432
REMARK INTRA:                  -0.931
REMARK UNBOUND:                -1.286
REMARK  Name = 
REMARK  6 active torsions:
REMARK  status: ('A' for Active; 'I' for Inactive)
REMARK    1  A    between atoms: C_1  and  C_2
REMARK    2  A    between atoms: C_7  and  C_8
REMARK    3  A    between atoms: C_13  and  C_14
REMARK    4  A    between atoms: C_14  and  N_15
REMARK    5  A    between atoms: N_18  and  C_19
REMARK    6  A    between atoms: C_28  and  C_29
REMARK                            x       y       z     vdW  Elec       q    Type
REMARK                         _______ _______ _______ _____ _____    ______ ____
ROOT
ATOM      1  C   UNL     1      -0.472  11.142  20.722  0.00  0.00    +0.030 A 
ATOM      2  C   UNL     1      -0.681  11.443  19.368  0.00  0.00    +0.132 A 
ATOM      3  F   UNL     1      -1.326  12.568  19.020  0.00  0.00    -0.205 F 
ATOM      4  C   UNL     1      -0.250  10.601  18.348  0.00  0.00    -0.025 A 
ATOM      5  C   UNL     1       0.415   9.419  18.663  0.00  0.00    -0.054 A 
ATOM      6  C   UNL     1       0.669   9.072  20.002  0.00  0.00    -0.017 A 
ATOM      7  C   UNL     1       0.205   9.935  21.024  0.00  0.00    +0.052 A 
ATOM      8  H   UNL     1      -0.447  10.867  17.314  0.00  0.00    +0.065 HD
ATOM      9  H   UNL     1       0.730   8.759  17.856  0.00  0.00    +0.062 HD
ENDROOT
BRANCH   1  15
ATOM     10  C   UNL     1      -0.313  13.232  22.150  0.00  0.00    -0.043 A 
ATOM     11  C   UNL     1      -0.875  14.060  23.136  0.00  0.00    -0.058 A 
ATOM     12  C   UNL     1      -2.082  13.727  23.749  0.00  0.00    -0.061 A 
ATOM     13  C   UNL     1      -2.751  12.568  23.378  0.00  0.00    -0.061 A 
ATOM     14  C   UNL     1      -2.215  11.742  22.389  0.00  0.00    -0.054 A 
ATOM     15  C   UNL     1      -0.994  12.054  21.758  0.00  0.00    -0.011 A 
ATOM     16  H   UNL     1      -0.373  14.979  23.434  0.00  0.00    +0.062 HD
ATOM     17  H   UNL     1      -2.503  14.378  24.511  0.00  0.00    +0.062 HD
ATOM     18  H   UNL     1      -3.696  12.305  23.850  0.00  0.00    +0.062 HD
ATOM     19  H   UNL     1      -2.760  10.840  22.112  0.00  0.00    +0.062 HD
BRANCH  10  20
ATOM     20  C   UNL     1       0.981  13.658  21.508  0.00  0.00    -0.039 C 
ATOM     21  H   UNL     1       1.664  12.806  21.432  0.00  0.00    +0.028 HD
ATOM     22  H   UNL     1       1.460  14.460  22.078  0.00  0.00    +0.028 HD
ATOM     23  H   UNL     1       0.811  14.049  20.499  0.00  0.00    +0.028 HD
ENDBRANCH  10  20
ENDBRANCH   1  15
BRANCH   7  24
ATOM     24  C   UNL     1       0.394   9.526  22.436  0.00  0.00    +0.243 C 
ATOM     25  N   UNL     1      -0.673   8.941  23.053  0.00  0.00    -0.325 N 
ATOM     26  O   UNL     1       1.452   9.735  23.014  0.00  0.00    -0.270 OA
ATOM     27  H   UNL     1      -0.497   8.537  23.965  0.00  0.00    +0.145 HD
ATOM     28  H   UNL     1      -1.456   8.573  22.530  0.00  0.00    +0.145 HD
ENDBRANCH   7  24
BRANCH   6  29
ATOM     29  C   UNL     1       1.382   7.769  20.298  0.00  0.00    +0.039 C 
ATOM     30  H   UNL     1       0.649   6.956  20.360  0.00  0.00    +0.051 HD
ATOM     31  H   UNL     1       1.939   7.793  21.239  0.00  0.00    +0.051 HD
BRANCH  29  32
ATOM     32  N   UNL     1       2.362   7.463  19.270  0.00  0.00    -0.295 N 
ATOM     33  C   UNL     1       3.178   6.370  19.425  0.00  0.00    +0.300 C 
ATOM     34  O   UNL     1       3.083   5.560  20.334  0.00  0.00    -0.253 OA
ATOM     35  N   UNL     1       4.111   6.317  18.422  0.00  0.00    -0.293 N 
ATOM     36  H   UNL     1       2.834   8.259  18.868  0.00  0.00    +0.151 HD
ATOM     37  H   UNL     1       3.799   6.709  17.547  0.00  0.00    +0.151 HD
BRANCH  35  38
ATOM     38  C   UNL     1       5.010   5.188  18.312  0.00  0.00    +0.050 C 
ATOM     39  C   UNL     1       6.370   5.500  18.969  0.00  0.00    -0.026 C 
ATOM     40  C   UNL     1       7.427   4.700  18.197  0.00  0.00    -0.025 C 
ATOM     41  C   UNL     1       6.811   4.646  16.834  0.00  0.00    -0.042 A 
ATOM     42  C   UNL     1       7.429   4.325  15.637  0.00  0.00    -0.058 A 
ATOM     43  C   UNL     1       6.649   4.281  14.479  0.00  0.00    -0.061 A 
ATOM     44  C   UNL     1       5.270   4.538  14.536  0.00  0.00    -0.061 A 
ATOM     45  C   UNL     1       4.653   4.847  15.750  0.00  0.00    -0.057 A 
ATOM     46  C   UNL     1       5.437   4.913  16.894  0.00  0.00    -0.024 A 
ATOM     47  H   UNL     1       4.568   4.283  18.746  0.00  0.00    +0.055 HD
ATOM     48  H   UNL     1       6.375   5.268  20.039  0.00  0.00    +0.029 HD
ATOM     49  H   UNL     1       6.600   6.573  18.879  0.00  0.00    +0.029 HD
ATOM     50  H   UNL     1       8.394   5.212  18.199  0.00  0.00    +0.031 HD
ATOM     51  H   UNL     1       7.535   3.689  18.602  0.00  0.00    +0.031 HD
ATOM     52  H   UNL     1       8.490   4.104  15.595  0.00  0.00    +0.062 HD
ATOM     53  H   UNL     1       7.109   4.030  13.527  0.00  0.00    +0.062 HD
ATOM     54  H   UNL     1       4.674   4.479  13.629  0.00  0.00    +0.062 HD
ATOM     55  H   UNL     1       3.581   5.017  15.797  0.00  0.00    +0.062 HD
ENDBRANCH  35  38
ENDBRANCH  29  32
ENDBRANCH   6  29
TORSDOF 6
ENDMDL
MODEL 18
REMARK VINA RESULT:    -6.814      5.197      9.261
REMARK INTER + INTRA:         -10.292
REMARK INTER:                  -9.465
REMARK INTRA:                  -0.826
REMARK UNBOUND:                -1.286
REMARK  Name = 
REMARK  6 active torsions:
REMARK  status: ('A' for Active; 'I' for Inactive)
REMARK    1  A    between atoms: C_1  and  C_2
REMARK    2  A    between atoms: C_7  and  C_8
REMARK    3  A    between atoms: C_13  and  C_14
REMARK    4  A    between atoms: C_14  and  N_15
REMARK    5  A    between atoms: N_18  and  C_19
REMARK    6  A    between atoms: C_28  and  C_29
REMARK                            x       y       z     vdW  Elec       q    Type
REMARK                         _______ _______ _______ _____ _____    ______ ____
ROOT
ATOM      1  C   UNL     1       0.055  11.301  20.980  0.00  0.00    +0.030 A 
ATOM      2  C   UNL     1      -0.366  11.312  22.319  0.00  0.00    +0.132 A 
ATOM      3  F   UNL     1      -0.659  12.474  22.923  0.00  0.00    -0.205 F 
ATOM      4  C   UNL     1      -0.483  10.145  23.066  0.00  0.00    -0.025 A 
ATOM      5  C   UNL     1      -0.180   8.917  22.484  0.00  0.00    -0.054 A 
ATOM      6  C   UNL     1       0.231   8.842  21.140  0.00  0.00    -0.017 A 
ATOM      7  C   UNL     1       0.360  10.044  20.403  0.00  0.00    +0.052 A 
ATOM      8  H   UNL     1      -0.797  10.203  24.104  0.00  0.00    +0.065 HD
ATOM      9  H   UNL     1      -0.256   8.013  23.086  0.00  0.00    +0.062 HD
ENDROOT
BRANCH   1  15
ATOM     10  C   UNL     1      -0.863  13.173  19.537  0.00  0.00    -0.043 A 
ATOM     11  C   UNL     1      -0.654  14.397  18.878  0.00  0.00    -0.058 A 
ATOM     12  C   UNL     1       0.593  15.021  18.903  0.00  0.00    -0.061 A 
ATOM     13  C   UNL     1       1.646  14.437  19.597  0.00  0.00    -0.061 A 
ATOM     14  C   UNL     1       1.451  13.231  20.269  0.00  0.00    -0.054 A 
ATOM     15  C   UNL     1       0.202  12.578  20.255  0.00  0.00    -0.011 A 
ATOM     16  H   UNL     1      -1.468  14.877  18.338  0.00  0.00    +0.062 HD
ATOM     17  H   UNL     1       0.739  15.966  18.387  0.00  0.00    +0.062 HD
ATOM     18  H   UNL     1       2.620  14.921  19.623  0.00  0.00    +0.062 HD
ATOM     19  H   UNL     1       2.291  12.794  20.810  0.00  0.00    +0.062 HD
BRANCH  10  20
ATOM     20  C   UNL     1      -2.238  12.562  19.492  0.00  0.00    -0.039 C 
ATOM     21  H   UNL     1      -2.564  12.290  20.502  0.00  0.00    +0.028 HD
ATOM     22  H   UNL     1      -2.256  11.674  18.852  0.00  0.00    +0.028 HD
ATOM     23  H   UNL     1      -2.969  13.264  19.076  0.00  0.00    +0.028 HD
ENDBRANCH  10  20
ENDBRANCH   1  15
BRANCH   7  24
ATOM     24  C   UNL     1       0.877   9.972  19.017  0.00  0.00    +0.243 C 
ATOM     25  N   UNL     1      -0.049  10.001  18.015  0.00  0.00    -0.325 N 
ATOM     26  O   UNL     1       2.076   9.863  18.799  0.00  0.00    -0.270 OA
ATOM     27  H   UNL     1       0.313  10.094  17.073  0.00  0.00    +0.145 HD
ATOM     28  H   UNL     1      -0.999  10.306  18.175  0.00  0.00    +0.145 HD
ENDBRANCH   7  24
BRANCH   6  29
ATOM     29  C   UNL     1       0.564   7.486  20.552  0.00  0.00    +0.039 C 
ATOM     30  H   UNL     1       0.205   7.438  19.518  0.00  0.00    +0.051 HD
ATOM     31  H   UNL     1       0.111   6.660  21.106  0.00  0.00    +0.051 HD
BRANCH  29  32
ATOM     32  N   UNL     1       1.995   7.240  20.582  0.00  0.00    -0.295 N 
ATOM     33  C   UNL     1       2.548   6.384  19.663  0.00  0.00    +0.300 C 
ATOM     34  O   UNL     1       1.935   5.871  18.740  0.00  0.00    -0.253 OA
ATOM     35  N   UNL     1       3.879   6.185  19.927  0.00  0.00    -0.293 N 
ATOM     36  H   UNL     1       2.404   7.156  21.501  0.00  0.00    +0.151 HD
ATOM     37  H   UNL     1       4.337   6.973  20.358  0.00  0.00    +0.151 HD
BRANCH  35  38
ATOM     38  C   UNL     1       4.701   5.408  19.022  0.00  0.00    +0.050 C 
ATOM     39  C   UNL     1       4.544   5.904  17.571  0.00  0.00    -0.026 C 
ATOM     40  C   UNL     1       4.753   4.686  16.664  0.00  0.00    -0.025 C 
ATOM     41  C   UNL     1       4.260   3.580  17.544  0.00  0.00    -0.042 A 
ATOM     42  C   UNL     1       3.912   2.293  17.173  0.00  0.00    -0.058 A 
ATOM     43  C   UNL     1       3.525   1.396  18.173  0.00  0.00    -0.061 A 
ATOM     44  C   UNL     1       3.511   1.791  19.520  0.00  0.00    -0.061 A 
ATOM     45  C   UNL     1       3.877   3.088  19.885  0.00  0.00    -0.057 A 
ATOM     46  C   UNL     1       4.237   3.981  18.886  0.00  0.00    -0.024 A 
ATOM     47  H   UNL     1       5.754   5.425  19.327  0.00  0.00    +0.055 HD
ATOM     48  H   UNL     1       5.238   6.719  17.336  0.00  0.00    +0.029 HD
ATOM     49  H   UNL     1       3.530   6.298  17.410  0.00  0.00    +0.029 HD
ATOM     50  H   UNL     1       4.175   4.774  15.739  0.00  0.00    +0.031 HD
ATOM     51  H   UNL     1       5.813   4.539  16.432  0.00  0.00    +0.031 HD
ATOM     52  H   UNL     1       3.944   1.979  16.135  0.00  0.00    +0.062 HD
ATOM     53  H   UNL     1       3.249   0.379  17.909  0.00  0.00    +0.062 HD
ATOM     54  H   UNL     1       3.227   1.075  20.287  0.00  0.00    +0.062 HD
ATOM     55  H   UNL     1       3.893   3.383  20.931  0.00  0.00    +0.062 HD
ENDBRANCH  35  38
ENDBRANCH  29  32
ENDBRANCH   6  29
TORSDOF 6
ENDMDL
MODEL 19
REMARK VINA RESULT:    -6.756      6.038      8.719
REMARK INTER + INTRA:         -10.214
REMARK INTER:                  -9.781
REMARK INTRA:                  -0.434
REMARK UNBOUND:                -1.286
REMARK  Name = 
REMARK  6 active torsions:
REMARK  status: ('A' for Active; 'I' for Inactive)
REMARK    1  A    between atoms: C_1  and  C_2
REMARK    2  A    between atoms: C_7  and  C_8
REMARK    3  A    between atoms: C_13  and  C_14
REMARK    4  A    between atoms: C_14  and  N_15
REMARK    5  A    between atoms: N_18  and  C_19
REMARK    6  A    between atoms: C_28  and  C_29
REMARK                            x       y       z     vdW  Elec       q    Type
REMARK                         _______ _______ _______ _____ _____    ______ ____
ROOT
ATOM      1  C   UNL     1      -1.665  11.846  19.488  0.00  0.00    +0.030 A 
ATOM      2  C   UNL     1      -2.285  11.467  18.288  0.00  0.00    +0.132 A 
ATOM      3  F   UNL     1      -3.387  12.109  17.867  0.00  0.00    -0.205 F 
ATOM      4  C   UNL     1      -1.804  10.425  17.503  0.00  0.00    -0.025 A 
ATOM      5  C   UNL     1      -0.669   9.724  17.905  0.00  0.00    -0.054 A 
ATOM      6  C   UNL     1       0.005  10.069  19.091  0.00  0.00    -0.017 A 
ATOM      7  C   UNL     1      -0.513  11.122  19.882  0.00  0.00    +0.052 A 
ATOM      8  H   UNL     1      -2.326  10.157  16.590  0.00  0.00    +0.065 HD
ATOM      9  H   UNL     1      -0.314   8.897  17.292  0.00  0.00    +0.062 HD
ENDROOT
BRANCH   1  15
ATOM     10  C   UNL     1      -1.775  14.263  20.246  0.00  0.00    -0.043 A 
ATOM     11  C   UNL     1      -2.388  15.249  21.038  0.00  0.00    -0.058 A 
ATOM     12  C   UNL     1      -3.446  14.929  21.889  0.00  0.00    -0.061 A 
ATOM     13  C   UNL     1      -3.912  13.622  21.952  0.00  0.00    -0.061 A 
ATOM     14  C   UNL     1      -3.324  12.635  21.162  0.00  0.00    -0.054 A 
ATOM     15  C   UNL     1      -2.252  12.932  20.298  0.00  0.00    -0.011 A 
ATOM     16  H   UNL     1      -2.046  16.281  20.994  0.00  0.00    +0.062 HD
ATOM     17  H   UNL     1      -3.909  15.703  22.495  0.00  0.00    +0.062 HD
ATOM     18  H   UNL     1      -4.740  13.368  22.612  0.00  0.00    +0.062 HD
ATOM     19  H   UNL     1      -3.710  11.617  21.227  0.00  0.00    +0.062 HD
BRANCH  10  20
ATOM     20  C   UNL     1      -0.653  14.677  19.329  0.00  0.00    -0.039 C 
ATOM     21  H   UNL     1       0.029  13.836  19.165  0.00  0.00    +0.028 HD
ATOM     22  H   UNL     1      -0.097  15.524  19.742  0.00  0.00    +0.028 HD
ATOM     23  H   UNL     1      -1.038  14.998  18.356  0.00  0.00    +0.028 HD
ENDBRANCH  10  20
ENDBRANCH   1  15
BRANCH   7  24
ATOM     24  C   UNL     1       0.146  11.427  21.174  0.00  0.00    +0.243 C 
ATOM     25  N   UNL     1       1.196  12.297  21.137  0.00  0.00    -0.325 N 
ATOM     26  O   UNL     1      -0.228  10.894  22.210  0.00  0.00    -0.270 OA
ATOM     27  H   UNL     1       1.550  12.610  22.033  0.00  0.00    +0.145 HD
ATOM     28  H   UNL     1       1.364  12.896  20.341  0.00  0.00    +0.145 HD
ENDBRANCH   7  24
BRANCH   6  29
ATOM     29  C   UNL     1       1.226   9.270  19.496  0.00  0.00    +0.039 C 
ATOM     30  H   UNL     1       0.948   8.544  20.269  0.00  0.00    +0.051 HD
ATOM     31  H   UNL     1       2.030   9.895  19.895  0.00  0.00    +0.051 HD
BRANCH  29  32
ATOM     32  N   UNL     1       1.800   8.574  18.358  0.00  0.00    -0.295 N 
ATOM     33  C   UNL     1       2.610   7.488  18.573  0.00  0.00    +0.300 C 
ATOM     34  O   UNL     1       2.819   6.989  19.668  0.00  0.00    -0.253 OA
ATOM     35  N   UNL     1       3.149   7.045  17.393  0.00  0.00    -0.293 N 
ATOM     36  H   UNL     1       2.115   9.163  17.601  0.00  0.00    +0.151 HD
ATOM     37  H   UNL     1       2.564   7.201  16.587  0.00  0.00    +0.151 HD
BRANCH  35  38
ATOM     38  C   UNL     1       3.948   5.838  17.356  0.00  0.00    +0.050 C 
ATOM     39  C   UNL     1       3.493   4.842  18.442  0.00  0.00    -0.026 C 
ATOM     40  C   UNL     1       4.735   4.045  18.858  0.00  0.00    -0.025 C 
ATOM     41  C   UNL     1       5.817   5.052  18.624  0.00  0.00    -0.042 A 
ATOM     42  C   UNL     1       7.116   5.027  19.103  0.00  0.00    -0.058 A 
ATOM     43  C   UNL     1       7.986   6.049  18.715  0.00  0.00    -0.061 A 
ATOM     44  C   UNL     1       7.554   7.063  17.846  0.00  0.00    -0.061 A 
ATOM     45  C   UNL     1       6.246   7.072  17.357  0.00  0.00    -0.057 A 
ATOM     46  C   UNL     1       5.379   6.067  17.765  0.00  0.00    -0.024 A 
ATOM     47  H   UNL     1       3.918   5.371  16.364  0.00  0.00    +0.055 HD
ATOM     48  H   UNL     1       2.682   4.193  18.093  0.00  0.00    +0.029 HD
ATOM     49  H   UNL     1       3.107   5.383  19.318  0.00  0.00    +0.029 HD
ATOM     50  H   UNL     1       4.674   3.731  19.904  0.00  0.00    +0.031 HD
ATOM     51  H   UNL     1       4.884   3.174  18.211  0.00  0.00    +0.031 HD
ATOM     52  H   UNL     1       7.458   4.231  19.757  0.00  0.00    +0.062 HD
ATOM     53  H   UNL     1       9.011   6.052  19.076  0.00  0.00    +0.062 HD
ATOM     54  H   UNL     1       8.250   7.839  17.538  0.00  0.00    +0.062 HD
ATOM     55  H   UNL     1       5.922   7.841  16.662  0.00  0.00    +0.062 HD
ENDBRANCH  35  38
ENDBRANCH  29  32
ENDBRANCH   6  29
TORSDOF 6
ENDMDL
MODEL 20
REMARK VINA RESULT:    -6.692      6.607      9.379
REMARK INTER + INTRA:         -10.129
REMARK INTER:                  -8.699
REMARK INTRA:                  -1.430
REMARK UNBOUND:                -1.286
REMARK  Name = 
REMARK  6 active torsions:
REMARK  status: ('A' for Active; 'I' for Inactive)
REMARK    1  A    between atoms: C_1  and  C_2
REMARK    2  A    between atoms: C_7  and  C_8
REMARK    3  A    between atoms: C_13  and  C_14
REMARK    4  A    between atoms: C_14  and  N_15
REMARK    5  A    between atoms: N_18  and  C_19
REMARK    6  A    between atoms: C_28  and  C_29
REMARK                            x       y       z     vdW  Elec       q    Type
REMARK                         _______ _______ _______ _____ _____    ______ ____
ROOT
ATOM      1  C   UNL     1      -2.073  12.291  20.370  0.00  0.00    +0.030 A 
ATOM      2  C   UNL     1      -3.018  11.935  19.396  0.00  0.00    +0.132 A 
ATOM      3  F   UNL     1      -4.324  12.157  19.613  0.00  0.00    -0.205 F 
ATOM      4  C   UNL     1      -2.653  11.338  18.194  0.00  0.00    -0.025 A 
ATOM      5  C   UNL     1      -1.310  11.080  17.931  0.00  0.00    -0.054 A 
ATOM      6  C   UNL     1      -0.315  11.430  18.862  0.00  0.00    -0.017 A 
ATOM      7  C   UNL     1      -0.712  12.021  20.086  0.00  0.00    +0.052 A 
ATOM      8  H   UNL     1      -3.421  11.066  17.477  0.00  0.00    +0.065 HD
ATOM      9  H   UNL     1      -1.039  10.595  16.994  0.00  0.00    +0.062 HD
ENDROOT
BRANCH   1  15
ATOM     10  C   UNL     1      -2.629  14.278  21.845  0.00  0.00    -0.043 A 
ATOM     11  C   UNL     1      -3.081  14.769  23.081  0.00  0.00    -0.058 A 
ATOM     12  C   UNL     1      -3.412  13.899  24.120  0.00  0.00    -0.061 A 
ATOM     13  C   UNL     1      -3.305  12.526  23.934  0.00  0.00    -0.061 A 
ATOM     14  C   UNL     1      -2.873  12.022  22.708  0.00  0.00    -0.054 A 
ATOM     15  C   UNL     1      -2.529  12.880  21.645  0.00  0.00    -0.011 A 
ATOM     16  H   UNL     1      -3.183  15.840  23.244  0.00  0.00    +0.062 HD
ATOM     17  H   UNL     1      -3.759  14.294  25.071  0.00  0.00    +0.062 HD
ATOM     18  H   UNL     1      -3.566  11.842  24.740  0.00  0.00    +0.062 HD
ATOM     19  H   UNL     1      -2.802  10.941  22.585  0.00  0.00    +0.062 HD
BRANCH  10  20
ATOM     20  C   UNL     1      -2.311  15.267  20.755  0.00  0.00    -0.039 C 
ATOM     21  H   UNL     1      -2.472  14.811  19.772  0.00  0.00    +0.028 HD
ATOM     22  H   UNL     1      -1.278  15.619  20.829  0.00  0.00    +0.028 HD
ATOM     23  H   UNL     1      -2.951  16.153  20.827  0.00  0.00    +0.028 HD
ENDBRANCH  10  20
ENDBRANCH   1  15
BRANCH   7  24
ATOM     24  C   UNL     1       0.327  12.307  21.102  0.00  0.00    +0.243 C 
ATOM     25  N   UNL     1       0.893  13.549  21.069  0.00  0.00    -0.325 N 
ATOM     26  O   UNL     1       0.671  11.452  21.908  0.00  0.00    -0.270 OA
ATOM     27  H   UNL     1       1.495  13.788  21.847  0.00  0.00    +0.145 HD
ATOM     28  H   UNL     1       0.469  14.314  20.563  0.00  0.00    +0.145 HD
ENDBRANCH   7  24
BRANCH   6  29
ATOM     29  C   UNL     1       1.131  11.117  18.539  0.00  0.00    +0.039 C 
ATOM     30  H   UNL     1       1.753  11.992  18.762  0.00  0.00    +0.051 HD
ATOM     31  H   UNL     1       1.284  10.853  17.489  0.00  0.00    +0.051 HD
BRANCH  29  32
ATOM     32  N   UNL     1       1.604   9.976  19.303  0.00  0.00    -0.295 N 
ATOM     33  C   UNL     1       1.602   8.733  18.723  0.00  0.00    +0.300 C 
ATOM     34  O   UNL     1       1.315   8.515  17.556  0.00  0.00    -0.253 OA
ATOM     35  N   UNL     1       1.963   7.774  19.634  0.00  0.00    -0.293 N 
ATOM     36  H   UNL     1       1.336   9.963  20.277  0.00  0.00    +0.151 HD
ATOM     37  H   UNL     1       2.600   8.099  20.345  0.00  0.00    +0.151 HD
BRANCH  35  38
ATOM     38  C   UNL     1       2.142   6.397  19.222  0.00  0.00    +0.050 C 
ATOM     39  C   UNL     1       2.033   5.443  20.429  0.00  0.00    -0.026 C 
ATOM     40  C   UNL     1       2.938   4.243  20.125  0.00  0.00    -0.025 C 
ATOM     41  C   UNL     1       3.992   4.882  19.276  0.00  0.00    -0.042 A 
ATOM     42  C   UNL     1       5.240   4.378  18.952  0.00  0.00    -0.058 A 
ATOM     43  C   UNL     1       6.053   5.122  18.093  0.00  0.00    -0.061 A 
ATOM     44  C   UNL     1       5.602   6.339  17.558  0.00  0.00    -0.061 A 
ATOM     45  C   UNL     1       4.336   6.832  17.880  0.00  0.00    -0.057 A 
ATOM     46  C   UNL     1       3.542   6.101  18.753  0.00  0.00    -0.024 A 
ATOM     47  H   UNL     1       1.425   6.119  18.441  0.00  0.00    +0.055 HD
ATOM     48  H   UNL     1       0.997   5.141  20.624  0.00  0.00    +0.029 HD
ATOM     49  H   UNL     1       2.394   5.939  21.342  0.00  0.00    +0.029 HD
ATOM     50  H   UNL     1       3.346   3.809  21.043  0.00  0.00    +0.031 HD
ATOM     51  H   UNL     1       2.405   3.477  19.551  0.00  0.00    +0.031 HD
ATOM     52  H   UNL     1       5.581   3.426  19.346  0.00  0.00    +0.062 HD
ATOM     53  H   UNL     1       7.036   4.748  17.821  0.00  0.00    +0.062 HD
ATOM     54  H   UNL     1       6.239   6.895  16.875  0.00  0.00    +0.062 HD
ATOM     55  H   UNL     1       3.978   7.760  17.443  0.00  0.00    +0.062 HD
ENDBRANCH  35  38
ENDBRANCH  29  32
ENDBRANCH   6  29
TORSDOF 6
ENDMDL
MODEL 21
REMARK VINA RESULT:    -6.676      5.650      9.393
REMARK INTER + INTRA:         -10.109
REMARK INTER:                  -9.586
REMARK INTRA:                  -0.522
REMARK UNBOUND:                -1.286
REMARK  Name = 
REMARK  6 active torsions:
REMARK  status: ('A' for Active; 'I' for Inactive)
REMARK    1  A    between atoms: C_1  and  C_2
REMARK    2  A    between atoms: C_7  and  C_8
REMARK    3  A    between atoms: C_13  and  C_14
REMARK    4  A    between atoms: C_14  and  N_15
REMARK    5  A    between atoms: N_18  and  C_19
REMARK    6  A    between atoms: C_28  and  C_29
REMARK                            x       y       z     vdW  Elec       q    Type
REMARK                         _______ _______ _______ _____ _____    ______ ____
ROOT
ATOM      1  C   UNL     1       0.076  12.283  20.083  0.00  0.00    +0.030 A 
ATOM      2  C   UNL     1       0.884  13.324  19.601  0.00  0.00    +0.132 A 
ATOM      3  F   UNL     1       0.704  14.578  20.047  0.00  0.00    -0.205 F 
ATOM      4  C   UNL     1       1.877  13.110  18.651  0.00  0.00    -0.025 A 
ATOM      5  C   UNL     1       2.092  11.828  18.153  0.00  0.00    -0.054 A 
ATOM      6  C   UNL     1       1.326  10.741  18.612  0.00  0.00    -0.017 A 
ATOM      7  C   UNL     1       0.308  10.986  19.566  0.00  0.00    +0.052 A 
ATOM      8  H   UNL     1       2.467  13.949  18.295  0.00  0.00    +0.065 HD
ATOM      9  H   UNL     1       2.860  11.677  17.395  0.00  0.00    +0.062 HD
ENDROOT
BRANCH   1  15
ATOM     10  C   UNL     1      -2.342  12.769  20.675  0.00  0.00    -0.043 A 
ATOM     11  C   UNL     1      -3.308  13.042  21.658  0.00  0.00    -0.058 A 
ATOM     12  C   UNL     1      -2.952  13.153  23.002  0.00  0.00    -0.061 A 
ATOM     13  C   UNL     1      -1.627  12.983  23.383  0.00  0.00    -0.061 A 
ATOM     14  C   UNL     1      -0.658  12.697  22.422  0.00  0.00    -0.054 A 
ATOM     15  C   UNL     1      -0.991  12.584  21.058  0.00  0.00    -0.011 A 
ATOM     16  H   UNL     1      -4.353  13.167  21.382  0.00  0.00    +0.062 HD
ATOM     17  H   UNL     1      -3.711  13.365  23.750  0.00  0.00    +0.062 HD
ATOM     18  H   UNL     1      -1.343  13.065  24.431  0.00  0.00    +0.062 HD
ATOM     19  H   UNL     1       0.375  12.563  22.746  0.00  0.00    +0.062 HD
BRANCH  10  20
ATOM     20  C   UNL     1      -2.793  12.637  19.244  0.00  0.00    -0.039 C 
ATOM     21  H   UNL     1      -3.326  11.691  19.102  0.00  0.00    +0.028 HD
ATOM     22  H   UNL     1      -1.944  12.685  18.555  0.00  0.00    +0.028 HD
ATOM     23  H   UNL     1      -3.469  13.453  18.967  0.00  0.00    +0.028 HD
ENDBRANCH  10  20
ENDBRANCH   1  15
BRANCH   7  24
ATOM     24  C   UNL     1      -0.557   9.857  19.982  0.00  0.00    +0.243 C 
ATOM     25  N   UNL     1      -0.214   9.214  21.135  0.00  0.00    -0.325 N 
ATOM     26  O   UNL     1      -1.513   9.514  19.299  0.00  0.00    -0.270 OA
ATOM     27  H   UNL     1      -0.883   8.541  21.488  0.00  0.00    +0.145 HD
ATOM     28  H   UNL     1       0.425   9.621  21.803  0.00  0.00    +0.145 HD
ENDBRANCH   7  24
BRANCH   6  29
ATOM     29  C   UNL     1       1.585   9.366  18.032  0.00  0.00    +0.039 C 
ATOM     30  H   UNL     1       2.100   9.467  17.069  0.00  0.00    +0.051 HD
ATOM     31  H   UNL     1       0.668   8.795  17.865  0.00  0.00    +0.051 HD
BRANCH  29  32
ATOM     32  N   UNL     1       2.391   8.561  18.932  0.00  0.00    -0.295 N 
ATOM     33  C   UNL     1       2.657   7.254  18.608  0.00  0.00    +0.300 C 
ATOM     34  O   UNL     1       2.342   6.727  17.552  0.00  0.00    -0.253 OA
ATOM     35  N   UNL     1       3.321   6.628  19.630  0.00  0.00    -0.293 N 
ATOM     36  H   UNL     1       2.214   8.699  19.916  0.00  0.00    +0.151 HD
ATOM     37  H   UNL     1       3.910   7.238  20.176  0.00  0.00    +0.151 HD
BRANCH  35  38
ATOM     38  C   UNL     1       3.809   5.274  19.471  0.00  0.00    +0.050 C 
ATOM     39  C   UNL     1       4.503   5.095  18.106  0.00  0.00    -0.026 C 
ATOM     40  C   UNL     1       4.289   3.635  17.690  0.00  0.00    -0.025 C 
ATOM     41  C   UNL     1       2.976   3.337  18.342  0.00  0.00    -0.042 A 
ATOM     42  C   UNL     1       2.117   2.283  18.078  0.00  0.00    -0.058 A 
ATOM     43  C   UNL     1       0.959   2.162  18.848  0.00  0.00    -0.061 A 
ATOM     44  C   UNL     1       0.686   3.077  19.877  0.00  0.00    -0.061 A 
ATOM     45  C   UNL     1       1.564   4.129  20.145  0.00  0.00    -0.057 A 
ATOM     46  C   UNL     1       2.702   4.259  19.361  0.00  0.00    -0.024 A 
ATOM     47  H   UNL     1       4.484   4.995  20.289  0.00  0.00    +0.055 HD
ATOM     48  H   UNL     1       5.565   5.364  18.144  0.00  0.00    +0.029 HD
ATOM     49  H   UNL     1       4.040   5.751  17.353  0.00  0.00    +0.029 HD
ATOM     50  H   UNL     1       4.249   3.533  16.601  0.00  0.00    +0.031 HD
ATOM     51  H   UNL     1       5.069   2.986  18.100  0.00  0.00    +0.031 HD
ATOM     52  H   UNL     1       2.338   1.562  17.298  0.00  0.00    +0.062 HD
ATOM     53  H   UNL     1       0.269   1.343  18.662  0.00  0.00    +0.062 HD
ATOM     54  H   UNL     1      -0.210   2.957  20.481  0.00  0.00    +0.062 HD
ATOM     55  H   UNL     1       1.366   4.819  20.960  0.00  0.00    +0.062 HD
ENDBRANCH  35  38
ENDBRANCH  29  32
ENDBRANCH   6  29
TORSDOF 6
ENDMDL
MODEL 22
REMARK VINA RESULT:    -6.674      4.879      8.246
REMARK INTER + INTRA:         -10.106
REMARK INTER:                  -9.683
REMARK INTRA:                  -0.424
REMARK UNBOUND:                -1.286
REMARK  Name = 
REMARK  6 active torsions:
REMARK  status: ('A' for Active; 'I' for Inactive)
REMARK    1  A    between atoms: C_1  and  C_2
REMARK    2  A    between atoms: C_7  and  C_8
REMARK    3  A    between atoms: C_13  and  C_14
REMARK    4  A    between atoms: C_14  and  N_15
REMARK    5  A    between atoms: N_18  and  C_19
REMARK    6  A    between atoms: C_28  and  C_29
REMARK                            x       y       z     vdW  Elec       q    Type
REMARK                         _______ _______ _______ _____ _____    ______ ____
ROOT
ATOM      1  C   UNL     1       4.276   4.694  17.636  0.00  0.00    +0.030 A 
ATOM      2  C   UNL     1       3.779   3.538  18.256  0.00  0.00    +0.132 A 
ATOM      3  F   UNL     1       4.156   2.325  17.820  0.00  0.00    -0.205 F 
ATOM      4  C   UNL     1       2.883   3.595  19.318  0.00  0.00    -0.025 A 
ATOM      5  C   UNL     1       2.457   4.831  19.796  0.00  0.00    -0.054 A 
ATOM      6  C   UNL     1       2.934   6.026  19.226  0.00  0.00    -0.017 A 
ATOM      7  C   UNL     1       3.831   5.943  18.135  0.00  0.00    +0.052 A 
ATOM      8  H   UNL     1       2.513   2.674  19.756  0.00  0.00    +0.065 HD
ATOM      9  H   UNL     1       1.740   4.862  20.616  0.00  0.00    +0.062 HD
ENDROOT
BRANCH   1  15
ATOM     10  C   UNL     1       6.598   4.598  16.621  0.00  0.00    -0.043 A 
ATOM     11  C   UNL     1       7.408   4.459  15.481  0.00  0.00    -0.058 A 
ATOM     12  C   UNL     1       6.843   4.311  14.214  0.00  0.00    -0.061 A 
ATOM     13  C   UNL     1       5.461   4.289  14.071  0.00  0.00    -0.061 A 
ATOM     14  C   UNL     1       4.643   4.410  15.194  0.00  0.00    -0.054 A 
ATOM     15  C   UNL     1       5.189   4.566  16.483  0.00  0.00    -0.011 A 
ATOM     16  H   UNL     1       8.492   4.462  15.572  0.00  0.00    +0.062 HD
ATOM     17  H   UNL     1       7.482   4.205  13.342  0.00  0.00    +0.062 HD
ATOM     18  H   UNL     1       5.014   4.169  13.085  0.00  0.00    +0.062 HD
ATOM     19  H   UNL     1       3.562   4.386  15.056  0.00  0.00    +0.062 HD
BRANCH  10  20
ATOM     20  C   UNL     1       7.268   4.730  17.963  0.00  0.00    -0.039 C 
ATOM     21  H   UNL     1       8.004   5.540  17.939  0.00  0.00    +0.028 HD
ATOM     22  H   UNL     1       7.761   3.797  18.253  0.00  0.00    +0.028 HD
ATOM     23  H   UNL     1       6.538   4.956  18.747  0.00  0.00    +0.028 HD
ENDBRANCH  10  20
ENDBRANCH   1  15
BRANCH   7  24
ATOM     24  C   UNL     1       4.264   7.199  17.478  0.00  0.00    +0.243 C 
ATOM     25  N   UNL     1       5.491   7.682  17.826  0.00  0.00    -0.325 N 
ATOM     26  O   UNL     1       3.532   7.777  16.685  0.00  0.00    -0.270 OA
ATOM     27  H   UNL     1       5.841   8.456  17.275  0.00  0.00    +0.145 HD
ATOM     28  H   UNL     1       6.175   7.108  18.299  0.00  0.00    +0.145 HD
ENDBRANCH   7  24
BRANCH   6  29
ATOM     29  C   UNL     1       2.431   7.347  19.770  0.00  0.00    +0.039 C 
ATOM     30  H   UNL     1       3.283   8.002  19.984  0.00  0.00    +0.051 HD
ATOM     31  H   UNL     1       1.851   7.235  20.690  0.00  0.00    +0.051 HD
BRANCH  29  32
ATOM     32  N   UNL     1       1.542   7.999  18.823  0.00  0.00    -0.295 N 
ATOM     33  C   UNL     1       0.944   9.184  19.171  0.00  0.00    +0.300 C 
ATOM     34  O   UNL     1       1.174   9.798  20.201  0.00  0.00    -0.253 OA
ATOM     35  N   UNL     1       0.053   9.578  18.206  0.00  0.00    -0.293 N 
ATOM     36  H   UNL     1       0.936   7.384  18.300  0.00  0.00    +0.151 HD
ATOM     37  H   UNL     1       0.300   9.286  17.273  0.00  0.00    +0.151 HD
BRANCH  35  38
ATOM     38  C   UNL     1      -0.617  10.858  18.300  0.00  0.00    +0.050 C 
ATOM     39  C   UNL     1      -1.085  11.130  19.744  0.00  0.00    -0.026 C 
ATOM     40  C   UNL     1      -2.351  11.989  19.643  0.00  0.00    -0.025 C 
ATOM     41  C   UNL     1      -2.913  11.524  18.337  0.00  0.00    -0.042 A 
ATOM     42  C   UNL     1      -4.198  11.708  17.853  0.00  0.00    -0.058 A 
ATOM     43  C   UNL     1      -4.499  11.235  16.574  0.00  0.00    -0.061 A 
ATOM     44  C   UNL     1      -3.515  10.607  15.794  0.00  0.00    -0.061 A 
ATOM     45  C   UNL     1      -2.219  10.438  16.285  0.00  0.00    -0.057 A 
ATOM     46  C   UNL     1      -1.931  10.889  17.566  0.00  0.00    -0.024 A 
ATOM     47  H   UNL     1       0.026  11.670  17.941  0.00  0.00    +0.055 HD
ATOM     48  H   UNL     1      -0.305  11.609  20.348  0.00  0.00    +0.029 HD
ATOM     49  H   UNL     1      -1.336  10.185  20.249  0.00  0.00    +0.029 HD
ATOM     50  H   UNL     1      -3.028  11.801  20.481  0.00  0.00    +0.031 HD
ATOM     51  H   UNL     1      -2.105  13.055  19.589  0.00  0.00    +0.031 HD
ATOM     52  H   UNL     1      -4.953  12.213  18.446  0.00  0.00    +0.062 HD
ATOM     53  H   UNL     1      -5.499  11.368  16.170  0.00  0.00    +0.062 HD
ATOM     54  H   UNL     1      -3.761  10.263  14.792  0.00  0.00    +0.062 HD
ATOM     55  H   UNL     1      -1.451   9.978  15.669  0.00  0.00    +0.062 HD
ENDBRANCH  35  38
ENDBRANCH  29  32
ENDBRANCH   6  29
TORSDOF 6
ENDMDL
MODEL 23
REMARK VINA RESULT:    -6.640      4.981      7.619
REMARK INTER + INTRA:         -10.062
REMARK INTER:                  -8.963
REMARK INTRA:                  -1.099
REMARK UNBOUND:                -1.286
REMARK  Name = 
REMARK  6 active torsions:
REMARK  status: ('A' for Active; 'I' for Inactive)
REMARK    1  A    between atoms: C_1  and  C_2
REMARK    2  A    between atoms: C_7  and  C_8
REMARK    3  A    between atoms: C_13  and  C_14
REMARK    4  A    between atoms: C_14  and  N_15
REMARK    5  A    between atoms: N_18  and  C_19
REMARK    6  A    between atoms: C_28  and  C_29
REMARK                            x       y       z     vdW  Elec       q    Type
REMARK                         _______ _______ _______ _____ _____    ______ ____
ROOT
ATOM      1  C   UNL     1       3.824   4.853  17.469  0.00  0.00    +0.030 A 
ATOM      2  C   UNL     1       4.776   4.704  16.449  0.00  0.00    +0.132 A 
ATOM      3  F   UNL     1       5.191   3.479  16.090  0.00  0.00    -0.205 F 
ATOM      4  C   UNL     1       5.330   5.795  15.789  0.00  0.00    -0.025 A 
ATOM      5  C   UNL     1       4.936   7.085  16.136  0.00  0.00    -0.054 A 
ATOM      6  C   UNL     1       3.973   7.297  17.139  0.00  0.00    -0.017 A 
ATOM      7  C   UNL     1       3.436   6.172  17.810  0.00  0.00    +0.052 A 
ATOM      8  H   UNL     1       6.075   5.633  15.017  0.00  0.00    +0.065 HD
ATOM      9  H   UNL     1       5.392   7.932  15.625  0.00  0.00    +0.062 HD
ENDROOT
BRANCH   1  15
ATOM     10  C   UNL     1       4.017   3.018  19.209  0.00  0.00    -0.043 A 
ATOM     11  C   UNL     1       3.460   1.888  19.833  0.00  0.00    -0.058 A 
ATOM     12  C   UNL     1       2.232   1.375  19.420  0.00  0.00    -0.061 A 
ATOM     13  C   UNL     1       1.536   1.989  18.386  0.00  0.00    -0.061 A 
ATOM     14  C   UNL     1       2.067   3.121  17.767  0.00  0.00    -0.054 A 
ATOM     15  C   UNL     1       3.309   3.656  18.163  0.00  0.00    -0.011 A 
ATOM     16  H   UNL     1       3.983   1.399  20.652  0.00  0.00    +0.062 HD
ATOM     17  H   UNL     1       1.815   0.499  19.912  0.00  0.00    +0.062 HD
ATOM     18  H   UNL     1       0.574   1.595  18.063  0.00  0.00    +0.062 HD
ATOM     19  H   UNL     1       1.500   3.588  16.961  0.00  0.00    +0.062 HD
BRANCH  10  20
ATOM     20  C   UNL     1       5.336   3.539  19.717  0.00  0.00    -0.039 C 
ATOM     21  H   UNL     1       5.386   4.625  19.592  0.00  0.00    +0.028 HD
ATOM     22  H   UNL     1       6.174   3.072  19.191  0.00  0.00    +0.028 HD
ATOM     23  H   UNL     1       5.467   3.312  20.780  0.00  0.00    +0.028 HD
ENDBRANCH  10  20
ENDBRANCH   1  15
BRANCH   7  24
ATOM     24  C   UNL     1       2.488   6.399  18.926  0.00  0.00    +0.243 C 
ATOM     25  N   UNL     1       3.018   6.445  20.182  0.00  0.00    -0.325 N 
ATOM     26  O   UNL     1       1.287   6.509  18.717  0.00  0.00    -0.270 OA
ATOM     27  H   UNL     1       2.393   6.739  20.922  0.00  0.00    +0.145 HD
ATOM     28  H   UNL     1       4.009   6.573  20.338  0.00  0.00    +0.145 HD
ENDBRANCH   7  24
BRANCH   6  29
ATOM     29  C   UNL     1       3.586   8.718  17.494  0.00  0.00    +0.039 C 
ATOM     30  H   UNL     1       4.061   9.412  16.791  0.00  0.00    +0.051 HD
ATOM     31  H   UNL     1       3.889   9.001  18.505  0.00  0.00    +0.051 HD
BRANCH  29  32
ATOM     32  N   UNL     1       2.145   8.895  17.452  0.00  0.00    -0.295 N 
ATOM     33  C   UNL     1       1.602  10.083  17.873  0.00  0.00    +0.300 C 
ATOM     34  O   UNL     1       2.254  11.062  18.201  0.00  0.00    -0.253 OA
ATOM     35  N   UNL     1       0.233  10.015  17.876  0.00  0.00    -0.293 N 
ATOM     36  H   UNL     1       1.599   8.089  17.722  0.00  0.00    +0.151 HD
ATOM     37  H   UNL     1      -0.151   9.399  17.176  0.00  0.00    +0.151 HD
BRANCH  35  38
ATOM     38  C   UNL     1      -0.562  11.188  18.175  0.00  0.00    +0.050 C 
ATOM     39  C   UNL     1      -0.875  11.272  19.683  0.00  0.00    -0.026 C 
ATOM     40  C   UNL     1      -2.233  11.971  19.813  0.00  0.00    -0.025 C 
ATOM     41  C   UNL     1      -2.897  11.555  18.538  0.00  0.00    -0.042 A 
ATOM     42  C   UNL     1      -4.244  11.617  18.224  0.00  0.00    -0.058 A 
ATOM     43  C   UNL     1      -4.646  11.224  16.945  0.00  0.00    -0.061 A 
ATOM     44  C   UNL     1      -3.702  10.795  16.000  0.00  0.00    -0.061 A 
ATOM     45  C   UNL     1      -2.344  10.748  16.321  0.00  0.00    -0.057 A 
ATOM     46  C   UNL     1      -1.952  11.118  17.601  0.00  0.00    -0.024 A 
ATOM     47  H   UNL     1      -0.066  12.103  17.830  0.00  0.00    +0.055 HD
ATOM     48  H   UNL     1      -0.086  11.791  20.240  0.00  0.00    +0.029 HD
ATOM     49  H   UNL     1      -0.951  10.262  20.113  0.00  0.00    +0.029 HD
ATOM     50  H   UNL     1      -2.775  11.627  20.699  0.00  0.00    +0.031 HD
ATOM     51  H   UNL     1      -2.119  13.060  19.841  0.00  0.00    +0.031 HD
ATOM     52  H   UNL     1      -4.973  11.970  18.947  0.00  0.00    +0.062 HD
ATOM     53  H   UNL     1      -5.697  11.265  16.673  0.00  0.00    +0.062 HD
ATOM     54  H   UNL     1      -4.029  10.512  15.002  0.00  0.00    +0.062 HD
ATOM     55  H   UNL     1      -1.611  10.444  15.579  0.00  0.00    +0.062 HD
ENDBRANCH  35  38
ENDBRANCH  29  32
ENDBRANCH   6  29
TORSDOF 6
ENDMDL
MODEL 24
REMARK VINA RESULT:    -6.639      5.852      8.140
REMARK INTER + INTRA:         -10.060
REMARK INTER:                  -9.597
REMARK INTRA:                  -0.463
REMARK UNBOUND:                -1.286
REMARK  Name = 
REMARK  6 active torsions:
REMARK  status: ('A' for Active; 'I' for Inactive)
REMARK    1  A    between atoms: C_1  and  C_2
REMARK    2  A    between atoms: C_7  and  C_8
REMARK    3  A    between atoms: C_13  and  C_14
REMARK    4  A    between atoms: C_14  and  N_15
REMARK    5  A    between atoms: N_18  and  C_19
REMARK    6  A    between atoms: C_28  and  C_29
REMARK                            x       y       z     vdW  Elec       q    Type
REMARK                         _______ _______ _______ _____ _____    ______ ____
ROOT
ATOM      1  C   UNL     1       2.951   5.750  18.369  0.00  0.00    +0.030 A 
ATOM      2  C   UNL     1       3.504   6.610  17.408  0.00  0.00    +0.132 A 
ATOM      3  F   UNL     1       4.248   6.112  16.407  0.00  0.00    -0.205 F 
ATOM      4  C   UNL     1       3.319   7.987  17.455  0.00  0.00    -0.025 A 
ATOM      5  C   UNL     1       2.562   8.548  18.480  0.00  0.00    -0.054 A 
ATOM      6  C   UNL     1       1.968   7.735  19.463  0.00  0.00    -0.017 A 
ATOM      7  C   UNL     1       2.185   6.337  19.405  0.00  0.00    +0.052 A 
ATOM      8  H   UNL     1       3.778   8.616  16.698  0.00  0.00    +0.065 HD
ATOM      9  H   UNL     1       2.441   9.630  18.517  0.00  0.00    +0.062 HD
ENDROOT
BRANCH   1  15
ATOM     10  C   UNL     1       4.432   3.726  18.747  0.00  0.00    -0.043 A 
ATOM     11  C   UNL     1       4.618   2.336  18.649  0.00  0.00    -0.058 A 
ATOM     12  C   UNL     1       3.637   1.520  18.088  0.00  0.00    -0.061 A 
ATOM     13  C   UNL     1       2.451   2.078  17.627  0.00  0.00    -0.061 A 
ATOM     14  C   UNL     1       2.245   3.453  17.730  0.00  0.00    -0.054 A 
ATOM     15  C   UNL     1       3.222   4.301  18.289  0.00  0.00    -0.011 A 
ATOM     16  H   UNL     1       5.535   1.877  19.014  0.00  0.00    +0.062 HD
ATOM     17  H   UNL     1       3.796   0.447  18.019  0.00  0.00    +0.062 HD
ATOM     18  H   UNL     1       1.680   1.445  17.192  0.00  0.00    +0.062 HD
ATOM     19  H   UNL     1       1.304   3.868  17.365  0.00  0.00    +0.062 HD
BRANCH  10  20
ATOM     20  C   UNL     1       5.519   4.551  19.384  0.00  0.00    -0.039 C 
ATOM     21  H   UNL     1       5.627   4.283  20.440  0.00  0.00    +0.028 HD
ATOM     22  H   UNL     1       5.306   5.621  19.298  0.00  0.00    +0.028 HD
ATOM     23  H   UNL     1       6.482   4.383  18.890  0.00  0.00    +0.028 HD
ENDBRANCH  10  20
ENDBRANCH   1  15
BRANCH   7  24
ATOM     24  C   UNL     1       1.635   5.490  20.489  0.00  0.00    +0.243 C 
ATOM     25  N   UNL     1       2.476   5.192  21.521  0.00  0.00    -0.325 N 
ATOM     26  O   UNL     1       0.489   5.064  20.433  0.00  0.00    -0.270 OA
ATOM     27  H   UNL     1       2.057   4.735  22.322  0.00  0.00    +0.145 HD
ATOM     28  H   UNL     1       3.329   5.709  21.680  0.00  0.00    +0.145 HD
ENDBRANCH   7  24
BRANCH   6  29
ATOM     29  C   UNL     1       1.166   8.390  20.568  0.00  0.00    +0.039 C 
ATOM     30  H   UNL     1       1.675   8.242  21.527  0.00  0.00    +0.051 HD
ATOM     31  H   UNL     1       0.155   7.984  20.656  0.00  0.00    +0.051 HD
BRANCH  29  32
ATOM     32  N   UNL     1       0.997   9.811  20.321  0.00  0.00    -0.295 N 
ATOM     33  C   UNL     1       0.058  10.510  21.038  0.00  0.00    +0.300 C 
ATOM     34  O   UNL     1      -0.599  10.043  21.955  0.00  0.00    -0.253 OA
ATOM     35  N   UNL     1      -0.038  11.799  20.581  0.00  0.00    -0.293 N 
ATOM     36  H   UNL     1       1.053  10.095  19.353  0.00  0.00    +0.151 HD
ATOM     37  H   UNL     1       0.821  12.169  20.204  0.00  0.00    +0.151 HD
BRANCH  35  38
ATOM     38  C   UNL     1      -0.884  12.759  21.259  0.00  0.00    +0.050 C 
ATOM     39  C   UNL     1      -0.913  12.492  22.777  0.00  0.00    -0.026 C 
ATOM     40  C   UNL     1      -2.289  12.946  23.278  0.00  0.00    -0.025 C 
ATOM     41  C   UNL     1      -3.134  12.702  22.067  0.00  0.00    -0.042 A 
ATOM     42  C   UNL     1      -4.515  12.629  21.997  0.00  0.00    -0.058 A 
ATOM     43  C   UNL     1      -5.107  12.446  20.745  0.00  0.00    -0.061 A 
ATOM     44  C   UNL     1      -4.317  12.359  19.587  0.00  0.00    -0.061 A 
ATOM     45  C   UNL     1      -2.926  12.446  19.667  0.00  0.00    -0.057 A 
ATOM     46  C   UNL     1      -2.342  12.604  20.916  0.00  0.00    -0.024 A 
ATOM     47  H   UNL     1      -0.564  13.787  21.051  0.00  0.00    +0.055 HD
ATOM     48  H   UNL     1      -0.094  12.998  23.301  0.00  0.00    +0.029 HD
ATOM     49  H   UNL     1      -0.798  11.417  22.978  0.00  0.00    +0.029 HD
ATOM     50  H   UNL     1      -2.613  12.356  24.140  0.00  0.00    +0.031 HD
ATOM     51  H   UNL     1      -2.290  14.011  23.530  0.00  0.00    +0.031 HD
ATOM     52  H   UNL     1      -5.127  12.720  22.888  0.00  0.00    +0.062 HD
ATOM     53  H   UNL     1      -6.188  12.388  20.662  0.00  0.00    +0.062 HD
ATOM     54  H   UNL     1      -4.795  12.237  18.618  0.00  0.00    +0.062 HD
ATOM     55  H   UNL     1      -2.319  12.407  18.767  0.00  0.00    +0.062 HD
ENDBRANCH  35  38
ENDBRANCH  29  32
ENDBRANCH   6  29
TORSDOF 6
ENDMDL
MODEL 25
REMARK VINA RESULT:    -6.523      4.654      7.076
REMARK INTER + INTRA:          -9.907
REMARK INTER:                  -9.034
REMARK INTRA:                  -0.873
REMARK UNBOUND:                -1.286
REMARK  Name = 
REMARK  6 active torsions:
REMARK  status: ('A' for Active; 'I' for Inactive)
REMARK    1  A    between atoms: C_1  and  C_2
REMARK    2  A    between atoms: C_7  and  C_8
REMARK    3  A    between atoms: C_13  and  C_14
REMARK    4  A    between atoms: C_14  and  N_15
REMARK    5  A    between atoms: N_18  and  C_19
REMARK    6  A    between atoms: C_28  and  C_29
REMARK                            x       y       z     vdW  Elec       q    Type
REMARK                         _______ _______ _______ _____ _____    ______ ____
ROOT
ATOM      1  C   UNL     1       4.457   4.370  17.384  0.00  0.00    +0.030 A 
ATOM      2  C   UNL     1       3.960   3.162  17.897  0.00  0.00    +0.132 A 
ATOM      3  F   UNL     1       4.232   2.004  17.275  0.00  0.00    -0.205 F 
ATOM      4  C   UNL     1       3.172   3.114  19.041  0.00  0.00    -0.025 A 
ATOM      5  C   UNL     1       2.856   4.292  19.714  0.00  0.00    -0.054 A 
ATOM      6  C   UNL     1       3.339   5.531  19.256  0.00  0.00    -0.017 A 
ATOM      7  C   UNL     1       4.126   5.558  18.079  0.00  0.00    +0.052 A 
ATOM      8  H   UNL     1       2.797   2.158  19.393  0.00  0.00    +0.065 HD
ATOM      9  H   UNL     1       2.221   4.242  20.597  0.00  0.00    +0.062 HD
ENDROOT
BRANCH   1  15
ATOM     10  C   UNL     1       6.665   4.436  16.137  0.00  0.00    -0.043 A 
ATOM     11  C   UNL     1       7.357   4.409  14.915  0.00  0.00    -0.058 A 
ATOM     12  C   UNL     1       6.670   4.329  13.704  0.00  0.00    -0.061 A 
ATOM     13  C   UNL     1       5.282   4.264  13.698  0.00  0.00    -0.061 A 
ATOM     14  C   UNL     1       4.581   4.274  14.903  0.00  0.00    -0.054 A 
ATOM     15  C   UNL     1       5.251   4.359  16.139  0.00  0.00    -0.011 A 
ATOM     16  H   UNL     1       8.444   4.448  14.898  0.00  0.00    +0.062 HD
ATOM     17  H   UNL     1       7.220   4.310  12.767  0.00  0.00    +0.062 HD
ATOM     18  H   UNL     1       4.741   4.197  12.756  0.00  0.00    +0.062 HD
ATOM     19  H   UNL     1       3.492   4.217  14.873  0.00  0.00    +0.062 HD
BRANCH  10  20
ATOM     20  C   UNL     1       7.464   4.499  17.412  0.00  0.00    -0.039 C 
ATOM     21  H   UNL     1       6.817   4.304  18.274  0.00  0.00    +0.028 HD
ATOM     22  H   UNL     1       7.945   5.475  17.530  0.00  0.00    +0.028 HD
ATOM     23  H   UNL     1       8.265   3.752  17.412  0.00  0.00    +0.028 HD
ENDBRANCH  10  20
ENDBRANCH   1  15
BRANCH   7  24
ATOM     24  C   UNL     1       4.560   6.872  17.548  0.00  0.00    +0.243 C 
ATOM     25  N   UNL     1       5.809   7.294  17.901  0.00  0.00    -0.325 N 
ATOM     26  O   UNL     1       3.812   7.546  16.853  0.00  0.00    -0.270 OA
ATOM     27  H   UNL     1       6.153   8.118  17.425  0.00  0.00    +0.145 HD
ATOM     28  H   UNL     1       6.497   6.660  18.282  0.00  0.00    +0.145 HD
ENDBRANCH   7  24
BRANCH   6  29
ATOM     29  C   UNL     1       2.959   6.788  20.011  0.00  0.00    +0.039 C 
ATOM     30  H   UNL     1       3.865   7.283  20.378  0.00  0.00    +0.051 HD
ATOM     31  H   UNL     1       2.312   6.589  20.869  0.00  0.00    +0.051 HD
BRANCH  29  32
ATOM     32  N   UNL     1       2.214   7.703  19.163  0.00  0.00    -0.295 N 
ATOM     33  C   UNL     1       1.317   8.570  19.736  0.00  0.00    +0.300 C 
ATOM     34  O   UNL     1       1.157   8.702  20.939  0.00  0.00    -0.253 OA
ATOM     35  N   UNL     1       0.629   9.260  18.772  0.00  0.00    -0.293 N 
ATOM     36  H   UNL     1       1.895   7.321  18.285  0.00  0.00    +0.151 HD
ATOM     37  H   UNL     1       1.152   9.418  17.924  0.00  0.00    +0.151 HD
BRANCH  35  38
ATOM     38  C   UNL     1      -0.293  10.315  19.139  0.00  0.00    +0.050 C 
ATOM     39  C   UNL     1      -1.408  10.463  18.085  0.00  0.00    -0.026 C 
ATOM     40  C   UNL     1      -1.822  11.940  18.085  0.00  0.00    -0.025 C 
ATOM     41  C   UNL     1      -0.538  12.601  18.478  0.00  0.00    -0.042 A 
ATOM     42  C   UNL     1      -0.199  13.937  18.351  0.00  0.00    -0.058 A 
ATOM     43  C   UNL     1       1.042  14.355  18.836  0.00  0.00    -0.061 A 
ATOM     44  C   UNL     1       1.912  13.443  19.456  0.00  0.00    -0.061 A 
ATOM     45  C   UNL     1       1.555  12.100  19.592  0.00  0.00    -0.057 A 
ATOM     46  C   UNL     1       0.331  11.685  19.086  0.00  0.00    -0.024 A 
ATOM     47  H   UNL     1      -0.719  10.143  20.134  0.00  0.00    +0.055 HD
ATOM     48  H   UNL     1      -2.255   9.796  18.283  0.00  0.00    +0.029 HD
ATOM     49  H   UNL     1      -1.028  10.200  17.086  0.00  0.00    +0.029 HD
ATOM     50  H   UNL     1      -2.170  12.256  17.097  0.00  0.00    +0.031 HD
ATOM     51  H   UNL     1      -2.593  12.137  18.836  0.00  0.00    +0.031 HD
ATOM     52  H   UNL     1      -0.879  14.647  17.893  0.00  0.00    +0.062 HD
ATOM     53  H   UNL     1       1.332  15.399  18.750  0.00  0.00    +0.062 HD
ATOM     54  H   UNL     1       2.865  13.790  19.846  0.00  0.00    +0.062 HD
ATOM     55  H   UNL     1       2.216  11.402  20.096  0.00  0.00    +0.062 HD
ENDBRANCH  35  38
ENDBRANCH  29  32
ENDBRANCH   6  29
TORSDOF 6
ENDMDL
MODEL 26
REMARK VINA RESULT:    -6.491      6.060      7.888
REMARK INTER + INTRA:          -9.864
REMARK INTER:                  -8.932
REMARK INTRA:                  -0.932
REMARK UNBOUND:                -1.286
REMARK  Name = 
REMARK  6 active torsions:
REMARK  status: ('A' for Active; 'I' for Inactive)
REMARK    1  A    between atoms: C_1  and  C_2
REMARK    2  A    between atoms: C_7  and  C_8
REMARK    3  A    between atoms: C_13  and  C_14
REMARK    4  A    between atoms: C_14  and  N_15
REMARK    5  A    between atoms: N_18  and  C_19
REMARK    6  A    between atoms: C_28  and  C_29
REMARK                            x       y       z     vdW  Elec       q    Type
REMARK                         _______ _______ _______ _____ _____    ______ ____
ROOT
ATOM      1  C   UNL     1       2.755   6.148  18.537  0.00  0.00    +0.030 A 
ATOM      2  C   UNL     1       3.107   7.231  17.717  0.00  0.00    +0.132 A 
ATOM      3  F   UNL     1       3.827   7.025  16.603  0.00  0.00    -0.205 F 
ATOM      4  C   UNL     1       2.745   8.538  18.023  0.00  0.00    -0.025 A 
ATOM      5  C   UNL     1       2.007   8.800  19.174  0.00  0.00    -0.054 A 
ATOM      6  C   UNL     1       1.609   7.753  20.026  0.00  0.00    -0.017 A 
ATOM      7  C   UNL     1       2.005   6.432  19.704  0.00  0.00    +0.052 A 
ATOM      8  H   UNL     1       3.053   9.347  17.367  0.00  0.00    +0.065 HD
ATOM      9  H   UNL     1       1.746   9.830  19.412  0.00  0.00    +0.062 HD
ENDROOT
BRANCH   1  15
ATOM     10  C   UNL     1       4.514   4.323  18.469  0.00  0.00    -0.043 A 
ATOM     11  C   UNL     1       4.875   3.013  18.111  0.00  0.00    -0.058 A 
ATOM     12  C   UNL     1       3.972   2.174  17.458  0.00  0.00    -0.061 A 
ATOM     13  C   UNL     1       2.693   2.629  17.163  0.00  0.00    -0.061 A 
ATOM     14  C   UNL     1       2.314   3.921  17.525  0.00  0.00    -0.054 A 
ATOM     15  C   UNL     1       3.209   4.789  18.181  0.00  0.00    -0.011 A 
ATOM     16  H   UNL     1       5.868   2.633  18.343  0.00  0.00    +0.062 HD
ATOM     17  H   UNL     1       4.267   1.163  17.187  0.00  0.00    +0.062 HD
ATOM     18  H   UNL     1       1.983   1.977  16.657  0.00  0.00    +0.062 HD
ATOM     19  H   UNL     1       1.303   4.254  17.286  0.00  0.00    +0.062 HD
BRANCH  10  20
ATOM     20  C   UNL     1       5.525   5.171  19.194  0.00  0.00    -0.039 C 
ATOM     21  H   UNL     1       6.507   5.077  18.720  0.00  0.00    +0.028 HD
ATOM     22  H   UNL     1       5.600   4.885  20.248  0.00  0.00    +0.028 HD
ATOM     23  H   UNL     1       5.238   6.228  19.176  0.00  0.00    +0.028 HD
ENDBRANCH  10  20
ENDBRANCH   1  15
BRANCH   7  24
ATOM     24  C   UNL     1       1.662   5.342  20.648  0.00  0.00    +0.243 C 
ATOM     25  N   UNL     1       2.596   5.033  21.594  0.00  0.00    -0.325 N 
ATOM     26  O   UNL     1       0.602   4.738  20.552  0.00  0.00    -0.270 OA
ATOM     27  H   UNL     1       2.303   4.390  22.319  0.00  0.00    +0.145 HD
ATOM     28  H   UNL     1       3.359   5.659  21.813  0.00  0.00    +0.145 HD
ENDBRANCH   7  24
BRANCH   6  29
ATOM     29  C   UNL     1       0.820   8.086  21.275  0.00  0.00    +0.039 C 
ATOM     30  H   UNL     1       1.182   7.476  22.110  0.00  0.00    +0.051 HD
ATOM     31  H   UNL     1      -0.252   7.901  21.162  0.00  0.00    +0.051 HD
BRANCH  29  32
ATOM     32  N   UNL     1       0.942   9.494  21.612  0.00  0.00    -0.295 N 
ATOM     33  C   UNL     1       0.024  10.385  21.115  0.00  0.00    +0.300 C 
ATOM     34  O   UNL     1      -0.966  10.071  20.472  0.00  0.00    -0.253 OA
ATOM     35  N   UNL     1       0.373  11.670  21.440  0.00  0.00    -0.293 N 
ATOM     36  H   UNL     1       1.883   9.858  21.628  0.00  0.00    +0.151 HD
ATOM     37  H   UNL     1       0.875  11.755  22.310  0.00  0.00    +0.151 HD
BRANCH  35  38
ATOM     38  C   UNL     1      -0.506  12.775  21.120  0.00  0.00    +0.050 C 
ATOM     39  C   UNL     1       0.267  14.110  21.111  0.00  0.00    -0.026 C 
ATOM     40  C   UNL     1      -0.727  15.197  21.538  0.00  0.00    -0.025 C 
ATOM     41  C   UNL     1      -1.640  14.421  22.434  0.00  0.00    -0.042 A 
ATOM     42  C   UNL     1      -2.546  14.916  23.356  0.00  0.00    -0.058 A 
ATOM     43  C   UNL     1      -3.346  14.008  24.055  0.00  0.00    -0.061 A 
ATOM     44  C   UNL     1      -3.242  12.630  23.810  0.00  0.00    -0.061 A 
ATOM     45  C   UNL     1      -2.334  12.140  22.869  0.00  0.00    -0.057 A 
ATOM     46  C   UNL     1      -1.526  13.045  22.195  0.00  0.00    -0.024 A 
ATOM     47  H   UNL     1      -1.014  12.615  20.162  0.00  0.00    +0.055 HD
ATOM     48  H   UNL     1       0.717  14.320  20.135  0.00  0.00    +0.029 HD
ATOM     49  H   UNL     1       1.092  14.077  21.838  0.00  0.00    +0.029 HD
ATOM     50  H   UNL     1      -0.222  16.015  22.062  0.00  0.00    +0.031 HD
ATOM     51  H   UNL     1      -1.283  15.587  20.679  0.00  0.00    +0.031 HD
ATOM     52  H   UNL     1      -2.644  15.983  23.529  0.00  0.00    +0.062 HD
ATOM     53  H   UNL     1      -4.066  14.371  24.782  0.00  0.00    +0.062 HD
ATOM     54  H   UNL     1      -3.886  11.938  24.348  0.00  0.00    +0.062 HD
ATOM     55  H   UNL     1      -2.276  11.076  22.661  0.00  0.00    +0.062 HD
ENDBRANCH  35  38
ENDBRANCH  29  32
ENDBRANCH   6  29
TORSDOF 6
ENDMDL
MODEL 27
REMARK VINA RESULT:    -6.451      6.980     10.073
REMARK INTER + INTRA:          -9.812
REMARK INTER:                  -9.821
REMARK INTRA:                   0.009
REMARK UNBOUND:                -1.286
REMARK  Name = 
REMARK  6 active torsions:
REMARK  status: ('A' for Active; 'I' for Inactive)
REMARK    1  A    between atoms: C_1  and  C_2
REMARK    2  A    between atoms: C_7  and  C_8
REMARK    3  A    between atoms: C_13  and  C_14
REMARK    4  A    between atoms: C_14  and  N_15
REMARK    5  A    between atoms: N_18  and  C_19
REMARK    6  A    between atoms: C_28  and  C_29
REMARK                            x       y       z     vdW  Elec       q    Type
REMARK                         _______ _______ _______ _____ _____    ______ ____
ROOT
ATOM      1  C   UNL     1      -1.180  12.769  21.422  0.00  0.00    +0.030 A 
ATOM      2  C   UNL     1      -0.966  13.307  20.144  0.00  0.00    +0.132 A 
ATOM      3  F   UNL     1      -1.316  14.576  19.880  0.00  0.00    -0.205 F 
ATOM      4  C   UNL     1      -0.406  12.562  19.112  0.00  0.00    -0.025 A 
ATOM      5  C   UNL     1      -0.037  11.238  19.337  0.00  0.00    -0.054 A 
ATOM      6  C   UNL     1      -0.212  10.649  20.603  0.00  0.00    -0.017 A 
ATOM      7  C   UNL     1      -0.800  11.421  21.633  0.00  0.00    +0.052 A 
ATOM      8  H   UNL     1      -0.273  13.015  18.135  0.00  0.00    +0.065 HD
ATOM      9  H   UNL     1       0.383  10.659  18.516  0.00  0.00    +0.062 HD
ENDROOT
BRANCH   1  15
ATOM     10  C   UNL     1      -3.224  13.766  22.544  0.00  0.00    -0.043 A 
ATOM     11  C   UNL     1      -3.767  14.562  23.567  0.00  0.00    -0.058 A 
ATOM     12  C   UNL     1      -2.941  15.206  24.488  0.00  0.00    -0.061 A 
ATOM     13  C   UNL     1      -1.563  15.055  24.407  0.00  0.00    -0.061 A 
ATOM     14  C   UNL     1      -1.009  14.256  23.407  0.00  0.00    -0.054 A 
ATOM     15  C   UNL     1      -1.821  13.599  22.461  0.00  0.00    -0.011 A 
ATOM     16  H   UNL     1      -4.845  14.685  23.655  0.00  0.00    +0.062 HD
ATOM     17  H   UNL     1      -3.376  15.819  25.273  0.00  0.00    +0.062 HD
ATOM     18  H   UNL     1      -0.914  15.552  25.126  0.00  0.00    +0.062 HD
ATOM     19  H   UNL     1       0.075  14.149  23.366  0.00  0.00    +0.062 HD
BRANCH  10  20
ATOM     20  C   UNL     1      -4.170  13.078  21.594  0.00  0.00    -0.039 C 
ATOM     21  H   UNL     1      -3.711  12.988  20.605  0.00  0.00    +0.028 HD
ATOM     22  H   UNL     1      -5.114  13.625  21.511  0.00  0.00    +0.028 HD
ATOM     23  H   UNL     1      -4.420  12.072  21.947  0.00  0.00    +0.028 HD
ENDBRANCH  10  20
ENDBRANCH   1  15
BRANCH   7  24
ATOM     24  C   UNL     1      -1.065  10.774  22.939  0.00  0.00    +0.243 C 
ATOM     25  N   UNL     1      -0.033  10.083  23.503  0.00  0.00    -0.325 N 
ATOM     26  O   UNL     1      -2.170  10.842  23.461  0.00  0.00    -0.270 OA
ATOM     27  H   UNL     1      -0.173   9.764  24.454  0.00  0.00    +0.145 HD
ATOM     28  H   UNL     1       0.922  10.205  23.194  0.00  0.00    +0.145 HD
ENDBRANCH   7  24
BRANCH   6  29
ATOM     29  C   UNL     1       0.190   9.202  20.798  0.00  0.00    +0.039 C 
ATOM     30  H   UNL     1      -0.707   8.590  20.946  0.00  0.00    +0.051 HD
ATOM     31  H   UNL     1       0.844   9.055  21.662  0.00  0.00    +0.051 HD
BRANCH  29  32
ATOM     32  N   UNL     1       0.935   8.706  19.654  0.00  0.00    -0.295 N 
ATOM     33  C   UNL     1       1.893   7.741  19.844  0.00  0.00    +0.300 C 
ATOM     34  O   UNL     1       2.111   7.185  20.909  0.00  0.00    -0.253 OA
ATOM     35  N   UNL     1       2.567   7.493  18.676  0.00  0.00    -0.293 N 
ATOM     36  H   UNL     1       1.199   9.401  18.972  0.00  0.00    +0.151 HD
ATOM     37  H   UNL     1       2.014   7.629  17.843  0.00  0.00    +0.151 HD
BRANCH  35  38
ATOM     38  C   UNL     1       3.548   6.431  18.604  0.00  0.00    +0.050 C 
ATOM     39  C   UNL     1       4.420   6.571  17.339  0.00  0.00    -0.026 C 
ATOM     40  C   UNL     1       4.829   5.152  16.927  0.00  0.00    -0.025 C 
ATOM     41  C   UNL     1       3.658   4.358  17.415  0.00  0.00    -0.042 A 
ATOM     42  C   UNL     1       3.304   3.066  17.065  0.00  0.00    -0.058 A 
ATOM     43  C   UNL     1       2.193   2.491  17.687  0.00  0.00    -0.061 A 
ATOM     44  C   UNL     1       1.469   3.203  18.657  0.00  0.00    -0.061 A 
ATOM     45  C   UNL     1       1.842   4.501  19.013  0.00  0.00    -0.057 A 
ATOM     46  C   UNL     1       2.932   5.076  18.375  0.00  0.00    -0.024 A 
ATOM     47  H   UNL     1       4.173   6.404  19.505  0.00  0.00    +0.055 HD
ATOM     48  H   UNL     1       5.286   7.221  17.505  0.00  0.00    +0.029 HD
ATOM     49  H   UNL     1       3.838   7.025  16.523  0.00  0.00    +0.029 HD
ATOM     50  H   UNL     1       4.964   5.075  15.844  0.00  0.00    +0.031 HD
ATOM     51  H   UNL     1       5.741   4.835  17.443  0.00  0.00    +0.031 HD
ATOM     52  H   UNL     1       3.876   2.507  16.332  0.00  0.00    +0.062 HD
ATOM     53  H   UNL     1       1.895   1.478  17.432  0.00  0.00    +0.062 HD
ATOM     54  H   UNL     1       0.619   2.733  19.146  0.00  0.00    +0.062 HD
ATOM     55  H   UNL     1       1.298   5.039  19.784  0.00  0.00    +0.062 HD
ENDBRANCH  35  38
ENDBRANCH  29  32
ENDBRANCH   6  29
TORSDOF 6
ENDMDL
MODEL 28
REMARK VINA RESULT:    -6.356      4.987      7.799
REMARK INTER + INTRA:          -9.686
REMARK INTER:                  -9.187
REMARK INTRA:                  -0.499
REMARK UNBOUND:                -1.286
REMARK  Name = 
REMARK  6 active torsions:
REMARK  status: ('A' for Active; 'I' for Inactive)
REMARK    1  A    between atoms: C_1  and  C_2
REMARK    2  A    between atoms: C_7  and  C_8
REMARK    3  A    between atoms: C_13  and  C_14
REMARK    4  A    between atoms: C_14  and  N_15
REMARK    5  A    between atoms: N_18  and  C_19
REMARK    6  A    between atoms: C_28  and  C_29
REMARK                            x       y       z     vdW  Elec       q    Type
REMARK                         _______ _______ _______ _____ _____    ______ ____
ROOT
ATOM      1  C   UNL     1       2.797   4.834  19.790  0.00  0.00    +0.030 A 
ATOM      2  C   UNL     1       1.850   5.030  20.806  0.00  0.00    +0.132 A 
ATOM      3  F   UNL     1       1.495   4.009  21.603  0.00  0.00    -0.205 F 
ATOM      4  C   UNL     1       1.240   6.261  21.021  0.00  0.00    -0.025 A 
ATOM      5  C   UNL     1       1.570   7.346  20.212  0.00  0.00    -0.054 A 
ATOM      6  C   UNL     1       2.526   7.214  19.188  0.00  0.00    -0.017 A 
ATOM      7  C   UNL     1       3.120   5.947  18.977  0.00  0.00    +0.052 A 
ATOM      8  H   UNL     1       0.500   6.362  21.809  0.00  0.00    +0.065 HD
ATOM      9  H   UNL     1       1.071   8.300  20.378  0.00  0.00    +0.062 HD
ENDROOT
BRANCH   1  15
ATOM     10  C   UNL     1       2.864   2.580  18.628  0.00  0.00    -0.043 A 
ATOM     11  C   UNL     1       3.471   1.322  18.479  0.00  0.00    -0.058 A 
ATOM     12  C   UNL     1       4.554   0.949  19.274  0.00  0.00    -0.061 A 
ATOM     13  C   UNL     1       5.053   1.833  20.222  0.00  0.00    -0.061 A 
ATOM     14  C   UNL     1       4.473   3.092  20.373  0.00  0.00    -0.054 A 
ATOM     15  C   UNL     1       3.375   3.490  19.585  0.00  0.00    -0.011 A 
ATOM     16  H   UNL     1       3.102   0.619  17.734  0.00  0.00    +0.062 HD
ATOM     17  H   UNL     1       5.012  -0.029  19.147  0.00  0.00    +0.062 HD
ATOM     18  H   UNL     1       5.901   1.549  20.843  0.00  0.00    +0.062 HD
ATOM     19  H   UNL     1       4.885   3.770  21.121  0.00  0.00    +0.062 HD
BRANCH  10  20
ATOM     20  C   UNL     1       1.713   2.933  17.723  0.00  0.00    -0.039 C 
ATOM     21  H   UNL     1       1.196   2.024  17.399  0.00  0.00    +0.028 HD
ATOM     22  H   UNL     1       2.056   3.491  16.846  0.00  0.00    +0.028 HD
ATOM     23  H   UNL     1       0.989   3.572  18.238  0.00  0.00    +0.028 HD
ENDBRANCH  10  20
ENDBRANCH   1  15
BRANCH   7  24
ATOM     24  C   UNL     1       4.060   5.787  17.843  0.00  0.00    +0.243 C 
ATOM     25  N   UNL     1       5.380   6.013  18.103  0.00  0.00    -0.325 N 
ATOM     26  O   UNL     1       3.653   5.494  16.726  0.00  0.00    -0.270 OA
ATOM     27  H   UNL     1       6.030   5.766  17.367  0.00  0.00    +0.145 HD
ATOM     28  H   UNL     1       5.741   6.037  19.047  0.00  0.00    +0.145 HD
ENDBRANCH   7  24
BRANCH   6  29
ATOM     29  C   UNL     1       2.842   8.417  18.324  0.00  0.00    +0.039 C 
ATOM     30  H   UNL     1       3.536   8.123  17.529  0.00  0.00    +0.051 HD
ATOM     31  H   UNL     1       3.301   9.235  18.887  0.00  0.00    +0.051 HD
BRANCH  29  32
ATOM     32  N   UNL     1       1.636   8.973  17.737  0.00  0.00    -0.295 N 
ATOM     33  C   UNL     1       1.011  10.025  18.358  0.00  0.00    +0.300 C 
ATOM     34  O   UNL     1       1.448  10.608  19.338  0.00  0.00    -0.253 OA
ATOM     35  N   UNL     1      -0.169  10.328  17.727  0.00  0.00    -0.293 N 
ATOM     36  H   UNL     1       0.992   8.301  17.347  0.00  0.00    +0.151 HD
ATOM     37  H   UNL     1      -0.169  10.134  16.737  0.00  0.00    +0.151 HD
BRANCH  35  38
ATOM     38  C   UNL     1      -0.948  11.478  18.135  0.00  0.00    +0.050 C 
ATOM     39  C   UNL     1      -1.142  11.498  19.665  0.00  0.00    -0.026 C 
ATOM     40  C   UNL     1      -2.492  12.174  19.930  0.00  0.00    -0.025 C 
ATOM     41  C   UNL     1      -3.251  11.801  18.695  0.00  0.00    -0.042 A 
ATOM     42  C   UNL     1      -4.619  11.859  18.491  0.00  0.00    -0.058 A 
ATOM     43  C   UNL     1      -5.117  11.511  17.232  0.00  0.00    -0.061 A 
ATOM     44  C   UNL     1      -4.246  11.133  16.199  0.00  0.00    -0.061 A 
ATOM     45  C   UNL     1      -2.866  11.090  16.411  0.00  0.00    -0.057 A 
ATOM     46  C   UNL     1      -2.379  11.413  17.669  0.00  0.00    -0.024 A 
ATOM     47  H   UNL     1      -0.490  12.412  17.790  0.00  0.00    +0.055 HD
ATOM     48  H   UNL     1      -0.317  12.004  20.179  0.00  0.00    +0.029 HD
ATOM     49  H   UNL     1      -1.175  10.471  20.059  0.00  0.00    +0.029 HD
ATOM     50  H   UNL     1      -2.959  11.788  20.841  0.00  0.00    +0.031 HD
ATOM     51  H   UNL     1      -2.387  13.262  19.992  0.00  0.00    +0.031 HD
ATOM     52  H   UNL     1      -5.292  12.173  19.282  0.00  0.00    +0.062 HD
ATOM     53  H   UNL     1      -6.187  11.550  17.046  0.00  0.00    +0.062 HD
ATOM     54  H   UNL     1      -4.649  10.885  15.220  0.00  0.00    +0.062 HD
ATOM     55  H   UNL     1      -2.192  10.825  15.601  0.00  0.00    +0.062 HD
ENDBRANCH  35  38
ENDBRANCH  29  32
ENDBRANCH   6  29
TORSDOF 6
ENDMDL
MODEL 29
REMARK VINA RESULT:    -6.245      5.077      8.282
REMARK INTER + INTRA:          -9.539
REMARK INTER:                  -8.205
REMARK INTRA:                  -1.334
REMARK UNBOUND:                -1.286
REMARK  Name = 
REMARK  6 active torsions:
REMARK  status: ('A' for Active; 'I' for Inactive)
REMARK    1  A    between atoms: C_1  and  C_2
REMARK    2  A    between atoms: C_7  and  C_8
REMARK    3  A    between atoms: C_13  and  C_14
REMARK    4  A    between atoms: C_14  and  N_15
REMARK    5  A    between atoms: N_18  and  C_19
REMARK    6  A    between atoms: C_28  and  C_29
REMARK                            x       y       z     vdW  Elec       q    Type
REMARK                         _______ _______ _______ _____ _____    ______ ____
ROOT
ATOM      1  C   UNL     1       0.133  11.133  20.947  0.00  0.00    +0.030 A 
ATOM      2  C   UNL     1      -0.337  11.223  22.266  0.00  0.00    +0.132 A 
ATOM      3  F   UNL     1      -0.615  12.423  22.801  0.00  0.00    -0.205 F 
ATOM      4  C   UNL     1      -0.519  10.099  23.064  0.00  0.00    -0.025 A 
ATOM      5  C   UNL     1      -0.234   8.835  22.554  0.00  0.00    -0.054 A 
ATOM      6  C   UNL     1       0.224   8.680  21.233  0.00  0.00    -0.017 A 
ATOM      7  C   UNL     1       0.419   9.840  20.444  0.00  0.00    +0.052 A 
ATOM      8  H   UNL     1      -0.870  10.219  24.085  0.00  0.00    +0.065 HD
ATOM      9  H   UNL     1      -0.362   7.965  23.196  0.00  0.00    +0.062 HD
ENDROOT
BRANCH   1  15
ATOM     10  C   UNL     1      -0.663  12.947  19.363  0.00  0.00    -0.043 A 
ATOM     11  C   UNL     1      -0.390  14.130  18.655  0.00  0.00    -0.058 A 
ATOM     12  C   UNL     1       0.868  14.727  18.714  0.00  0.00    -0.061 A 
ATOM     13  C   UNL     1       1.869  14.158  19.492  0.00  0.00    -0.061 A 
ATOM     14  C   UNL     1       1.611  12.993  20.213  0.00  0.00    -0.054 A 
ATOM     15  C   UNL     1       0.349  12.367  20.166  0.00  0.00    -0.011 A 
ATOM     16  H   UNL     1      -1.163  14.598  18.049  0.00  0.00    +0.062 HD
ATOM     17  H   UNL     1       1.063  15.641  18.160  0.00  0.00    +0.062 HD
ATOM     18  H   UNL     1       2.852  14.622  19.546  0.00  0.00    +0.062 HD
ATOM     19  H   UNL     1       2.411  12.567  20.820  0.00  0.00    +0.062 HD
BRANCH  10  20
ATOM     20  C   UNL     1      -2.048  12.363  19.277  0.00  0.00    -0.039 C 
ATOM     21  H   UNL     1      -2.588  12.532  20.214  0.00  0.00    +0.028 HD
ATOM     22  H   UNL     1      -2.013  11.290  19.064  0.00  0.00    +0.028 HD
ATOM     23  H   UNL     1      -2.621  12.826  18.466  0.00  0.00    +0.028 HD
ENDBRANCH  10  20
ENDBRANCH   1  15
BRANCH   7  24
ATOM     24  C   UNL     1       0.985   9.683  19.084  0.00  0.00    +0.243 C 
ATOM     25  N   UNL     1       0.101   9.708  18.045  0.00  0.00    -0.325 N 
ATOM     26  O   UNL     1       2.185   9.512  18.919  0.00  0.00    -0.270 OA
ATOM     27  H   UNL     1       0.503   9.743  17.116  0.00  0.00    +0.145 HD
ATOM     28  H   UNL     1      -0.840  10.061  18.154  0.00  0.00    +0.145 HD
ENDBRANCH   7  24
BRANCH   6  29
ATOM     29  C   UNL     1       0.535   7.288  20.725  0.00  0.00    +0.039 C 
ATOM     30  H   UNL     1       0.048   7.135  19.756  0.00  0.00    +0.051 HD
ATOM     31  H   UNL     1       0.192   6.502  21.403  0.00  0.00    +0.051 HD
BRANCH  29  32
ATOM     32  N   UNL     1       1.967   7.088  20.588  0.00  0.00    -0.295 N 
ATOM     33  C   UNL     1       2.429   6.072  19.790  0.00  0.00    +0.300 C 
ATOM     34  O   UNL     1       1.719   5.362  19.095  0.00  0.00    -0.253 OA
ATOM     35  N   UNL     1       3.793   5.966  19.883  0.00  0.00    -0.293 N 
ATOM     36  H   UNL     1       2.507   7.210  21.432  0.00  0.00    +0.151 HD
ATOM     37  H   UNL     1       4.263   6.838  20.070  0.00  0.00    +0.151 HD
BRANCH  35  38
ATOM     38  C   UNL     1       4.519   5.036  19.043  0.00  0.00    +0.050 C 
ATOM     39  C   UNL     1       5.895   4.701  19.653  0.00  0.00    -0.026 C 
ATOM     40  C   UNL     1       6.839   4.413  18.479  0.00  0.00    -0.025 C 
ATOM     41  C   UNL     1       6.252   5.285  17.414  0.00  0.00    -0.042 A 
ATOM     42  C   UNL     1       6.841   5.688  16.228  0.00  0.00    -0.058 A 
ATOM     43  C   UNL     1       6.089   6.464  15.343  0.00  0.00    -0.061 A 
ATOM     44  C   UNL     1       4.762   6.808  15.645  0.00  0.00    -0.061 A 
ATOM     45  C   UNL     1       4.171   6.386  16.838  0.00  0.00    -0.057 A 
ATOM     46  C   UNL     1       4.931   5.635  17.724  0.00  0.00    -0.024 A 
ATOM     47  H   UNL     1       3.939   4.122  18.868  0.00  0.00    +0.055 HD
ATOM     48  H   UNL     1       5.842   3.863  20.357  0.00  0.00    +0.029 HD
ATOM     49  H   UNL     1       6.282   5.563  20.218  0.00  0.00    +0.029 HD
ATOM     50  H   UNL     1       7.871   4.685  18.721  0.00  0.00    +0.031 HD
ATOM     51  H   UNL     1       6.788   3.362  18.176  0.00  0.00    +0.031 HD
ATOM     52  H   UNL     1       7.860   5.404  15.982  0.00  0.00    +0.062 HD
ATOM     53  H   UNL     1       6.528   6.792  14.404  0.00  0.00    +0.062 HD
ATOM     54  H   UNL     1       4.184   7.395  14.936  0.00  0.00    +0.062 HD
ATOM     55  H   UNL     1       3.135   6.628  17.057  0.00  0.00    +0.062 HD
ENDBRANCH  35  38
ENDBRANCH  29  32
ENDBRANCH   6  29
TORSDOF 6
ENDMDL
MODEL 30
REMARK VINA RESULT:    -6.239      5.527      8.586
REMARK INTER + INTRA:          -9.532
REMARK INTER:                  -8.911
REMARK INTRA:                  -0.621
REMARK UNBOUND:                -1.286
REMARK  Name = 
REMARK  6 active torsions:
REMARK  status: ('A' for Active; 'I' for Inactive)
REMARK    1  A    between atoms: C_1  and  C_2
REMARK    2  A    between atoms: C_7  and  C_8
REMARK    3  A    between atoms: C_13  and  C_14
REMARK    4  A    between atoms: C_14  and  N_15
REMARK    5  A    between atoms: N_18  and  C_19
REMARK    6  A    between atoms: C_28  and  C_29
REMARK                            x       y       z     vdW  Elec       q    Type
REMARK                         _______ _______ _______ _____ _____    ______ ____
ROOT
ATOM      1  C   UNL     1      -1.068  11.708  19.336  0.00  0.00    +0.030 A 
ATOM      2  C   UNL     1      -2.181  11.158  18.681  0.00  0.00    +0.132 A 
ATOM      3  F   UNL     1      -3.411  11.638  18.925  0.00  0.00    -0.205 F 
ATOM      4  C   UNL     1      -2.062  10.106  17.779  0.00  0.00    -0.025 A 
ATOM      5  C   UNL     1      -0.807   9.571  17.503  0.00  0.00    -0.054 A 
ATOM      6  C   UNL     1       0.347  10.092  18.116  0.00  0.00    -0.017 A 
ATOM      7  C   UNL     1       0.201  11.151  19.044  0.00  0.00    +0.052 A 
ATOM      8  H   UNL     1      -2.952   9.702  17.307  0.00  0.00    +0.065 HD
ATOM      9  H   UNL     1      -0.729   8.734  16.810  0.00  0.00    +0.062 HD
ENDROOT
BRANCH   1  15
ATOM     10  C   UNL     1      -1.428  12.549  21.701  0.00  0.00    -0.043 A 
ATOM     11  C   UNL     1      -1.601  13.632  22.580  0.00  0.00    -0.058 A 
ATOM     12  C   UNL     1      -1.637  14.942  22.104  0.00  0.00    -0.061 A 
ATOM     13  C   UNL     1      -1.490  15.189  20.744  0.00  0.00    -0.061 A 
ATOM     14  C   UNL     1      -1.302  14.127  19.861  0.00  0.00    -0.054 A 
ATOM     15  C   UNL     1      -1.266  12.794  20.317  0.00  0.00    -0.011 A 
ATOM     16  H   UNL     1      -1.707  13.461  23.649  0.00  0.00    +0.062 HD
ATOM     17  H   UNL     1      -1.773  15.769  22.796  0.00  0.00    +0.062 HD
ATOM     18  H   UNL     1      -1.514  16.210  20.368  0.00  0.00    +0.062 HD
ATOM     19  H   UNL     1      -1.184  14.346  18.799  0.00  0.00    +0.062 HD
BRANCH  10  20
ATOM     20  C   UNL     1      -1.373  11.159  22.280  0.00  0.00    -0.039 C 
ATOM     21  H   UNL     1      -1.667  10.424  21.524  0.00  0.00    +0.028 HD
ATOM     22  H   UNL     1      -2.027  11.068  23.153  0.00  0.00    +0.028 HD
ATOM     23  H   UNL     1      -0.361  10.913  22.619  0.00  0.00    +0.028 HD
ENDBRANCH  10  20
ENDBRANCH   1  15
BRANCH   7  24
ATOM     24  C   UNL     1       1.405  11.640  19.756  0.00  0.00    +0.243 C 
ATOM     25  N   UNL     1       2.127  12.620  19.139  0.00  0.00    -0.325 N 
ATOM     26  O   UNL     1       1.738  11.159  20.831  0.00  0.00    -0.270 OA
ATOM     27  H   UNL     1       2.862  13.047  19.688  0.00  0.00    +0.145 HD
ATOM     28  H   UNL     1       1.745  13.163  18.377  0.00  0.00    +0.145 HD
ENDBRANCH   7  24
BRANCH   6  29
ATOM     29  C   UNL     1       1.690   9.469  17.797  0.00  0.00    +0.039 C 
ATOM     30  H   UNL     1       2.439   9.828  18.512  0.00  0.00    +0.051 HD
ATOM     31  H   UNL     1       2.042   9.709  16.791  0.00  0.00    +0.051 HD
BRANCH  29  32
ATOM     32  N   UNL     1       1.621   8.019  17.852  0.00  0.00    -0.295 N 
ATOM     33  C   UNL     1       2.776   7.298  18.029  0.00  0.00    +0.300 C 
ATOM     34  O   UNL     1       3.872   7.792  18.243  0.00  0.00    -0.253 OA
ATOM     35  N   UNL     1       2.526   5.954  17.931  0.00  0.00    -0.293 N 
ATOM     36  H   UNL     1       0.978   7.589  17.204  0.00  0.00    +0.151 HD
ATOM     37  H   UNL     1       1.602   5.682  18.231  0.00  0.00    +0.151 HD
BRANCH  35  38
ATOM     38  C   UNL     1       3.574   4.989  18.196  0.00  0.00    +0.050 C 
ATOM     39  C   UNL     1       4.326   5.337  19.497  0.00  0.00    -0.026 C 
ATOM     40  C   UNL     1       5.766   4.841  19.318  0.00  0.00    -0.025 C 
ATOM     41  C   UNL     1       5.938   4.975  17.838  0.00  0.00    -0.042 A 
ATOM     42  C   UNL     1       7.121   4.972  17.118  0.00  0.00    -0.058 A 
ATOM     43  C   UNL     1       7.050   5.056  15.725  0.00  0.00    -0.061 A 
ATOM     44  C   UNL     1       5.807   5.121  15.076  0.00  0.00    -0.061 A 
ATOM     45  C   UNL     1       4.619   5.110  15.810  0.00  0.00    -0.057 A 
ATOM     46  C   UNL     1       4.696   5.050  17.194  0.00  0.00    -0.024 A 
ATOM     47  H   UNL     1       3.173   3.969  18.240  0.00  0.00    +0.055 HD
ATOM     48  H   UNL     1       3.845   4.903  20.381  0.00  0.00    +0.029 HD
ATOM     49  H   UNL     1       4.342   6.426  19.649  0.00  0.00    +0.029 HD
ATOM     50  H   UNL     1       6.473   5.459  19.879  0.00  0.00    +0.031 HD
ATOM     51  H   UNL     1       5.866   3.792  19.616  0.00  0.00    +0.031 HD
ATOM     52  H   UNL     1       8.081   4.899  17.617  0.00  0.00    +0.062 HD
ATOM     53  H   UNL     1       7.963   5.054  15.136  0.00  0.00    +0.062 HD
ATOM     54  H   UNL     1       5.769   5.165  13.990  0.00  0.00    +0.062 HD
ATOM     55  H   UNL     1       3.658   5.131  15.304  0.00  0.00    +0.062 HD
ENDBRANCH  35  38
ENDBRANCH  29  32
ENDBRANCH   6  29
TORSDOF 6
ENDMDL
MODEL 31
REMARK VINA RESULT:    -6.211      6.357      9.198
REMARK INTER + INTRA:          -9.494
REMARK INTER:                  -9.521
REMARK INTRA:                   0.027
REMARK UNBOUND:                -1.286
REMARK  Name = 
REMARK  6 active torsions:
REMARK  status: ('A' for Active; 'I' for Inactive)
REMARK    1  A    between atoms: C_1  and  C_2
REMARK    2  A    between atoms: C_7  and  C_8
REMARK    3  A    between atoms: C_13  and  C_14
REMARK    4  A    between atoms: C_14  and  N_15
REMARK    5  A    between atoms: N_18  and  C_19
REMARK    6  A    between atoms: C_28  and  C_29
REMARK                            x       y       z     vdW  Elec       q    Type
REMARK                         _______ _______ _______ _____ _____    ______ ____
ROOT
ATOM      1  C   UNL     1      -0.563  12.023  21.174  0.00  0.00    +0.030 A 
ATOM      2  C   UNL     1      -0.142  12.315  19.868  0.00  0.00    +0.132 A 
ATOM      3  F   UNL     1      -0.411  13.514  19.326  0.00  0.00    -0.205 F 
ATOM      4  C   UNL     1       0.548  11.392  19.090  0.00  0.00    -0.025 A 
ATOM      5  C   UNL     1       0.840  10.133  19.607  0.00  0.00    -0.054 A 
ATOM      6  C   UNL     1       0.458   9.788  20.917  0.00  0.00    -0.017 A 
ATOM      7  C   UNL     1      -0.258  10.738  21.684  0.00  0.00    +0.052 A 
ATOM      8  H   UNL     1       0.841  11.657  18.078  0.00  0.00    +0.065 HD
ATOM      9  H   UNL     1       1.364   9.412  18.981  0.00  0.00    +0.062 HD
ENDROOT
BRANCH   1  15
ATOM     10  C   UNL     1      -2.696  13.301  21.672  0.00  0.00    -0.043 A 
ATOM     11  C   UNL     1      -3.369  14.266  22.441  0.00  0.00    -0.058 A 
ATOM     12  C   UNL     1      -2.704  14.976  23.441  0.00  0.00    -0.061 A 
ATOM     13  C   UNL     1      -1.362  14.723  23.694  0.00  0.00    -0.061 A 
ATOM     14  C   UNL     1      -0.684  13.758  22.951  0.00  0.00    -0.054 A 
ATOM     15  C   UNL     1      -1.331  13.031  21.932  0.00  0.00    -0.011 A 
ATOM     16  H   UNL     1      -4.423  14.472  22.267  0.00  0.00    +0.062 HD
ATOM     17  H   UNL     1      -3.238  15.720  24.026  0.00  0.00    +0.062 HD
ATOM     18  H   UNL     1      -0.839  15.271  24.476  0.00  0.00    +0.062 HD
ATOM     19  H   UNL     1       0.368  13.574  23.170  0.00  0.00    +0.062 HD
BRANCH  10  20
ATOM     20  C   UNL     1      -3.475  12.551  20.624  0.00  0.00    -0.039 C 
ATOM     21  H   UNL     1      -4.311  12.015  21.085  0.00  0.00    +0.028 HD
ATOM     22  H   UNL     1      -2.837  11.842  20.088  0.00  0.00    +0.028 HD
ATOM     23  H   UNL     1      -3.883  13.236  19.872  0.00  0.00    +0.028 HD
ENDBRANCH  10  20
ENDBRANCH   1  15
BRANCH   7  24
ATOM     24  C   UNL     1      -0.738  10.343  23.030  0.00  0.00    +0.243 C 
ATOM     25  N   UNL     1       0.141   9.660  23.818  0.00  0.00    -0.325 N 
ATOM     26  O   UNL     1      -1.879  10.600  23.390  0.00  0.00    -0.270 OA
ATOM     27  H   UNL     1      -0.138   9.518  24.781  0.00  0.00    +0.145 HD
ATOM     28  H   UNL     1       1.132   9.639  23.618  0.00  0.00    +0.145 HD
ENDBRANCH   7  24
BRANCH   6  29
ATOM     29  C   UNL     1       0.784   8.402  21.433  0.00  0.00    +0.039 C 
ATOM     30  H   UNL     1      -0.060   7.731  21.237  0.00  0.00    +0.051 HD
ATOM     31  H   UNL     1       0.986   8.386  22.507  0.00  0.00    +0.051 HD
BRANCH  29  32
ATOM     32  N   UNL     1       1.982   7.876  20.802  0.00  0.00    -0.295 N 
ATOM     33  C   UNL     1       1.933   6.650  20.188  0.00  0.00    +0.300 C 
ATOM     34  O   UNL     1       0.917   5.989  20.044  0.00  0.00    -0.253 OA
ATOM     35  N   UNL     1       3.181   6.272  19.762  0.00  0.00    -0.293 N 
ATOM     36  H   UNL     1       2.845   8.039  21.300  0.00  0.00    +0.151 HD
ATOM     37  H   UNL     1       3.781   7.042  19.509  0.00  0.00    +0.151 HD
BRANCH  35  38
ATOM     38  C   UNL     1       3.359   5.064  18.984  0.00  0.00    +0.050 C 
ATOM     39  C   UNL     1       4.120   3.995  19.795  0.00  0.00    -0.026 C 
ATOM     40  C   UNL     1       4.913   3.158  18.784  0.00  0.00    -0.025 C 
ATOM     41  C   UNL     1       5.176   4.169  17.713  0.00  0.00    -0.042 A 
ATOM     42  C   UNL     1       6.104   4.096  16.688  0.00  0.00    -0.058 A 
ATOM     43  C   UNL     1       6.146   5.136  15.756  0.00  0.00    -0.061 A 
ATOM     44  C   UNL     1       5.254   6.216  15.849  0.00  0.00    -0.061 A 
ATOM     45  C   UNL     1       4.312   6.273  16.879  0.00  0.00    -0.057 A 
ATOM     46  C   UNL     1       4.291   5.249  17.816  0.00  0.00    -0.024 A 
ATOM     47  H   UNL     1       2.398   4.672  18.631  0.00  0.00    +0.055 HD
ATOM     48  H   UNL     1       3.446   3.381  20.403  0.00  0.00    +0.029 HD
ATOM     49  H   UNL     1       4.824   4.473  20.491  0.00  0.00    +0.029 HD
ATOM     50  H   UNL     1       5.835   2.767  19.226  0.00  0.00    +0.031 HD
ATOM     51  H   UNL     1       4.309   2.336  18.387  0.00  0.00    +0.031 HD
ATOM     52  H   UNL     1       6.780   3.251  16.601  0.00  0.00    +0.062 HD
ATOM     53  H   UNL     1       6.864   5.103  14.941  0.00  0.00    +0.062 HD
ATOM     54  H   UNL     1       5.286   7.006  15.104  0.00  0.00    +0.062 HD
ATOM     55  H   UNL     1       3.604   7.095  16.933  0.00  0.00    +0.062 HD
ENDBRANCH  35  38
ENDBRANCH  29  32
ENDBRANCH   6  29
TORSDOF 6
ENDMDL
MODEL 32
REMARK VINA RESULT:    -6.111      5.499      7.204
REMARK INTER + INTRA:          -9.362
REMARK INTER:                  -8.095
REMARK INTRA:                  -1.267
REMARK UNBOUND:                -1.286
REMARK  Name = 
REMARK  6 active torsions:
REMARK  status: ('A' for Active; 'I' for Inactive)
REMARK    1  A    between atoms: C_1  and  C_2
REMARK    2  A    between atoms: C_7  and  C_8
REMARK    3  A    between atoms: C_13  and  C_14
REMARK    4  A    between atoms: C_14  and  N_15
REMARK    5  A    between atoms: N_18  and  C_19
REMARK    6  A    between atoms: C_28  and  C_29
REMARK                            x       y       z     vdW  Elec       q    Type
REMARK                         _______ _______ _______ _____ _____    ______ ____
ROOT
ATOM      1  C   UNL     1       2.735   5.765  18.649  0.00  0.00    +0.030 A 
ATOM      2  C   UNL     1       3.090   6.830  17.808  0.00  0.00    +0.132 A 
ATOM      3  F   UNL     1       3.780   6.597  16.680  0.00  0.00    -0.205 F 
ATOM      4  C   UNL     1       2.761   8.148  18.105  0.00  0.00    -0.025 A 
ATOM      5  C   UNL     1       2.054   8.438  19.270  0.00  0.00    -0.054 A 
ATOM      6  C   UNL     1       1.655   7.410  20.143  0.00  0.00    -0.017 A 
ATOM      7  C   UNL     1       2.017   6.078  19.829  0.00  0.00    +0.052 A 
ATOM      8  H   UNL     1       3.071   8.943  17.433  0.00  0.00    +0.065 HD
ATOM      9  H   UNL     1       1.820   9.477  19.501  0.00  0.00    +0.062 HD
ENDROOT
BRANCH   1  15
ATOM     10  C   UNL     1       4.461   3.910  18.546  0.00  0.00    -0.043 A 
ATOM     11  C   UNL     1       4.788   2.588  18.197  0.00  0.00    -0.058 A 
ATOM     12  C   UNL     1       3.848   1.754  17.593  0.00  0.00    -0.061 A 
ATOM     13  C   UNL     1       2.566   2.224  17.338  0.00  0.00    -0.061 A 
ATOM     14  C   UNL     1       2.221   3.529  17.692  0.00  0.00    -0.054 A 
ATOM     15  C   UNL     1       3.154   4.393  18.299  0.00  0.00    -0.011 A 
ATOM     16  H   UNL     1       5.783   2.196  18.398  0.00  0.00    +0.062 HD
ATOM     17  H   UNL     1       4.116   0.734  17.328  0.00  0.00    +0.062 HD
ATOM     18  H   UNL     1       1.827   1.576  16.870  0.00  0.00    +0.062 HD
ATOM     19  H   UNL     1       1.208   3.874  17.486  0.00  0.00    +0.062 HD
BRANCH  10  20
ATOM     20  C   UNL     1       5.512   4.754  19.218  0.00  0.00    -0.039 C 
ATOM     21  H   UNL     1       6.025   4.173  19.991  0.00  0.00    +0.028 HD
ATOM     22  H   UNL     1       5.073   5.651  19.666  0.00  0.00    +0.028 HD
ATOM     23  H   UNL     1       6.262   5.098  18.497  0.00  0.00    +0.028 HD
ENDBRANCH  10  20
ENDBRANCH   1  15
BRANCH   7  24
ATOM     24  C   UNL     1       1.674   5.006  20.792  0.00  0.00    +0.243 C 
ATOM     25  N   UNL     1       2.606   4.718  21.747  0.00  0.00    -0.325 N 
ATOM     26  O   UNL     1       0.616   4.398  20.706  0.00  0.00    -0.270 OA
ATOM     27  H   UNL     1       2.313   4.088  22.484  0.00  0.00    +0.145 HD
ATOM     28  H   UNL     1       3.368   5.349  21.956  0.00  0.00    +0.145 HD
ENDBRANCH   7  24
BRANCH   6  29
ATOM     29  C   UNL     1       0.901   7.773  21.405  0.00  0.00    +0.039 C 
ATOM     30  H   UNL     1       1.609   8.123  22.166  0.00  0.00    +0.051 HD
ATOM     31  H   UNL     1       0.344   6.932  21.824  0.00  0.00    +0.051 HD
BRANCH  29  32
ATOM     32  N   UNL     1      -0.086   8.807  21.146  0.00  0.00    -0.295 N 
ATOM     33  C   UNL     1       0.106  10.063  21.665  0.00  0.00    +0.300 C 
ATOM     34  O   UNL     1       1.110  10.417  22.264  0.00  0.00    -0.253 OA
ATOM     35  N   UNL     1      -0.983  10.859  21.419  0.00  0.00    -0.293 N 
ATOM     36  H   UNL     1      -1.049   8.506  21.175  0.00  0.00    +0.151 HD
ATOM     37  H   UNL     1      -1.475  10.634  20.568  0.00  0.00    +0.151 HD
BRANCH  35  38
ATOM     38  C   UNL     1      -0.964  12.263  21.774  0.00  0.00    +0.050 C 
ATOM     39  C   UNL     1      -2.396  12.803  21.965  0.00  0.00    -0.026 C 
ATOM     40  C   UNL     1      -2.365  14.284  21.568  0.00  0.00    -0.025 C 
ATOM     41  C   UNL     1      -1.280  14.286  20.537  0.00  0.00    -0.042 A 
ATOM     42  C   UNL     1      -1.003  15.266  19.600  0.00  0.00    -0.058 A 
ATOM     43  C   UNL     1       0.100  15.089  18.761  0.00  0.00    -0.061 A 
ATOM     44  C   UNL     1       0.915  13.953  18.883  0.00  0.00    -0.061 A 
ATOM     45  C   UNL     1       0.635  12.976  19.840  0.00  0.00    -0.057 A 
ATOM     46  C   UNL     1      -0.476  13.145  20.655  0.00  0.00    -0.024 A 
ATOM     47  H   UNL     1      -0.360  12.439  22.672  0.00  0.00    +0.055 HD
ATOM     48  H   UNL     1      -2.759  12.655  22.988  0.00  0.00    +0.029 HD
ATOM     49  H   UNL     1      -3.095  12.271  21.303  0.00  0.00    +0.029 HD
ATOM     50  H   UNL     1      -3.329  14.607  21.163  0.00  0.00    +0.031 HD
ATOM     51  H   UNL     1      -2.081  14.917  22.415  0.00  0.00    +0.031 HD
ATOM     52  H   UNL     1      -1.619  16.156  19.520  0.00  0.00    +0.062 HD
ATOM     53  H   UNL     1       0.340  15.845  18.018  0.00  0.00    +0.062 HD
ATOM     54  H   UNL     1       1.782  13.841  18.236  0.00  0.00    +0.062 HD
ATOM     55  H   UNL     1       1.284  12.112  19.952  0.00  0.00    +0.062 HD
ENDBRANCH  35  38
ENDBRANCH  29  32
ENDBRANCH   6  29
TORSDOF 6
ENDMDL
MODEL 33
REMARK VINA RESULT:    -6.050      7.383     10.058
REMARK INTER + INTRA:          -9.281
REMARK INTER:                  -7.995
REMARK INTRA:                  -1.286
REMARK UNBOUND:                -1.286
REMARK  Name = 
REMARK  6 active torsions:
REMARK  status: ('A' for Active; 'I' for Inactive)
REMARK    1  A    between atoms: C_1  and  C_2
REMARK    2  A    between atoms: C_7  and  C_8
REMARK    3  A    between atoms: C_13  and  C_14
REMARK    4  A    between atoms: C_14  and  N_15
REMARK    5  A    between atoms: N_18  and  C_19
REMARK    6  A    between atoms: C_28  and  C_29
REMARK                            x       y       z     vdW  Elec       q    Type
REMARK                         _______ _______ _______ _____ _____    ______ ____
ROOT
ATOM      1  C   UNL     1      -1.300  13.627  21.496  0.00  0.00    +0.030 A 
ATOM      2  C   UNL     1      -0.220  14.431  21.889  0.00  0.00    +0.132 A 
ATOM      3  F   UNL     1      -0.272  15.111  23.046  0.00  0.00    -0.205 F 
ATOM      4  C   UNL     1       0.924  14.565  21.109  0.00  0.00    -0.025 A 
ATOM      5  C   UNL     1       1.017  13.886  19.897  0.00  0.00    -0.054 A 
ATOM      6  C   UNL     1      -0.028  13.052  19.459  0.00  0.00    -0.017 A 
ATOM      7  C   UNL     1      -1.189  12.944  20.261  0.00  0.00    +0.052 A 
ATOM      8  H   UNL     1       1.729  15.211  21.446  0.00  0.00    +0.065 HD
ATOM      9  H   UNL     1       1.909  14.015  19.286  0.00  0.00    +0.062 HD
ENDROOT
BRANCH   1  15
ATOM     10  C   UNL     1      -2.772  12.468  23.206  0.00  0.00    -0.043 A 
ATOM     11  C   UNL     1      -3.934  12.478  23.997  0.00  0.00    -0.058 A 
ATOM     12  C   UNL     1      -4.836  13.539  23.933  0.00  0.00    -0.061 A 
ATOM     13  C   UNL     1      -4.585  14.611  23.085  0.00  0.00    -0.061 A 
ATOM     14  C   UNL     1      -3.429  14.624  22.304  0.00  0.00    -0.054 A 
ATOM     15  C   UNL     1      -2.505  13.562  22.348  0.00  0.00    -0.011 A 
ATOM     16  H   UNL     1      -4.144  11.654  24.676  0.00  0.00    +0.062 HD
ATOM     17  H   UNL     1      -5.730  13.532  24.550  0.00  0.00    +0.062 HD
ATOM     18  H   UNL     1      -5.284  15.444  23.033  0.00  0.00    +0.062 HD
ATOM     19  H   UNL     1      -3.252  15.478  21.650  0.00  0.00    +0.062 HD
BRANCH  10  20
ATOM     20  C   UNL     1      -1.825  11.305  23.339  0.00  0.00    -0.039 C 
ATOM     21  H   UNL     1      -0.901  11.506  22.788  0.00  0.00    +0.028 HD
ATOM     22  H   UNL     1      -2.279  10.381  22.966  0.00  0.00    +0.028 HD
ATOM     23  H   UNL     1      -1.565  11.126  24.387  0.00  0.00    +0.028 HD
ENDBRANCH  10  20
ENDBRANCH   1  15
BRANCH   7  24
ATOM     24  C   UNL     1      -2.325  12.136  19.757  0.00  0.00    +0.243 C 
ATOM     25  N   UNL     1      -3.394  12.823  19.260  0.00  0.00    -0.325 N 
ATOM     26  O   UNL     1      -2.301  10.914  19.817  0.00  0.00    -0.270 OA
ATOM     27  H   UNL     1      -4.101  12.272  18.791  0.00  0.00    +0.145 HD
ATOM     28  H   UNL     1      -3.330  13.800  19.010  0.00  0.00    +0.145 HD
ENDBRANCH   7  24
BRANCH   6  29
ATOM     29  C   UNL     1       0.111  12.344  18.127  0.00  0.00    +0.039 C 
ATOM     30  H   UNL     1       0.977  12.746  17.588  0.00  0.00    +0.051 HD
ATOM     31  H   UNL     1      -0.768  12.463  17.489  0.00  0.00    +0.051 HD
BRANCH  29  32
ATOM     32  N   UNL     1       0.273  10.912  18.309  0.00  0.00    -0.295 N 
ATOM     33  C   UNL     1       1.536  10.376  18.327  0.00  0.00    +0.300 C 
ATOM     34  O   UNL     1       2.565  11.032  18.294  0.00  0.00    -0.253 OA
ATOM     35  N   UNL     1       1.480   9.007  18.384  0.00  0.00    -0.293 N 
ATOM     36  H   UNL     1      -0.399  10.333  17.826  0.00  0.00    +0.151 HD
ATOM     37  H   UNL     1       0.672   8.647  18.869  0.00  0.00    +0.151 HD
BRANCH  35  38
ATOM     38  C   UNL     1       2.690   8.226  18.527  0.00  0.00    +0.050 C 
ATOM     39  C   UNL     1       3.222   7.776  17.151  0.00  0.00    -0.026 C 
ATOM     40  C   UNL     1       3.932   6.434  17.369  0.00  0.00    -0.025 C 
ATOM     41  C   UNL     1       3.155   5.880  18.522  0.00  0.00    -0.042 A 
ATOM     42  C   UNL     1       3.124   4.571  18.972  0.00  0.00    -0.058 A 
ATOM     43  C   UNL     1       2.367   4.277  20.109  0.00  0.00    -0.061 A 
ATOM     44  C   UNL     1       1.673   5.292  20.786  0.00  0.00    -0.061 A 
ATOM     45  C   UNL     1       1.721   6.612  20.333  0.00  0.00    -0.057 A 
ATOM     46  C   UNL     1       2.455   6.894  19.189  0.00  0.00    -0.024 A 
ATOM     47  H   UNL     1       3.459   8.780  19.077  0.00  0.00    +0.055 HD
ATOM     48  H   UNL     1       3.882   8.525  16.698  0.00  0.00    +0.029 HD
ATOM     49  H   UNL     1       2.387   7.627  16.449  0.00  0.00    +0.029 HD
ATOM     50  H   UNL     1       3.870   5.801  16.479  0.00  0.00    +0.031 HD
ATOM     51  H   UNL     1       4.978   6.580  17.655  0.00  0.00    +0.031 HD
ATOM     52  H   UNL     1       3.679   3.789  18.462  0.00  0.00    +0.062 HD
ATOM     53  H   UNL     1       2.328   3.258  20.484  0.00  0.00    +0.062 HD
ATOM     54  H   UNL     1       1.106   5.050  21.682  0.00  0.00    +0.062 HD
ATOM     55  H   UNL     1       1.207   7.401  20.875  0.00  0.00    +0.062 HD
ENDBRANCH  35  38
ENDBRANCH  29  32
ENDBRANCH   6  29
TORSDOF 6
ENDMDL
