MODEL 1
REMARK VINA RESULT:    -7.458      0.000      0.000
REMARK INTER + INTRA:         -11.391
REMARK INTER:                 -10.924
REMARK INTRA:                  -0.467
REMARK UNBOUND:                -0.227
REMARK  Name = 
REMARK  10 active torsions:
REMARK  status: ('A' for Active; 'I' for Inactive)
REMARK    1  A    between atoms: C_1  and  C_2
REMARK    2  A    between atoms: C_2  and  C_3
REMARK    3  A    between atoms: C_2  and  S_23
REMARK    4  A    between atoms: C_7  and  N_9
REMARK    5  A    between atoms: C_10  and  C_11
REMARK    6  A    between atoms: C_14  and  N_19
REMARK    7  A    between atoms: C_15  and  O_17
REMARK    8  A    between atoms: O_17  and  C_18
REMARK    9  A    between atoms: S_23  and  C_24
REMARK   10  A    between atoms: N_28  and  C_29
REMARK                            x       y       z     vdW  Elec       q    Type
REMARK                         _______ _______ _______ _____ _____    ______ ____
ROOT
ATOM      1  C   UNL     1      -0.418  10.946  20.418  0.00  0.00    -0.030 A 
ATOM      2  C   UNL     1      -0.678  11.274  21.752  0.00  0.00    -0.039 A 
ATOM      3  C   UNL     1      -0.294  10.380  22.738  0.00  0.00    +0.030 A 
ATOM      4  N   UNL     1       0.316   9.203  22.491  0.00  0.00    -0.240 NA
ATOM      5  C   UNL     1       0.557   8.877  21.213  0.00  0.00    +0.125 A 
ATOM      6  C   UNL     1       0.205   9.716  20.158  0.00  0.00    -0.017 A 
ATOM      7  H   UNL     1      -1.176  12.195  22.031  0.00  0.00    +0.064 HD
ATOM      8  H   UNL     1      -0.475  10.593  23.788  0.00  0.00    +0.083 HD
ATOM      9  H   UNL     1       0.410   9.420  19.133  0.00  0.00    +0.065 HD
ENDROOT
BRANCH   5  10
ATOM     10  N   UNL     1       1.178   7.669  20.888  0.00  0.00    -0.265 N 
ATOM     11  C   UNL     1       1.992   7.437  19.801  0.00  0.00    +0.268 C 
ATOM     12  O   UNL     1       2.331   8.217  18.921  0.00  0.00    -0.268 OA
ATOM     13  H   UNL     1       1.028   6.874  21.496  0.00  0.00    +0.157 HD
BRANCH  11  14
ATOM     14  C   UNL     1       2.495   6.024  19.755  0.00  0.00    +0.130 A 
ATOM     15  C   UNL     1       1.865   5.035  20.506  0.00  0.00    -0.029 A 
ATOM     16  C   UNL     1       2.359   3.736  20.436  0.00  0.00    -0.024 A 
ATOM     17  C   UNL     1       3.459   3.490  19.611  0.00  0.00    +0.187 A 
ATOM     18  C   UNL     1       4.045   4.525  18.896  0.00  0.00    +0.246 A 
ATOM     19  N   UNL     1       3.580   5.797  18.951  0.00  0.00    -0.206 NA
ATOM     20  H   UNL     1       1.009   5.275  21.132  0.00  0.00    +0.064 HD
ATOM     21  H   UNL     1       1.894   2.938  21.011  0.00  0.00    +0.064 HD
BRANCH  17  22
ATOM     22  N   UNL     1       3.983   2.152  19.514  0.00  0.00    +0.062 N 
ATOM     23  O   UNL     1       4.814   1.815  20.368  0.00  0.00    -0.126 OA
ATOM     24  O   UNL     1       3.525   1.423  18.624  0.00  0.00    -0.126 OA
ENDBRANCH  17  22
BRANCH  18  25
ATOM     25  O   UNL     1       5.166   4.262  18.140  0.00  0.00    -0.478 OA
BRANCH  25  26
ATOM     26  C   UNL     1       4.922   4.177  16.740  0.00  0.00    +0.080 C 
ATOM     27  H   UNL     1       4.007   4.714  16.466  0.00  0.00    +0.066 HD
ATOM     28  H   UNL     1       4.880   3.135  16.407  0.00  0.00    +0.066 HD
ATOM     29  H   UNL     1       5.758   4.659  16.224  0.00  0.00    +0.066 HD
ENDBRANCH  25  26
ENDBRANCH  18  25
ENDBRANCH  11  14
ENDBRANCH   5  10
BRANCH   1  30
ATOM     30  C   UNL     1      -0.812  11.850  19.262  0.00  0.00    +0.035 C 
ATOM     31  H   UNL     1      -0.372  11.430  18.349  0.00  0.00    +0.046 HD
BRANCH  30  32
ATOM     32  C   UNL     1      -0.282  13.278  19.417  0.00  0.00    -0.049 C 
ATOM     33  H   UNL     1      -0.886  13.977  18.826  0.00  0.00    +0.024 HD
ATOM     34  H   UNL     1       0.757  13.381  19.083  0.00  0.00    +0.024 HD
ATOM     35  H   UNL     1      -0.330  13.611  20.459  0.00  0.00    +0.024 HD
ENDBRANCH  30  32
BRANCH  30  36
ATOM     36  S   UNL     1      -2.639  11.861  19.080  0.00  0.00    -0.078 S 
BRANCH  36  37
ATOM     37  C   UNL     1      -2.831  11.143  17.522  0.00  0.00    +0.192 A 
ATOM     38  N   UNL     1      -1.967  10.383  16.890  0.00  0.00    -0.123 NA
ATOM     39  N   UNL     1      -2.528  10.023  15.685  0.00  0.00    -0.137 NA
ATOM     40  C   UNL     1      -3.719  10.574  15.622  0.00  0.00    +0.120 A 
ATOM     41  N   UNL     1      -3.953  11.289  16.759  0.00  0.00    -0.312 N 
ATOM     42  H   UNL     1      -4.419  10.486  14.803  0.00  0.00    +0.105 HD
BRANCH  41  43
ATOM     43  C   UNL     1      -5.147  12.031  17.059  0.00  0.00    +0.015 C 
ATOM     44  H   UNL     1      -5.978  11.331  17.170  0.00  0.00    +0.046 HD
ATOM     45  H   UNL     1      -5.338  12.736  16.245  0.00  0.00    +0.046 HD
ATOM     46  H   UNL     1      -5.009  12.584  17.992  0.00  0.00    +0.046 HD
ENDBRANCH  41  43
ENDBRANCH  36  37
ENDBRANCH  30  36
ENDBRANCH   1  30
TORSDOF 10
ENDMDL
MODEL 2
REMARK VINA RESULT:    -7.308      1.368      2.145
REMARK INTER + INTRA:         -11.166
REMARK INTER:                 -10.428
REMARK INTRA:                  -0.738
REMARK UNBOUND:                -0.227
REMARK  Name = 
REMARK  10 active torsions:
REMARK  status: ('A' for Active; 'I' for Inactive)
REMARK    1  A    between atoms: C_1  and  C_2
REMARK    2  A    between atoms: C_2  and  C_3
REMARK    3  A    between atoms: C_2  and  S_23
REMARK    4  A    between atoms: C_7  and  N_9
REMARK    5  A    between atoms: C_10  and  C_11
REMARK    6  A    between atoms: C_14  and  N_19
REMARK    7  A    between atoms: C_15  and  O_17
REMARK    8  A    between atoms: O_17  and  C_18
REMARK    9  A    between atoms: S_23  and  C_24
REMARK   10  A    between atoms: N_28  and  C_29
REMARK                            x       y       z     vdW  Elec       q    Type
REMARK                         _______ _______ _______ _____ _____    ______ ____
ROOT
ATOM      1  C   UNL     1      -0.388  11.000  20.249  0.00  0.00    -0.030 A 
ATOM      2  C   UNL     1      -0.680  10.866  21.610  0.00  0.00    -0.039 A 
ATOM      3  C   UNL     1      -0.074   9.841  22.317  0.00  0.00    +0.030 A 
ATOM      4  N   UNL     1       0.783   8.954  21.772  0.00  0.00    -0.240 NA
ATOM      5  C   UNL     1       1.057   9.070  20.465  0.00  0.00    +0.125 A 
ATOM      6  C   UNL     1       0.494  10.071  19.677  0.00  0.00    -0.017 A 
ATOM      7  H   UNL     1      -1.369  11.531  22.118  0.00  0.00    +0.064 HD
ATOM      8  H   UNL     1      -0.270   9.699  23.376  0.00  0.00    +0.083 HD
ATOM      9  H   UNL     1       0.734  10.134  18.619  0.00  0.00    +0.065 HD
ENDROOT
BRANCH   5  10
ATOM     10  N   UNL     1       1.931   8.179  19.836  0.00  0.00    -0.265 N 
ATOM     11  C   UNL     1       1.995   6.818  20.039  0.00  0.00    +0.268 C 
ATOM     12  O   UNL     1       1.321   6.126  20.790  0.00  0.00    -0.268 OA
ATOM     13  H   UNL     1       2.590   8.549  19.163  0.00  0.00    +0.157 HD
BRANCH  11  14
ATOM     14  C   UNL     1       3.049   6.163  19.196  0.00  0.00    +0.130 A 
ATOM     15  C   UNL     1       3.506   6.790  18.040  0.00  0.00    -0.029 A 
ATOM     16  C   UNL     1       4.485   6.152  17.285  0.00  0.00    -0.024 A 
ATOM     17  C   UNL     1       4.964   4.917  17.729  0.00  0.00    +0.187 A 
ATOM     18  C   UNL     1       4.459   4.345  18.887  0.00  0.00    +0.246 A 
ATOM     19  N   UNL     1       3.503   4.949  19.636  0.00  0.00    -0.206 NA
ATOM     20  H   UNL     1       3.104   7.754  17.736  0.00  0.00    +0.064 HD
ATOM     21  H   UNL     1       4.864   6.611  16.374  0.00  0.00    +0.064 HD
BRANCH  17  22
ATOM     22  N   UNL     1       5.986   4.243  16.971  0.00  0.00    +0.062 N 
ATOM     23  O   UNL     1       5.608   3.574  15.999  0.00  0.00    -0.126 OA
ATOM     24  O   UNL     1       7.163   4.424  17.309  0.00  0.00    -0.126 OA
ENDBRANCH  17  22
BRANCH  18  25
ATOM     25  O   UNL     1       4.906   3.098  19.266  0.00  0.00    -0.478 OA
BRANCH  25  26
ATOM     26  C   UNL     1       3.883   2.113  19.360  0.00  0.00    +0.080 C 
ATOM     27  H   UNL     1       4.264   1.191  19.815  0.00  0.00    +0.066 HD
ATOM     28  H   UNL     1       3.435   1.911  18.381  0.00  0.00    +0.066 HD
ATOM     29  H   UNL     1       3.098   2.507  20.012  0.00  0.00    +0.066 HD
ENDBRANCH  25  26
ENDBRANCH  18  25
ENDBRANCH  11  14
ENDBRANCH   5  10
BRANCH   1  30
ATOM     30  C   UNL     1      -1.011  12.081  19.381  0.00  0.00    +0.035 C 
ATOM     31  H   UNL     1      -0.543  12.020  18.391  0.00  0.00    +0.046 HD
BRANCH  30  32
ATOM     32  C   UNL     1      -0.766  13.492  19.923  0.00  0.00    -0.049 C 
ATOM     33  H   UNL     1      -1.282  13.629  20.881  0.00  0.00    +0.024 HD
ATOM     34  H   UNL     1      -1.127  14.273  19.244  0.00  0.00    +0.024 HD
ATOM     35  H   UNL     1       0.298  13.673  20.101  0.00  0.00    +0.024 HD
ENDBRANCH  30  32
BRANCH  30  36
ATOM     36  S   UNL     1      -2.811  11.767  19.200  0.00  0.00    -0.078 S 
BRANCH  36  37
ATOM     37  C   UNL     1      -2.884  11.122  17.600  0.00  0.00    +0.192 A 
ATOM     38  N   UNL     1      -1.981  10.378  17.006  0.00  0.00    -0.123 NA
ATOM     39  N   UNL     1      -2.446  10.079  15.745  0.00  0.00    -0.137 NA
ATOM     40  C   UNL     1      -3.622  10.650  15.612  0.00  0.00    +0.120 A 
ATOM     41  N   UNL     1      -3.939  11.317  16.757  0.00  0.00    -0.312 N 
ATOM     42  H   UNL     1      -4.255  10.608  14.736  0.00  0.00    +0.105 HD
BRANCH  41  43
ATOM     43  C   UNL     1      -5.146  12.063  16.994  0.00  0.00    +0.015 C 
ATOM     44  H   UNL     1      -4.897  12.964  17.559  0.00  0.00    +0.046 HD
ATOM     45  H   UNL     1      -5.845  11.434  17.552  0.00  0.00    +0.046 HD
ATOM     46  H   UNL     1      -5.595  12.345  16.038  0.00  0.00    +0.046 HD
ENDBRANCH  41  43
ENDBRANCH  36  37
ENDBRANCH  30  36
ENDBRANCH   1  30
TORSDOF 10
ENDMDL
MODEL 3
REMARK VINA RESULT:    -7.280      0.991      1.845
REMARK INTER + INTRA:         -11.124
REMARK INTER:                 -10.706
REMARK INTRA:                  -0.418
REMARK UNBOUND:                -0.227
REMARK  Name = 
REMARK  10 active torsions:
REMARK  status: ('A' for Active; 'I' for Inactive)
REMARK    1  A    between atoms: C_1  and  C_2
REMARK    2  A    between atoms: C_2  and  C_3
REMARK    3  A    between atoms: C_2  and  S_23
REMARK    4  A    between atoms: C_7  and  N_9
REMARK    5  A    between atoms: C_10  and  C_11
REMARK    6  A    between atoms: C_14  and  N_19
REMARK    7  A    between atoms: C_15  and  O_17
REMARK    8  A    between atoms: O_17  and  C_18
REMARK    9  A    between atoms: S_23  and  C_24
REMARK   10  A    between atoms: N_28  and  C_29
REMARK                            x       y       z     vdW  Elec       q    Type
REMARK                         _______ _______ _______ _____ _____    ______ ____
ROOT
ATOM      1  C   UNL     1       0.002  10.742  20.261  0.00  0.00    -0.030 A 
ATOM      2  C   UNL     1      -0.275  11.042  21.597  0.00  0.00    -0.039 A 
ATOM      3  C   UNL     1       0.092  10.127  22.569  0.00  0.00    +0.030 A 
ATOM      4  N   UNL     1       0.702   8.953  22.307  0.00  0.00    -0.240 NA
ATOM      5  C   UNL     1       0.959   8.653  21.025  0.00  0.00    +0.125 A 
ATOM      6  C   UNL     1       0.625   9.515  19.983  0.00  0.00    -0.017 A 
ATOM      7  H   UNL     1      -0.774  11.958  21.889  0.00  0.00    +0.064 HD
ATOM      8  H   UNL     1      -0.102  10.318  23.621  0.00  0.00    +0.083 HD
ATOM      9  H   UNL     1       0.843   9.240  18.955  0.00  0.00    +0.065 HD
ENDROOT
BRANCH   5  10
ATOM     10  N   UNL     1       1.582   7.450  20.683  0.00  0.00    -0.265 N 
ATOM     11  C   UNL     1       2.338   7.214  19.556  0.00  0.00    +0.268 C 
ATOM     12  O   UNL     1       2.614   7.986  18.647  0.00  0.00    -0.268 OA
ATOM     13  H   UNL     1       1.479   6.662  21.310  0.00  0.00    +0.157 HD
BRANCH  11  14
ATOM     14  C   UNL     1       2.861   5.809  19.502  0.00  0.00    +0.130 A 
ATOM     15  C   UNL     1       4.124   5.555  18.974  0.00  0.00    -0.029 A 
ATOM     16  C   UNL     1       4.575   4.239  18.942  0.00  0.00    -0.024 A 
ATOM     17  C   UNL     1       3.738   3.240  19.446  0.00  0.00    +0.187 A 
ATOM     18  C   UNL     1       2.487   3.563  19.951  0.00  0.00    +0.246 A 
ATOM     19  N   UNL     1       2.027   4.838  19.989  0.00  0.00    -0.206 NA
ATOM     20  H   UNL     1       4.740   6.367  18.596  0.00  0.00    +0.064 HD
ATOM     21  H   UNL     1       5.555   4.003  18.534  0.00  0.00    +0.064 HD
BRANCH  17  22
ATOM     22  N   UNL     1       4.186   1.872  19.434  0.00  0.00    +0.062 N 
ATOM     23  O   UNL     1       3.850   1.184  18.460  0.00  0.00    -0.126 OA
ATOM     24  O   UNL     1       4.917   1.501  20.362  0.00  0.00    -0.126 OA
ENDBRANCH  17  22
BRANCH  18  25
ATOM     25  O   UNL     1       1.660   2.549  20.383  0.00  0.00    -0.478 OA
BRANCH  25  26
ATOM     26  C   UNL     1       1.444   2.530  21.790  0.00  0.00    +0.080 C 
ATOM     27  H   UNL     1       2.282   2.991  22.324  0.00  0.00    +0.066 HD
ATOM     28  H   UNL     1       1.262   1.512  22.150  0.00  0.00    +0.066 HD
ATOM     29  H   UNL     1       0.548   3.123  21.999  0.00  0.00    +0.066 HD
ENDBRANCH  25  26
ENDBRANCH  18  25
ENDBRANCH  11  14
ENDBRANCH   5  10
BRANCH   1  30
ATOM     30  C   UNL     1      -0.373  11.671  19.118  0.00  0.00    +0.035 C 
ATOM     31  H   UNL     1      -0.054  11.193  18.184  0.00  0.00    +0.046 HD
BRANCH  30  32
ATOM     32  C   UNL     1       0.326  13.031  19.205  0.00  0.00    -0.049 C 
ATOM     33  H   UNL     1       1.085  13.121  18.419  0.00  0.00    +0.024 HD
ATOM     34  H   UNL     1       0.831  13.184  20.165  0.00  0.00    +0.024 HD
ATOM     35  H   UNL     1      -0.381  13.854  19.067  0.00  0.00    +0.024 HD
ENDBRANCH  30  32
BRANCH  30  36
ATOM     36  S   UNL     1      -2.195  11.890  19.072  0.00  0.00    -0.078 S 
BRANCH  36  37
ATOM     37  C   UNL     1      -2.603  11.050  17.620  0.00  0.00    +0.192 A 
ATOM     38  N   UNL     1      -1.834  10.234  16.937  0.00  0.00    -0.123 NA
ATOM     39  N   UNL     1      -2.558   9.782  15.856  0.00  0.00    -0.137 NA
ATOM     40  C   UNL     1      -3.748  10.336  15.918  0.00  0.00    +0.120 A 
ATOM     41  N   UNL     1      -3.822  11.142  17.014  0.00  0.00    -0.312 N 
ATOM     42  H   UNL     1      -4.557  10.187  15.215  0.00  0.00    +0.105 HD
BRANCH  41  43
ATOM     43  C   UNL     1      -4.965  11.915  17.419  0.00  0.00    +0.015 C 
ATOM     44  H   UNL     1      -4.707  12.976  17.370  0.00  0.00    +0.046 HD
ATOM     45  H   UNL     1      -5.242  11.629  18.437  0.00  0.00    +0.046 HD
ATOM     46  H   UNL     1      -5.801  11.712  16.745  0.00  0.00    +0.046 HD
ENDBRANCH  41  43
ENDBRANCH  36  37
ENDBRANCH  30  36
ENDBRANCH   1  30
TORSDOF 10
ENDMDL
MODEL 4
REMARK VINA RESULT:    -7.081      2.040      2.576
REMARK INTER + INTRA:         -10.827
REMARK INTER:                 -10.275
REMARK INTRA:                  -0.552
REMARK UNBOUND:                -0.227
REMARK  Name = 
REMARK  10 active torsions:
REMARK  status: ('A' for Active; 'I' for Inactive)
REMARK    1  A    between atoms: C_1  and  C_2
REMARK    2  A    between atoms: C_2  and  C_3
REMARK    3  A    between atoms: C_2  and  S_23
REMARK    4  A    between atoms: C_7  and  N_9
REMARK    5  A    between atoms: C_10  and  C_11
REMARK    6  A    between atoms: C_14  and  N_19
REMARK    7  A    between atoms: C_15  and  O_17
REMARK    8  A    between atoms: O_17  and  C_18
REMARK    9  A    between atoms: S_23  and  C_24
REMARK   10  A    between atoms: N_28  and  C_29
REMARK                            x       y       z     vdW  Elec       q    Type
REMARK                         _______ _______ _______ _____ _____    ______ ____
ROOT
ATOM      1  C   UNL     1       0.183  10.520  20.034  0.00  0.00    -0.030 A 
ATOM      2  C   UNL     1      -0.161  10.181  21.345  0.00  0.00    -0.039 A 
ATOM      3  C   UNL     1       0.348   9.009  21.879  0.00  0.00    +0.030 A 
ATOM      4  N   UNL     1       1.157   8.164  21.208  0.00  0.00    -0.240 NA
ATOM      5  C   UNL     1       1.481   8.478  19.945  0.00  0.00    +0.125 A 
ATOM      6  C   UNL     1       1.014   9.637  19.329  0.00  0.00    -0.017 A 
ATOM      7  H   UNL     1      -0.817  10.799  21.946  0.00  0.00    +0.064 HD
ATOM      8  H   UNL     1       0.108   8.705  22.895  0.00  0.00    +0.083 HD
ATOM      9  H   UNL     1       1.292   9.859  18.302  0.00  0.00    +0.065 HD
ENDROOT
BRANCH   5  10
ATOM     10  N   UNL     1       2.309   7.643  19.191  0.00  0.00    -0.265 N 
ATOM     11  C   UNL     1       2.380   6.269  19.276  0.00  0.00    +0.268 C 
ATOM     12  O   UNL     1       1.751   5.517  20.009  0.00  0.00    -0.268 OA
ATOM     13  H   UNL     1       2.925   8.068  18.510  0.00  0.00    +0.157 HD
BRANCH  11  14
ATOM     14  C   UNL     1       3.376   5.688  18.317  0.00  0.00    +0.130 A 
ATOM     15  C   UNL     1       3.295   4.344  17.958  0.00  0.00    -0.029 A 
ATOM     16  C   UNL     1       4.236   3.841  17.065  0.00  0.00    -0.024 A 
ATOM     17  C   UNL     1       5.211   4.711  16.570  0.00  0.00    +0.187 A 
ATOM     18  C   UNL     1       5.238   6.038  16.976  0.00  0.00    +0.246 A 
ATOM     19  N   UNL     1       4.332   6.548  17.847  0.00  0.00    -0.206 NA
ATOM     20  H   UNL     1       2.517   3.706  18.369  0.00  0.00    +0.064 HD
ATOM     21  H   UNL     1       4.206   2.796  16.764  0.00  0.00    +0.064 HD
BRANCH  17  22
ATOM     22  N   UNL     1       6.189   4.217  15.636  0.00  0.00    +0.062 N 
ATOM     23  O   UNL     1       7.329   4.019  16.077  0.00  0.00    -0.126 OA
ATOM     24  O   UNL     1       5.808   3.975  14.483  0.00  0.00    -0.126 OA
ENDBRANCH  17  22
BRANCH  18  25
ATOM     25  O   UNL     1       6.248   6.856  16.518  0.00  0.00    -0.478 OA
BRANCH  25  26
ATOM     26  C   UNL     1       7.212   7.203  17.506  0.00  0.00    +0.080 C 
ATOM     27  H   UNL     1       7.777   6.323  17.833  0.00  0.00    +0.066 HD
ATOM     28  H   UNL     1       6.743   7.707  18.358  0.00  0.00    +0.066 HD
ATOM     29  H   UNL     1       7.919   7.904  17.052  0.00  0.00    +0.066 HD
ENDBRANCH  25  26
ENDBRANCH  18  25
ENDBRANCH  11  14
ENDBRANCH   5  10
BRANCH   1  30
ATOM     30  C   UNL     1      -0.334  11.775  19.350  0.00  0.00    +0.035 C 
ATOM     31  H   UNL     1      -0.110  11.685  18.281  0.00  0.00    +0.046 HD
BRANCH  30  32
ATOM     32  C   UNL     1       0.343  13.050  19.861  0.00  0.00    -0.049 C 
ATOM     33  H   UNL     1      -0.006  13.290  20.873  0.00  0.00    +0.024 HD
ATOM     34  H   UNL     1       0.133  13.921  19.229  0.00  0.00    +0.024 HD
ATOM     35  H   UNL     1       1.429  12.933  19.913  0.00  0.00    +0.024 HD
ENDBRANCH  30  32
BRANCH  30  36
ATOM     36  S   UNL     1      -2.155  11.888  19.560  0.00  0.00    -0.078 S 
BRANCH  36  37
ATOM     37  C   UNL     1      -2.705  11.487  17.974  0.00  0.00    +0.192 A 
ATOM     38  N   UNL     1      -1.978  11.053  16.970  0.00  0.00    -0.123 NA
ATOM     39  N   UNL     1      -2.819  10.851  15.899  0.00  0.00    -0.137 NA
ATOM     40  C   UNL     1      -4.034  11.165  16.286  0.00  0.00    +0.120 A 
ATOM     41  N   UNL     1      -4.011  11.570  17.587  0.00  0.00    -0.312 N 
ATOM     42  H   UNL     1      -4.928  11.117  15.678  0.00  0.00    +0.105 HD
BRANCH  41  43
ATOM     43  C   UNL     1      -5.147  11.991  18.361  0.00  0.00    +0.015 C 
ATOM     44  H   UNL     1      -5.897  12.410  17.686  0.00  0.00    +0.046 HD
ATOM     45  H   UNL     1      -4.819  12.738  19.090  0.00  0.00    +0.046 HD
ATOM     46  H   UNL     1      -5.570  11.132  18.887  0.00  0.00    +0.046 HD
ENDBRANCH  41  43
ENDBRANCH  36  37
ENDBRANCH  30  36
ENDBRANCH   1  30
TORSDOF 10
ENDMDL
MODEL 5
REMARK VINA RESULT:    -6.983      2.670      3.829
REMARK INTER + INTRA:         -10.679
REMARK INTER:                 -10.019
REMARK INTRA:                  -0.661
REMARK UNBOUND:                -0.227
REMARK  Name = 
REMARK  10 active torsions:
REMARK  status: ('A' for Active; 'I' for Inactive)
REMARK    1  A    between atoms: C_1  and  C_2
REMARK    2  A    between atoms: C_2  and  C_3
REMARK    3  A    between atoms: C_2  and  S_23
REMARK    4  A    between atoms: C_7  and  N_9
REMARK    5  A    between atoms: C_10  and  C_11
REMARK    6  A    between atoms: C_14  and  N_19
REMARK    7  A    between atoms: C_15  and  O_17
REMARK    8  A    between atoms: O_17  and  C_18
REMARK    9  A    between atoms: S_23  and  C_24
REMARK   10  A    between atoms: N_28  and  C_29
REMARK                            x       y       z     vdW  Elec       q    Type
REMARK                         _______ _______ _______ _____ _____    ______ ____
ROOT
ATOM      1  C   UNL     1      -0.448  10.419  20.801  0.00  0.00    -0.030 A 
ATOM      2  C   UNL     1      -0.344  10.260  22.186  0.00  0.00    -0.039 A 
ATOM      3  C   UNL     1       0.572   9.345  22.678  0.00  0.00    +0.030 A 
ATOM      4  N   UNL     1       1.375   8.590  21.902  0.00  0.00    -0.240 NA
ATOM      5  C   UNL     1       1.272   8.730  20.572  0.00  0.00    +0.125 A 
ATOM      6  C   UNL     1       0.378   9.626  19.990  0.00  0.00    -0.017 A 
ATOM      7  H   UNL     1      -0.964  10.819  22.877  0.00  0.00    +0.064 HD
ATOM      8  H   UNL     1       0.687   9.188  23.748  0.00  0.00    +0.083 HD
ATOM      9  H   UNL     1       0.316   9.711  18.908  0.00  0.00    +0.065 HD
ENDROOT
BRANCH   5  10
ATOM     10  N   UNL     1       2.069   7.973  19.710  0.00  0.00    -0.265 N 
ATOM     11  C   UNL     1       2.236   6.605  19.742  0.00  0.00    +0.268 C 
ATOM     12  O   UNL     1       1.737   5.794  20.510  0.00  0.00    -0.268 OA
ATOM     13  H   UNL     1       2.582   8.456  18.984  0.00  0.00    +0.157 HD
BRANCH  11  14
ATOM     14  C   UNL     1       3.162   6.117  18.667  0.00  0.00    +0.130 A 
ATOM     15  C   UNL     1       3.787   7.028  17.819  0.00  0.00    -0.029 A 
ATOM     16  C   UNL     1       4.639   6.537  16.835  0.00  0.00    -0.024 A 
ATOM     17  C   UNL     1       4.829   5.155  16.752  0.00  0.00    +0.187 A 
ATOM     18  C   UNL     1       4.169   4.304  17.626  0.00  0.00    +0.246 A 
ATOM     19  N   UNL     1       3.332   4.761  18.590  0.00  0.00    -0.206 NA
ATOM     20  H   UNL     1       3.610   8.095  17.924  0.00  0.00    +0.064 HD
ATOM     21  H   UNL     1       5.143   7.218  16.153  0.00  0.00    +0.064 HD
BRANCH  17  22
ATOM     22  N   UNL     1       5.715   4.624  15.750  0.00  0.00    +0.062 N 
ATOM     23  O   UNL     1       6.885   4.410  16.097  0.00  0.00    -0.126 OA
ATOM     24  O   UNL     1       5.234   4.367  14.639  0.00  0.00    -0.126 OA
ENDBRANCH  17  22
BRANCH  18  25
ATOM     25  O   UNL     1       4.328   2.943  17.480  0.00  0.00    -0.478 OA
BRANCH  25  26
ATOM     26  C   UNL     1       3.223   2.171  17.939  0.00  0.00    +0.080 C 
ATOM     27  H   UNL     1       3.196   2.135  19.034  0.00  0.00    +0.066 HD
ATOM     28  H   UNL     1       3.239   1.162  17.514  0.00  0.00    +0.066 HD
ATOM     29  H   UNL     1       2.307   2.663  17.599  0.00  0.00    +0.066 HD
ENDBRANCH  25  26
ENDBRANCH  18  25
ENDBRANCH  11  14
ENDBRANCH   5  10
BRANCH   1  30
ATOM     30  C   UNL     1      -1.431  11.384  20.159  0.00  0.00    +0.035 C 
ATOM     31  H   UNL     1      -2.435  10.957  20.272  0.00  0.00    +0.046 HD
BRANCH  30  32
ATOM     32  C   UNL     1      -1.177  11.580  18.661  0.00  0.00    -0.049 C 
ATOM     33  H   UNL     1      -0.129  11.370  18.420  0.00  0.00    +0.024 HD
ATOM     34  H   UNL     1      -1.390  12.603  18.329  0.00  0.00    +0.024 HD
ATOM     35  H   UNL     1      -1.790  10.902  18.060  0.00  0.00    +0.024 HD
ENDBRANCH  30  32
BRANCH  30  36
ATOM     36  S   UNL     1      -1.377  12.996  21.035  0.00  0.00    -0.078 S 
BRANCH  36  37
ATOM     37  C   UNL     1      -2.729  12.851  22.098  0.00  0.00    +0.192 A 
ATOM     38  N   UNL     1      -2.699  12.590  23.384  0.00  0.00    -0.123 NA
ATOM     39  N   UNL     1      -3.998  12.574  23.841  0.00  0.00    -0.137 NA
ATOM     40  C   UNL     1      -4.779  12.830  22.816  0.00  0.00    +0.120 A 
ATOM     41  N   UNL     1      -4.023  13.013  21.697  0.00  0.00    -0.312 N 
ATOM     42  H   UNL     1      -5.859  12.890  22.838  0.00  0.00    +0.105 HD
BRANCH  41  43
ATOM     43  C   UNL     1      -4.519  13.313  20.381  0.00  0.00    +0.015 C 
ATOM     44  H   UNL     1      -3.762  13.032  19.647  0.00  0.00    +0.046 HD
ATOM     45  H   UNL     1      -4.740  14.383  20.323  0.00  0.00    +0.046 HD
ATOM     46  H   UNL     1      -5.434  12.744  20.198  0.00  0.00    +0.046 HD
ENDBRANCH  41  43
ENDBRANCH  36  37
ENDBRANCH  30  36
ENDBRANCH   1  30
TORSDOF 10
ENDMDL
MODEL 6
REMARK VINA RESULT:    -6.958      3.745      8.812
REMARK INTER + INTRA:         -10.643
REMARK INTER:                  -9.694
REMARK INTRA:                  -0.949
REMARK UNBOUND:                -0.227
REMARK  Name = 
REMARK  10 active torsions:
REMARK  status: ('A' for Active; 'I' for Inactive)
REMARK    1  A    between atoms: C_1  and  C_2
REMARK    2  A    between atoms: C_2  and  C_3
REMARK    3  A    between atoms: C_2  and  S_23
REMARK    4  A    between atoms: C_7  and  N_9
REMARK    5  A    between atoms: C_10  and  C_11
REMARK    6  A    between atoms: C_14  and  N_19
REMARK    7  A    between atoms: C_15  and  O_17
REMARK    8  A    between atoms: O_17  and  C_18
REMARK    9  A    between atoms: S_23  and  C_24
REMARK   10  A    between atoms: N_28  and  C_29
REMARK                            x       y       z     vdW  Elec       q    Type
REMARK                         _______ _______ _______ _____ _____    ______ ____
ROOT
ATOM      1  C   UNL     1       5.465   4.850  18.800  0.00  0.00    -0.030 A 
ATOM      2  C   UNL     1       4.844   3.662  18.405  0.00  0.00    -0.039 A 
ATOM      3  C   UNL     1       3.473   3.549  18.562  0.00  0.00    +0.030 A 
ATOM      4  N   UNL     1       2.692   4.518  19.081  0.00  0.00    -0.240 NA
ATOM      5  C   UNL     1       3.284   5.656  19.474  0.00  0.00    +0.125 A 
ATOM      6  C   UNL     1       4.657   5.855  19.352  0.00  0.00    -0.017 A 
ATOM      7  H   UNL     1       5.404   2.830  17.991  0.00  0.00    +0.064 HD
ATOM      8  H   UNL     1       2.948   2.644  18.268  0.00  0.00    +0.083 HD
ATOM      9  H   UNL     1       5.105   6.788  19.685  0.00  0.00    +0.065 HD
ENDROOT
BRANCH   5  10
ATOM     10  N   UNL     1       2.534   6.698  20.027  0.00  0.00    -0.265 N 
ATOM     11  C   UNL     1       2.053   7.802  19.358  0.00  0.00    +0.268 C 
ATOM     12  O   UNL     1       2.177   8.091  18.175  0.00  0.00    -0.268 OA
ATOM     13  H   UNL     1       2.313   6.658  21.014  0.00  0.00    +0.157 HD
BRANCH  11  14
ATOM     14  C   UNL     1       1.284   8.725  20.256  0.00  0.00    +0.130 A 
ATOM     15  C   UNL     1       1.346   8.563  21.638  0.00  0.00    -0.029 A 
ATOM     16  C   UNL     1       0.621   9.440  22.439  0.00  0.00    -0.024 A 
ATOM     17  C   UNL     1      -0.129  10.441  21.816  0.00  0.00    +0.187 A 
ATOM     18  C   UNL     1      -0.152  10.540  20.432  0.00  0.00    +0.246 A 
ATOM     19  N   UNL     1       0.546   9.695  19.633  0.00  0.00    -0.206 NA
ATOM     20  H   UNL     1       1.946   7.770  22.078  0.00  0.00    +0.064 HD
ATOM     21  H   UNL     1       0.643   9.343  23.522  0.00  0.00    +0.064 HD
BRANCH  17  22
ATOM     22  N   UNL     1      -0.879  11.367  22.623  0.00  0.00    +0.062 N 
ATOM     23  O   UNL     1      -1.769  10.888  23.339  0.00  0.00    -0.126 OA
ATOM     24  O   UNL     1      -0.545  12.558  22.586  0.00  0.00    -0.126 OA
ENDBRANCH  17  22
BRANCH  18  25
ATOM     25  O   UNL     1      -0.949  11.498  19.844  0.00  0.00    -0.478 OA
BRANCH  25  26
ATOM     26  C   UNL     1      -1.416  11.154  18.545  0.00  0.00    +0.080 C 
ATOM     27  H   UNL     1      -2.510  11.087  18.524  0.00  0.00    +0.066 HD
ATOM     28  H   UNL     1      -0.961  10.222  18.193  0.00  0.00    +0.066 HD
ATOM     29  H   UNL     1      -1.117  11.952  17.859  0.00  0.00    +0.066 HD
ENDBRANCH  25  26
ENDBRANCH  18  25
ENDBRANCH  11  14
ENDBRANCH   5  10
BRANCH   1  30
ATOM     30  C   UNL     1       6.965   5.068  18.684  0.00  0.00    +0.035 C 
ATOM     31  H   UNL     1       7.422   4.100  18.447  0.00  0.00    +0.046 HD
BRANCH  30  32
ATOM     32  C   UNL     1       7.594   5.572  19.986  0.00  0.00    -0.049 C 
ATOM     33  H   UNL     1       8.595   5.975  19.796  0.00  0.00    +0.024 HD
ATOM     34  H   UNL     1       7.697   4.781  20.738  0.00  0.00    +0.024 HD
ATOM     35  H   UNL     1       7.001   6.377  20.431  0.00  0.00    +0.024 HD
ENDBRANCH  30  32
BRANCH  30  36
ATOM     36  S   UNL     1       7.314   6.234  17.310  0.00  0.00    -0.078 S 
BRANCH  36  37
ATOM     37  C   UNL     1       6.683   5.367  15.958  0.00  0.00    +0.192 A 
ATOM     38  N   UNL     1       7.187   4.288  15.405  0.00  0.00    -0.123 NA
ATOM     39  N   UNL     1       6.363   3.925  14.363  0.00  0.00    -0.137 NA
ATOM     40  C   UNL     1       5.379   4.795  14.317  0.00  0.00    +0.120 A 
ATOM     41  N   UNL     1       5.539   5.721  15.304  0.00  0.00    -0.312 N 
ATOM     42  H   UNL     1       4.560   4.793  13.610  0.00  0.00    +0.105 HD
BRANCH  41  43
ATOM     43  C   UNL     1       4.664   6.830  15.572  0.00  0.00    +0.015 C 
ATOM     44  H   UNL     1       4.068   7.032  14.679  0.00  0.00    +0.046 HD
ATOM     45  H   UNL     1       5.269   7.700  15.841  0.00  0.00    +0.046 HD
ATOM     46  H   UNL     1       4.000   6.579  16.403  0.00  0.00    +0.046 HD
ENDBRANCH  41  43
ENDBRANCH  36  37
ENDBRANCH  30  36
ENDBRANCH   1  30
TORSDOF 10
ENDMDL
MODEL 7
REMARK VINA RESULT:    -6.940      2.772      3.871
REMARK INTER + INTRA:         -10.615
REMARK INTER:                  -9.854
REMARK INTRA:                  -0.760
REMARK UNBOUND:                -0.227
REMARK  Name = 
REMARK  10 active torsions:
REMARK  status: ('A' for Active; 'I' for Inactive)
REMARK    1  A    between atoms: C_1  and  C_2
REMARK    2  A    between atoms: C_2  and  C_3
REMARK    3  A    between atoms: C_2  and  S_23
REMARK    4  A    between atoms: C_7  and  N_9
REMARK    5  A    between atoms: C_10  and  C_11
REMARK    6  A    between atoms: C_14  and  N_19
REMARK    7  A    between atoms: C_15  and  O_17
REMARK    8  A    between atoms: O_17  and  C_18
REMARK    9  A    between atoms: S_23  and  C_24
REMARK   10  A    between atoms: N_28  and  C_29
REMARK                            x       y       z     vdW  Elec       q    Type
REMARK                         _______ _______ _______ _____ _____    ______ ____
ROOT
ATOM      1  C   UNL     1      -0.378  10.450  20.755  0.00  0.00    -0.030 A 
ATOM      2  C   UNL     1      -0.349  10.242  22.137  0.00  0.00    -0.039 A 
ATOM      3  C   UNL     1       0.493   9.264  22.640  0.00  0.00    +0.030 A 
ATOM      4  N   UNL     1       1.290   8.491  21.875  0.00  0.00    -0.240 NA
ATOM      5  C   UNL     1       1.257   8.677  20.548  0.00  0.00    +0.125 A 
ATOM      6  C   UNL     1       0.441   9.638  19.956  0.00  0.00    -0.017 A 
ATOM      7  H   UNL     1      -0.969  10.814  22.818  0.00  0.00    +0.064 HD
ATOM      8  H   UNL     1       0.549   9.068  23.707  0.00  0.00    +0.083 HD
ATOM      9  H   UNL     1       0.435   9.760  18.876  0.00  0.00    +0.065 HD
ENDROOT
BRANCH   5  10
ATOM     10  N   UNL     1       2.052   7.904  19.697  0.00  0.00    -0.265 N 
ATOM     11  C   UNL     1       2.217   6.537  19.753  0.00  0.00    +0.268 C 
ATOM     12  O   UNL     1       1.717   5.739  20.534  0.00  0.00    -0.268 OA
ATOM     13  H   UNL     1       2.566   8.374  18.963  0.00  0.00    +0.157 HD
BRANCH  11  14
ATOM     14  C   UNL     1       3.141   6.029  18.685  0.00  0.00    +0.130 A 
ATOM     15  C   UNL     1       3.820   6.928  17.865  0.00  0.00    -0.029 A 
ATOM     16  C   UNL     1       4.669   6.419  16.888  0.00  0.00    -0.024 A 
ATOM     17  C   UNL     1       4.801   5.032  16.782  0.00  0.00    +0.187 A 
ATOM     18  C   UNL     1       4.089   4.193  17.628  0.00  0.00    +0.246 A 
ATOM     19  N   UNL     1       3.255   4.668  18.585  0.00  0.00    -0.206 NA
ATOM     20  H   UNL     1       3.686   8.000  17.988  0.00  0.00    +0.064 HD
ATOM     21  H   UNL     1       5.213   7.090  16.227  0.00  0.00    +0.064 HD
BRANCH  17  22
ATOM     22  N   UNL     1       5.682   4.481  15.786  0.00  0.00    +0.062 N 
ATOM     23  O   UNL     1       6.833   4.204  16.151  0.00  0.00    -0.126 OA
ATOM     24  O   UNL     1       5.213   4.274  14.659  0.00  0.00    -0.126 OA
ENDBRANCH  17  22
BRANCH  18  25
ATOM     25  O   UNL     1       4.193   2.830  17.458  0.00  0.00    -0.478 OA
BRANCH  25  26
ATOM     26  C   UNL     1       3.058   2.096  17.905  0.00  0.00    +0.080 C 
ATOM     27  H   UNL     1       3.261   1.599  18.860  0.00  0.00    +0.066 HD
ATOM     28  H   UNL     1       2.728   1.375  17.150  0.00  0.00    +0.066 HD
ATOM     29  H   UNL     1       2.242   2.808  18.066  0.00  0.00    +0.066 HD
ENDBRANCH  25  26
ENDBRANCH  18  25
ENDBRANCH  11  14
ENDBRANCH   5  10
BRANCH   1  30
ATOM     30  C   UNL     1      -1.277  11.487  20.102  0.00  0.00    +0.035 C 
ATOM     31  H   UNL     1      -2.316  11.192  20.295  0.00  0.00    +0.046 HD
BRANCH  30  32
ATOM     32  C   UNL     1      -1.091  11.561  18.583  0.00  0.00    -0.049 C 
ATOM     33  H   UNL     1      -0.029  11.664  18.333  0.00  0.00    +0.024 HD
ATOM     34  H   UNL     1      -1.616  12.413  18.136  0.00  0.00    +0.024 HD
ATOM     35  H   UNL     1      -1.453  10.654  18.091  0.00  0.00    +0.024 HD
ENDBRANCH  30  32
BRANCH  30  36
ATOM     36  S   UNL     1      -0.982  13.130  20.865  0.00  0.00    -0.078 S 
BRANCH  36  37
ATOM     37  C   UNL     1       0.600  13.498  20.279  0.00  0.00    +0.192 A 
ATOM     38  N   UNL     1       1.731  12.948  20.657  0.00  0.00    -0.123 NA
ATOM     39  N   UNL     1       2.744  13.531  19.929  0.00  0.00    -0.137 NA
ATOM     40  C   UNL     1       2.197  14.417  19.128  0.00  0.00    +0.120 A 
ATOM     41  N   UNL     1       0.847  14.429  19.313  0.00  0.00    -0.312 N 
ATOM     42  H   UNL     1       2.722  15.048  18.423  0.00  0.00    +0.105 HD
BRANCH  41  43
ATOM     43  C   UNL     1      -0.093  15.265  18.617  0.00  0.00    +0.015 C 
ATOM     44  H   UNL     1       0.196  15.319  17.565  0.00  0.00    +0.046 HD
ATOM     45  H   UNL     1      -0.087  16.259  19.074  0.00  0.00    +0.046 HD
ATOM     46  H   UNL     1      -1.095  14.835  18.697  0.00  0.00    +0.046 HD
ENDBRANCH  41  43
ENDBRANCH  36  37
ENDBRANCH  30  36
ENDBRANCH   1  30
TORSDOF 10
ENDMDL
MODEL 8
REMARK VINA RESULT:    -6.908      4.156      9.489
REMARK INTER + INTRA:         -10.568
REMARK INTER:                  -9.757
REMARK INTRA:                  -0.811
REMARK UNBOUND:                -0.227
REMARK  Name = 
REMARK  10 active torsions:
REMARK  status: ('A' for Active; 'I' for Inactive)
REMARK    1  A    between atoms: C_1  and  C_2
REMARK    2  A    between atoms: C_2  and  C_3
REMARK    3  A    between atoms: C_2  and  S_23
REMARK    4  A    between atoms: C_7  and  N_9
REMARK    5  A    between atoms: C_10  and  C_11
REMARK    6  A    between atoms: C_14  and  N_19
REMARK    7  A    between atoms: C_15  and  O_17
REMARK    8  A    between atoms: O_17  and  C_18
REMARK    9  A    between atoms: S_23  and  C_24
REMARK   10  A    between atoms: N_28  and  C_29
REMARK                            x       y       z     vdW  Elec       q    Type
REMARK                         _______ _______ _______ _____ _____    ______ ____
ROOT
ATOM      1  C   UNL     1       5.020   4.453  17.208  0.00  0.00    -0.030 A 
ATOM      2  C   UNL     1       4.225   3.304  17.176  0.00  0.00    -0.039 A 
ATOM      3  C   UNL     1       2.887   3.418  17.514  0.00  0.00    +0.030 A 
ATOM      4  N   UNL     1       2.298   4.574  17.879  0.00  0.00    -0.240 NA
ATOM      5  C   UNL     1       3.058   5.678  17.924  0.00  0.00    +0.125 A 
ATOM      6  C   UNL     1       4.413   5.656  17.600  0.00  0.00    -0.017 A 
ATOM      7  H   UNL     1       4.627   2.334  16.906  0.00  0.00    +0.064 HD
ATOM      8  H   UNL     1       2.231   2.552  17.502  0.00  0.00    +0.083 HD
ATOM      9  H   UNL     1       5.002   6.567  17.652  0.00  0.00    +0.065 HD
ENDROOT
BRANCH   5  10
ATOM     10  N   UNL     1       2.513   6.908  18.302  0.00  0.00    -0.265 N 
ATOM     11  C   UNL     1       2.052   7.246  19.556  0.00  0.00    +0.268 C 
ATOM     12  O   UNL     1       2.025   6.560  20.569  0.00  0.00    -0.268 OA
ATOM     13  H   UNL     1       2.439   7.634  17.602  0.00  0.00    +0.157 HD
BRANCH  11  14
ATOM     14  C   UNL     1       1.532   8.652  19.614  0.00  0.00    +0.130 A 
ATOM     15  C   UNL     1       1.624   9.475  18.495  0.00  0.00    -0.029 A 
ATOM     16  C   UNL     1       1.130  10.773  18.587  0.00  0.00    -0.024 A 
ATOM     17  C   UNL     1       0.561  11.181  19.796  0.00  0.00    +0.187 A 
ATOM     18  C   UNL     1       0.508  10.310  20.875  0.00  0.00    +0.246 A 
ATOM     19  N   UNL     1       0.986   9.042  20.807  0.00  0.00    -0.206 NA
ATOM     20  H   UNL     1       2.073   9.112  17.574  0.00  0.00    +0.064 HD
ATOM     21  H   UNL     1       1.187  11.446  17.734  0.00  0.00    +0.064 HD
BRANCH  17  22
ATOM     22  N   UNL     1       0.032  12.515  19.913  0.00  0.00    +0.062 N 
ATOM     23  O   UNL     1       0.829  13.402  20.246  0.00  0.00    -0.126 OA
ATOM     24  O   UNL     1      -1.158  12.686  19.619  0.00  0.00    -0.126 OA
ENDBRANCH  17  22
BRANCH  18  25
ATOM     25  O   UNL     1      -0.002  10.761  22.073  0.00  0.00    -0.478 OA
BRANCH  25  26
ATOM     26  C   UNL     1      -0.184   9.743  23.051  0.00  0.00    +0.080 C 
ATOM     27  H   UNL     1      -1.163   9.262  22.943  0.00  0.00    +0.066 HD
ATOM     28  H   UNL     1      -0.051  10.138  24.064  0.00  0.00    +0.066 HD
ATOM     29  H   UNL     1       0.583   8.980  22.887  0.00  0.00    +0.066 HD
ENDBRANCH  25  26
ENDBRANCH  18  25
ENDBRANCH  11  14
ENDBRANCH   5  10
BRANCH   1  30
ATOM     30  C   UNL     1       6.502   4.433  16.870  0.00  0.00    +0.035 C 
ATOM     31  H   UNL     1       6.739   3.436  16.480  0.00  0.00    +0.046 HD
BRANCH  30  32
ATOM     32  C   UNL     1       7.393   4.677  18.092  0.00  0.00    -0.049 C 
ATOM     33  H   UNL     1       6.780   4.840  18.986  0.00  0.00    +0.024 HD
ATOM     34  H   UNL     1       8.039   5.554  17.974  0.00  0.00    +0.024 HD
ATOM     35  H   UNL     1       8.037   3.816  18.295  0.00  0.00    +0.024 HD
ENDBRANCH  30  32
BRANCH  30  36
ATOM     36  S   UNL     1       6.855   5.673  15.563  0.00  0.00    -0.078 S 
BRANCH  36  37
ATOM     37  C   UNL     1       6.700   4.716  14.135  0.00  0.00    +0.192 A 
ATOM     38  N   UNL     1       5.846   3.741  13.925  0.00  0.00    -0.123 NA
ATOM     39  N   UNL     1       6.063   3.259  12.654  0.00  0.00    -0.137 NA
ATOM     40  C   UNL     1       7.044   3.958  12.128  0.00  0.00    +0.120 A 
ATOM     41  N   UNL     1       7.475   4.889  13.026  0.00  0.00    -0.312 N 
ATOM     42  H   UNL     1       7.458   3.828  11.138  0.00  0.00    +0.105 HD
BRANCH  41  43
ATOM     43  C   UNL     1       8.532   5.840  12.813  0.00  0.00    +0.015 C 
ATOM     44  H   UNL     1       8.215   6.553  12.049  0.00  0.00    +0.046 HD
ATOM     45  H   UNL     1       9.431   5.304  12.497  0.00  0.00    +0.046 HD
ATOM     46  H   UNL     1       8.736   6.373  13.746  0.00  0.00    +0.046 HD
ENDBRANCH  41  43
ENDBRANCH  36  37
ENDBRANCH  30  36
ENDBRANCH   1  30
TORSDOF 10
ENDMDL
MODEL 9
REMARK VINA RESULT:    -6.906      3.856      9.180
REMARK INTER + INTRA:         -10.564
REMARK INTER:                 -10.485
REMARK INTRA:                  -0.080
REMARK UNBOUND:                -0.227
REMARK  Name = 
REMARK  10 active torsions:
REMARK  status: ('A' for Active; 'I' for Inactive)
REMARK    1  A    between atoms: C_1  and  C_2
REMARK    2  A    between atoms: C_2  and  C_3
REMARK    3  A    between atoms: C_2  and  S_23
REMARK    4  A    between atoms: C_7  and  N_9
REMARK    5  A    between atoms: C_10  and  C_11
REMARK    6  A    between atoms: C_14  and  N_19
REMARK    7  A    between atoms: C_15  and  O_17
REMARK    8  A    between atoms: O_17  and  C_18
REMARK    9  A    between atoms: S_23  and  C_24
REMARK   10  A    between atoms: N_28  and  C_29
REMARK                            x       y       z     vdW  Elec       q    Type
REMARK                         _______ _______ _______ _____ _____    ______ ____
ROOT
ATOM      1  C   UNL     1       3.506   5.091  19.074  0.00  0.00    -0.030 A 
ATOM      2  C   UNL     1       3.252   3.853  19.671  0.00  0.00    -0.039 A 
ATOM      3  C   UNL     1       2.324   3.794  20.697  0.00  0.00    +0.030 A 
ATOM      4  N   UNL     1       1.647   4.863  21.164  0.00  0.00    -0.240 NA
ATOM      5  C   UNL     1       1.896   6.055  20.603  0.00  0.00    +0.125 A 
ATOM      6  C   UNL     1       2.813   6.207  19.566  0.00  0.00    -0.017 A 
ATOM      7  H   UNL     1       3.764   2.950  19.363  0.00  0.00    +0.064 HD
ATOM      8  H   UNL     1       2.094   2.853  21.191  0.00  0.00    +0.083 HD
ATOM      9  H   UNL     1       2.994   7.189  19.136  0.00  0.00    +0.065 HD
ENDROOT
BRANCH   5  10
ATOM     10  N   UNL     1       1.235   7.205  21.044  0.00  0.00    -0.265 N 
ATOM     11  C   UNL     1       1.153   8.406  20.376  0.00  0.00    +0.268 C 
ATOM     12  O   UNL     1       1.628   8.709  19.289  0.00  0.00    -0.268 OA
ATOM     13  H   UNL     1       0.764   7.173  21.940  0.00  0.00    +0.157 HD
BRANCH  11  14
ATOM     14  C   UNL     1       0.363   9.431  21.136  0.00  0.00    +0.130 A 
ATOM     15  C   UNL     1       0.115   9.252  22.494  0.00  0.00    -0.029 A 
ATOM     16  C   UNL     1      -0.620  10.225  23.165  0.00  0.00    -0.024 A 
ATOM     17  C   UNL     1      -1.067  11.333  22.442  0.00  0.00    +0.187 A 
ATOM     18  C   UNL     1      -0.790  11.444  21.087  0.00  0.00    +0.246 A 
ATOM     19  N   UNL     1      -0.078  10.507  20.414  0.00  0.00    -0.206 NA
ATOM     20  H   UNL     1       0.487   8.373  23.015  0.00  0.00    +0.064 HD
ATOM     21  H   UNL     1      -0.835  10.118  24.226  0.00  0.00    +0.064 HD
BRANCH  17  22
ATOM     22  N   UNL     1      -1.820  12.359  23.116  0.00  0.00    +0.062 N 
ATOM     23  O   UNL     1      -3.021  12.130  23.312  0.00  0.00    -0.126 OA
ATOM     24  O   UNL     1      -1.204  13.362  23.499  0.00  0.00    -0.126 OA
ENDBRANCH  17  22
BRANCH  18  25
ATOM     25  O   UNL     1      -1.297  12.518  20.388  0.00  0.00    -0.478 OA
BRANCH  25  26
ATOM     26  C   UNL     1      -2.247  12.168  19.386  0.00  0.00    +0.080 C 
ATOM     27  H   UNL     1      -2.473  13.025  18.741  0.00  0.00    +0.066 HD
ATOM     28  H   UNL     1      -3.160  11.759  19.830  0.00  0.00    +0.066 HD
ATOM     29  H   UNL     1      -1.801  11.389  18.761  0.00  0.00    +0.066 HD
ENDBRANCH  25  26
ENDBRANCH  18  25
ENDBRANCH  11  14
ENDBRANCH   5  10
BRANCH   1  30
ATOM     30  C   UNL     1       4.516   5.267  17.952  0.00  0.00    +0.035 C 
ATOM     31  H   UNL     1       5.509   5.350  18.410  0.00  0.00    +0.046 HD
BRANCH  30  32
ATOM     32  C   UNL     1       4.276   6.538  17.131  0.00  0.00    -0.049 C 
ATOM     33  H   UNL     1       4.122   6.288  16.075  0.00  0.00    +0.024 HD
ATOM     34  H   UNL     1       5.119   7.237  17.182  0.00  0.00    +0.024 HD
ATOM     35  H   UNL     1       3.383   7.070  17.471  0.00  0.00    +0.024 HD
ENDBRANCH  30  32
BRANCH  30  36
ATOM     36  S   UNL     1       4.494   3.788  16.863  0.00  0.00    -0.078 S 
BRANCH  36  37
ATOM     37  C   UNL     1       5.664   4.225  15.672  0.00  0.00    +0.192 A 
ATOM     38  N   UNL     1       5.469   4.349  14.379  0.00  0.00    -0.123 NA
ATOM     39  N   UNL     1       6.665   4.720  13.807  0.00  0.00    -0.137 NA
ATOM     40  C   UNL     1       7.552   4.813  14.772  0.00  0.00    +0.120 A 
ATOM     41  N   UNL     1       6.966   4.512  15.964  0.00  0.00    -0.312 N 
ATOM     42  H   UNL     1       8.592   5.086  14.656  0.00  0.00    +0.105 HD
BRANCH  41  43
ATOM     43  C   UNL     1       7.615   4.507  17.247  0.00  0.00    +0.015 C 
ATOM     44  H   UNL     1       8.241   5.398  17.329  0.00  0.00    +0.046 HD
ATOM     45  H   UNL     1       8.218   3.598  17.334  0.00  0.00    +0.046 HD
ATOM     46  H   UNL     1       6.861   4.518  18.039  0.00  0.00    +0.046 HD
ENDBRANCH  41  43
ENDBRANCH  36  37
ENDBRANCH  30  36
ENDBRANCH   1  30
TORSDOF 10
ENDMDL
MODEL 10
REMARK VINA RESULT:    -6.858      2.448      4.394
REMARK INTER + INTRA:         -10.492
REMARK INTER:                  -9.332
REMARK INTRA:                  -1.161
REMARK UNBOUND:                -0.227
REMARK  Name = 
REMARK  10 active torsions:
REMARK  status: ('A' for Active; 'I' for Inactive)
REMARK    1  A    between atoms: C_1  and  C_2
REMARK    2  A    between atoms: C_2  and  C_3
REMARK    3  A    between atoms: C_2  and  S_23
REMARK    4  A    between atoms: C_7  and  N_9
REMARK    5  A    between atoms: C_10  and  C_11
REMARK    6  A    between atoms: C_14  and  N_19
REMARK    7  A    between atoms: C_15  and  O_17
REMARK    8  A    between atoms: O_17  and  C_18
REMARK    9  A    between atoms: S_23  and  C_24
REMARK   10  A    between atoms: N_28  and  C_29
REMARK                            x       y       z     vdW  Elec       q    Type
REMARK                         _______ _______ _______ _____ _____    ______ ____
ROOT
ATOM      1  C   UNL     1       0.371  11.902  18.811  0.00  0.00    -0.030 A 
ATOM      2  C   UNL     1      -0.967  11.618  18.522  0.00  0.00    -0.039 A 
ATOM      3  C   UNL     1      -1.283  10.367  18.021  0.00  0.00    +0.030 A 
ATOM      4  N   UNL     1      -0.375   9.397  17.789  0.00  0.00    -0.240 NA
ATOM      5  C   UNL     1       0.911   9.667  18.053  0.00  0.00    +0.125 A 
ATOM      6  C   UNL     1       1.319  10.900  18.559  0.00  0.00    -0.017 A 
ATOM      7  H   UNL     1      -1.754  12.349  18.667  0.00  0.00    +0.064 HD
ATOM      8  H   UNL     1      -2.309  10.101  17.782  0.00  0.00    +0.083 HD
ATOM      9  H   UNL     1       2.371  11.088  18.757  0.00  0.00    +0.065 HD
ENDROOT
BRANCH   5  10
ATOM     10  N   UNL     1       1.904   8.710  17.828  0.00  0.00    -0.265 N 
ATOM     11  C   UNL     1       2.354   7.772  18.732  0.00  0.00    +0.268 C 
ATOM     12  O   UNL     1       1.989   7.589  19.886  0.00  0.00    -0.268 OA
ATOM     13  H   UNL     1       2.349   8.685  16.920  0.00  0.00    +0.157 HD
BRANCH  11  14
ATOM     14  C   UNL     1       3.429   6.897  18.160  0.00  0.00    +0.130 A 
ATOM     15  C   UNL     1       4.145   7.313  17.040  0.00  0.00    -0.029 A 
ATOM     16  C   UNL     1       5.135   6.473  16.540  0.00  0.00    -0.024 A 
ATOM     17  C   UNL     1       5.365   5.258  17.190  0.00  0.00    +0.187 A 
ATOM     18  C   UNL     1       4.609   4.902  18.297  0.00  0.00    +0.246 A 
ATOM     19  N   UNL     1       3.637   5.704  18.800  0.00  0.00    -0.206 NA
ATOM     20  H   UNL     1       3.932   8.269  16.570  0.00  0.00    +0.064 HD
ATOM     21  H   UNL     1       5.713   6.764  15.665  0.00  0.00    +0.064 HD
BRANCH  17  22
ATOM     22  N   UNL     1       6.392   4.377  16.697  0.00  0.00    +0.062 N 
ATOM     23  O   UNL     1       6.080   3.625  15.764  0.00  0.00    -0.126 OA
ATOM     24  O   UNL     1       7.518   4.475  17.201  0.00  0.00    -0.126 OA
ENDBRANCH  17  22
BRANCH  18  25
ATOM     25  O   UNL     1       4.816   3.670  18.879  0.00  0.00    -0.478 OA
BRANCH  25  26
ATOM     26  C   UNL     1       3.774   2.729  18.644  0.00  0.00    +0.080 C 
ATOM     27  H   UNL     1       2.919   2.915  19.304  0.00  0.00    +0.066 HD
ATOM     28  H   UNL     1       4.135   1.701  18.751  0.00  0.00    +0.066 HD
ATOM     29  H   UNL     1       3.433   2.858  17.613  0.00  0.00    +0.066 HD
ENDBRANCH  25  26
ENDBRANCH  18  25
ENDBRANCH  11  14
ENDBRANCH   5  10
BRANCH   1  30
ATOM     30  C   UNL     1       0.824  13.249  19.349  0.00  0.00    +0.035 C 
ATOM     31  H   UNL     1      -0.041  13.923  19.324  0.00  0.00    +0.046 HD
BRANCH  30  32
ATOM     32  C   UNL     1       1.932  13.884  18.502  0.00  0.00    -0.049 C 
ATOM     33  H   UNL     1       2.886  13.375  18.678  0.00  0.00    +0.024 HD
ATOM     34  H   UNL     1       2.080  14.945  18.732  0.00  0.00    +0.024 HD
ATOM     35  H   UNL     1       1.713  13.803  17.433  0.00  0.00    +0.024 HD
ENDBRANCH  30  32
BRANCH  30  36
ATOM     36  S   UNL     1       1.375  13.066  21.091  0.00  0.00    -0.078 S 
BRANCH  36  37
ATOM     37  C   UNL     1      -0.133  12.855  21.904  0.00  0.00    +0.192 A 
ATOM     38  N   UNL     1      -0.988  13.793  22.241  0.00  0.00    -0.123 NA
ATOM     39  N   UNL     1      -2.056  13.185  22.861  0.00  0.00    -0.137 NA
ATOM     40  C   UNL     1      -1.820  11.893  22.879  0.00  0.00    +0.120 A 
ATOM     41  N   UNL     1      -0.620  11.639  22.285  0.00  0.00    -0.312 N 
ATOM     42  H   UNL     1      -2.466  11.132  23.296  0.00  0.00    +0.105 HD
BRANCH  41  43
ATOM     43  C   UNL     1      -0.020  10.343  22.113  0.00  0.00    +0.015 C 
ATOM     44  H   UNL     1       0.996  10.473  21.732  0.00  0.00    +0.046 HD
ATOM     45  H   UNL     1      -0.627   9.763  21.412  0.00  0.00    +0.046 HD
ATOM     46  H   UNL     1       0.016   9.826  23.075  0.00  0.00    +0.046 HD
ENDBRANCH  41  43
ENDBRANCH  36  37
ENDBRANCH  30  36
ENDBRANCH   1  30
TORSDOF 10
ENDMDL
MODEL 11
REMARK VINA RESULT:    -6.857      2.385      3.701
REMARK INTER + INTRA:         -10.491
REMARK INTER:                  -9.707
REMARK INTRA:                  -0.783
REMARK UNBOUND:                -0.227
REMARK  Name = 
REMARK  10 active torsions:
REMARK  status: ('A' for Active; 'I' for Inactive)
REMARK    1  A    between atoms: C_1  and  C_2
REMARK    2  A    between atoms: C_2  and  C_3
REMARK    3  A    between atoms: C_2  and  S_23
REMARK    4  A    between atoms: C_7  and  N_9
REMARK    5  A    between atoms: C_10  and  C_11
REMARK    6  A    between atoms: C_14  and  N_19
REMARK    7  A    between atoms: C_15  and  O_17
REMARK    8  A    between atoms: O_17  and  C_18
REMARK    9  A    between atoms: S_23  and  C_24
REMARK   10  A    between atoms: N_28  and  C_29
REMARK                            x       y       z     vdW  Elec       q    Type
REMARK                         _______ _______ _______ _____ _____    ______ ____
ROOT
ATOM      1  C   UNL     1      -0.664  11.386  19.221  0.00  0.00    -0.030 A 
ATOM      2  C   UNL     1       0.221  12.385  18.805  0.00  0.00    -0.039 A 
ATOM      3  C   UNL     1       1.523  12.028  18.499  0.00  0.00    +0.030 A 
ATOM      4  N   UNL     1       1.997  10.768  18.579  0.00  0.00    -0.240 NA
ATOM      5  C   UNL     1       1.156   9.807  18.988  0.00  0.00    +0.125 A 
ATOM      6  C   UNL     1      -0.170  10.076  19.317  0.00  0.00    -0.017 A 
ATOM      7  H   UNL     1      -0.079  13.424  18.728  0.00  0.00    +0.064 HD
ATOM      8  H   UNL     1       2.246  12.770  18.171  0.00  0.00    +0.083 HD
ATOM      9  H   UNL     1      -0.825   9.275  19.650  0.00  0.00    +0.065 HD
ENDROOT
BRANCH   5  10
ATOM     10  N   UNL     1       1.585   8.482  19.101  0.00  0.00    -0.265 N 
ATOM     11  C   UNL     1       1.695   7.756  20.266  0.00  0.00    +0.268 C 
ATOM     12  O   UNL     1       1.448   8.109  21.411  0.00  0.00    -0.268 OA
ATOM     13  H   UNL     1       1.845   7.989  18.256  0.00  0.00    +0.157 HD
BRANCH  11  14
ATOM     14  C   UNL     1       2.185   6.358  20.025  0.00  0.00    +0.130 A 
ATOM     15  C   UNL     1       1.543   5.281  20.630  0.00  0.00    -0.029 A 
ATOM     16  C   UNL     1       2.026   4.000  20.382  0.00  0.00    -0.024 A 
ATOM     17  C   UNL     1       3.127   3.860  19.534  0.00  0.00    +0.187 A 
ATOM     18  C   UNL     1       3.724   4.979  18.970  0.00  0.00    +0.246 A 
ATOM     19  N   UNL     1       3.271   6.236  19.201  0.00  0.00    -0.206 NA
ATOM     20  H   UNL     1       0.687   5.440  21.282  0.00  0.00    +0.064 HD
ATOM     21  H   UNL     1       1.552   3.134  20.839  0.00  0.00    +0.064 HD
BRANCH  17  22
ATOM     22  N   UNL     1       3.639   2.544  19.252  0.00  0.00    +0.062 N 
ATOM     23  O   UNL     1       4.491   2.099  20.034  0.00  0.00    -0.126 OA
ATOM     24  O   UNL     1       3.153   1.935  18.290  0.00  0.00    -0.126 OA
ENDBRANCH  17  22
BRANCH  18  25
ATOM     25  O   UNL     1       4.846   4.813  18.188  0.00  0.00    -0.478 OA
BRANCH  25  26
ATOM     26  C   UNL     1       6.066   5.163  18.833  0.00  0.00    +0.080 C 
ATOM     27  H   UNL     1       6.899   5.178  18.120  0.00  0.00    +0.066 HD
ATOM     28  H   UNL     1       6.279   4.491  19.670  0.00  0.00    +0.066 HD
ATOM     29  H   UNL     1       5.954   6.174  19.236  0.00  0.00    +0.066 HD
ENDBRANCH  25  26
ENDBRANCH  18  25
ENDBRANCH  11  14
ENDBRANCH   5  10
BRANCH   1  30
ATOM     30  C   UNL     1      -2.108  11.676  19.595  0.00  0.00    +0.035 C 
ATOM     31  H   UNL     1      -2.416  10.924  20.332  0.00  0.00    +0.046 HD
BRANCH  30  32
ATOM     32  C   UNL     1      -3.063  11.573  18.402  0.00  0.00    -0.049 C 
ATOM     33  H   UNL     1      -2.616  10.965  17.606  0.00  0.00    +0.024 HD
ATOM     34  H   UNL     1      -3.304  12.551  17.970  0.00  0.00    +0.024 HD
ATOM     35  H   UNL     1      -4.005  11.093  18.684  0.00  0.00    +0.024 HD
ENDBRANCH  30  32
BRANCH  30  36
ATOM     36  S   UNL     1      -2.226  13.337  20.367  0.00  0.00    -0.078 S 
BRANCH  36  37
ATOM     37  C   UNL     1      -3.096  12.979  21.814  0.00  0.00    +0.192 A 
ATOM     38  N   UNL     1      -4.344  13.286  22.083  0.00  0.00    -0.123 NA
ATOM     39  N   UNL     1      -4.634  12.805  23.340  0.00  0.00    -0.137 NA
ATOM     40  C   UNL     1      -3.552  12.216  23.797  0.00  0.00    +0.120 A 
ATOM     41  N   UNL     1      -2.558  12.300  22.868  0.00  0.00    -0.312 N 
ATOM     42  H   UNL     1      -3.448  11.733  24.759  0.00  0.00    +0.105 HD
BRANCH  41  43
ATOM     43  C   UNL     1      -1.228  11.771  23.004  0.00  0.00    +0.015 C 
ATOM     44  H   UNL     1      -1.177  10.811  22.488  0.00  0.00    +0.046 HD
ATOM     45  H   UNL     1      -1.002  11.654  24.068  0.00  0.00    +0.046 HD
ATOM     46  H   UNL     1      -0.511  12.465  22.556  0.00  0.00    +0.046 HD
ENDBRANCH  41  43
ENDBRANCH  36  37
ENDBRANCH  30  36
ENDBRANCH   1  30
TORSDOF 10
ENDMDL
MODEL 12
REMARK VINA RESULT:    -6.841      3.568      9.094
REMARK INTER + INTRA:         -10.468
REMARK INTER:                 -10.032
REMARK INTRA:                  -0.435
REMARK UNBOUND:                -0.227
REMARK  Name = 
REMARK  10 active torsions:
REMARK  status: ('A' for Active; 'I' for Inactive)
REMARK    1  A    between atoms: C_1  and  C_2
REMARK    2  A    between atoms: C_2  and  C_3
REMARK    3  A    between atoms: C_2  and  S_23
REMARK    4  A    between atoms: C_7  and  N_9
REMARK    5  A    between atoms: C_10  and  C_11
REMARK    6  A    between atoms: C_14  and  N_19
REMARK    7  A    between atoms: C_15  and  O_17
REMARK    8  A    between atoms: O_17  and  C_18
REMARK    9  A    between atoms: S_23  and  C_24
REMARK   10  A    between atoms: N_28  and  C_29
REMARK                            x       y       z     vdW  Elec       q    Type
REMARK                         _______ _______ _______ _____ _____    ______ ____
ROOT
ATOM      1  C   UNL     1       2.896   4.094  18.893  0.00  0.00    -0.030 A 
ATOM      2  C   UNL     1       3.015   3.044  19.807  0.00  0.00    -0.039 A 
ATOM      3  C   UNL     1       2.542   3.233  21.095  0.00  0.00    +0.030 A 
ATOM      4  N   UNL     1       1.974   4.376  21.529  0.00  0.00    -0.240 NA
ATOM      5  C   UNL     1       1.868   5.392  20.660  0.00  0.00    +0.125 A 
ATOM      6  C   UNL     1       2.317   5.289  19.345  0.00  0.00    -0.017 A 
ATOM      7  H   UNL     1       3.472   2.098  19.541  0.00  0.00    +0.064 HD
ATOM      8  H   UNL     1       2.612   2.444  21.840  0.00  0.00    +0.083 HD
ATOM      9  H   UNL     1       2.221   6.133  18.667  0.00  0.00    +0.065 HD
ENDROOT
BRANCH   5  10
ATOM     10  N   UNL     1       1.296   6.607  21.046  0.00  0.00    -0.265 N 
ATOM     11  C   UNL     1       1.496   7.831  20.445  0.00  0.00    +0.268 C 
ATOM     12  O   UNL     1       2.194   8.100  19.477  0.00  0.00    -0.268 OA
ATOM     13  H   UNL     1       0.672   6.611  21.843  0.00  0.00    +0.157 HD
BRANCH  11  14
ATOM     14  C   UNL     1       0.724   8.929  21.115  0.00  0.00    +0.130 A 
ATOM     15  C   UNL     1       0.461   8.863  22.481  0.00  0.00    -0.029 A 
ATOM     16  C   UNL     1      -0.257   9.901  23.066  0.00  0.00    -0.024 A 
ATOM     17  C   UNL     1      -0.671  10.960  22.255  0.00  0.00    +0.187 A 
ATOM     18  C   UNL     1      -0.380  10.959  20.898  0.00  0.00    +0.246 A 
ATOM     19  N   UNL     1       0.315   9.956  20.307  0.00  0.00    -0.206 NA
ATOM     20  H   UNL     1       0.806   8.018  23.072  0.00  0.00    +0.064 HD
ATOM     21  H   UNL     1      -0.484   9.882  24.130  0.00  0.00    +0.064 HD
BRANCH  17  22
ATOM     22  N   UNL     1      -1.405  12.052  22.840  0.00  0.00    +0.062 N 
ATOM     23  O   UNL     1      -2.599  11.845  23.098  0.00  0.00    -0.126 OA
ATOM     24  O   UNL     1      -0.781  13.091  23.092  0.00  0.00    -0.126 OA
ENDBRANCH  17  22
BRANCH  18  25
ATOM     25  O   UNL     1      -0.856  11.986  20.113  0.00  0.00    -0.478 OA
BRANCH  25  26
ATOM     26  C   UNL     1      -1.857  11.594  19.180  0.00  0.00    +0.080 C 
ATOM     27  H   UNL     1      -1.517  11.745  18.149  0.00  0.00    +0.066 HD
ATOM     28  H   UNL     1      -2.799  12.123  19.363  0.00  0.00    +0.066 HD
ATOM     29  H   UNL     1      -2.042  10.525  19.317  0.00  0.00    +0.066 HD
ENDBRANCH  25  26
ENDBRANCH  18  25
ENDBRANCH  11  14
ENDBRANCH   5  10
BRANCH   1  30
ATOM     30  C   UNL     1       3.397   3.994  17.462  0.00  0.00    +0.035 C 
ATOM     31  H   UNL     1       2.521   3.876  16.813  0.00  0.00    +0.046 HD
BRANCH  30  32
ATOM     32  C   UNL     1       4.308   2.784  17.235  0.00  0.00    -0.049 C 
ATOM     33  H   UNL     1       4.835   2.523  18.160  0.00  0.00    +0.024 HD
ATOM     34  H   UNL     1       5.068   2.968  16.467  0.00  0.00    +0.024 HD
ATOM     35  H   UNL     1       3.735   1.904  16.930  0.00  0.00    +0.024 HD
ENDBRANCH  30  32
BRANCH  30  36
ATOM     36  S   UNL     1       4.264   5.545  17.000  0.00  0.00    -0.078 S 
BRANCH  36  37
ATOM     37  C   UNL     1       5.767   5.353  17.829  0.00  0.00    +0.192 A 
ATOM     38  N   UNL     1       5.986   5.506  19.114  0.00  0.00    -0.123 NA
ATOM     39  N   UNL     1       7.318   5.249  19.347  0.00  0.00    -0.137 NA
ATOM     40  C   UNL     1       7.869   4.946  18.193  0.00  0.00    +0.120 A 
ATOM     41  N   UNL     1       6.929   4.997  17.208  0.00  0.00    -0.312 N 
ATOM     42  H   UNL     1       8.908   4.692  18.030  0.00  0.00    +0.105 HD
BRANCH  41  43
ATOM     43  C   UNL     1       7.150   4.727  15.814  0.00  0.00    +0.015 C 
ATOM     44  H   UNL     1       6.988   3.662  15.632  0.00  0.00    +0.046 HD
ATOM     45  H   UNL     1       8.173   5.015  15.556  0.00  0.00    +0.046 HD
ATOM     46  H   UNL     1       6.447   5.310  15.212  0.00  0.00    +0.046 HD
ENDBRANCH  41  43
ENDBRANCH  36  37
ENDBRANCH  30  36
ENDBRANCH   1  30
TORSDOF 10
ENDMDL
MODEL 13
REMARK VINA RESULT:    -6.834      2.663      3.956
REMARK INTER + INTRA:         -10.456
REMARK INTER:                 -10.161
REMARK INTRA:                  -0.295
REMARK UNBOUND:                -0.227
REMARK  Name = 
REMARK  10 active torsions:
REMARK  status: ('A' for Active; 'I' for Inactive)
REMARK    1  A    between atoms: C_1  and  C_2
REMARK    2  A    between atoms: C_2  and  C_3
REMARK    3  A    between atoms: C_2  and  S_23
REMARK    4  A    between atoms: C_7  and  N_9
REMARK    5  A    between atoms: C_10  and  C_11
REMARK    6  A    between atoms: C_14  and  N_19
REMARK    7  A    between atoms: C_15  and  O_17
REMARK    8  A    between atoms: O_17  and  C_18
REMARK    9  A    between atoms: S_23  and  C_24
REMARK   10  A    between atoms: N_28  and  C_29
REMARK                            x       y       z     vdW  Elec       q    Type
REMARK                         _______ _______ _______ _____ _____    ______ ____
ROOT
ATOM      1  C   UNL     1      -0.154  11.070  20.821  0.00  0.00    -0.030 A 
ATOM      2  C   UNL     1      -0.662  11.246  22.110  0.00  0.00    -0.039 A 
ATOM      3  C   UNL     1      -0.528  10.211  23.020  0.00  0.00    +0.030 A 
ATOM      4  N   UNL     1       0.063   9.033  22.738  0.00  0.00    -0.240 NA
ATOM      5  C   UNL     1       0.543   8.853  21.499  0.00  0.00    +0.125 A 
ATOM      6  C   UNL     1       0.451   9.840  20.520  0.00  0.00    -0.017 A 
ATOM      7  H   UNL     1      -1.164  12.159  22.411  0.00  0.00    +0.064 HD
ATOM      8  H   UNL     1      -0.907  10.303  24.034  0.00  0.00    +0.083 HD
ATOM      9  H   UNL     1       0.845   9.661  19.524  0.00  0.00    +0.065 HD
ENDROOT
BRANCH   5  10
ATOM     10  N   UNL     1       1.160   7.652  21.138  0.00  0.00    -0.265 N 
ATOM     11  C   UNL     1       1.884   7.420  19.989  0.00  0.00    +0.268 C 
ATOM     12  O   UNL     1       2.130   8.193  19.073  0.00  0.00    -0.268 OA
ATOM     13  H   UNL     1       1.080   6.864  21.767  0.00  0.00    +0.157 HD
BRANCH  11  14
ATOM     14  C   UNL     1       2.412   6.018  19.919  0.00  0.00    +0.130 A 
ATOM     15  C   UNL     1       1.718   4.980  20.537  0.00  0.00    -0.029 A 
ATOM     16  C   UNL     1       2.238   3.693  20.449  0.00  0.00    -0.024 A 
ATOM     17  C   UNL     1       3.427   3.506  19.741  0.00  0.00    +0.187 A 
ATOM     18  C   UNL     1       4.072   4.586  19.156  0.00  0.00    +0.246 A 
ATOM     19  N   UNL     1       3.583   5.849  19.231  0.00  0.00    -0.206 NA
ATOM     20  H   UNL     1       0.793   5.175  21.075  0.00  0.00    +0.064 HD
ATOM     21  H   UNL     1       1.724   2.858  20.922  0.00  0.00    +0.064 HD
BRANCH  17  22
ATOM     22  N   UNL     1       3.980   2.181  19.627  0.00  0.00    +0.062 N 
ATOM     23  O   UNL     1       3.656   1.527  18.626  0.00  0.00    -0.126 OA
ATOM     24  O   UNL     1       4.776   1.816  20.501  0.00  0.00    -0.126 OA
ENDBRANCH  17  22
BRANCH  18  25
ATOM     25  O   UNL     1       5.275   4.380  18.517  0.00  0.00    -0.478 OA
BRANCH  25  26
ATOM     26  C   UNL     1       6.333   5.214  18.977  0.00  0.00    +0.080 C 
ATOM     27  H   UNL     1       7.196   5.165  18.303  0.00  0.00    +0.066 HD
ATOM     28  H   UNL     1       6.621   4.959  20.003  0.00  0.00    +0.066 HD
ATOM     29  H   UNL     1       5.969   6.245  18.979  0.00  0.00    +0.066 HD
ENDBRANCH  25  26
ENDBRANCH  18  25
ENDBRANCH  11  14
ENDBRANCH   5  10
BRANCH   1  30
ATOM     30  C   UNL     1      -0.264  12.138  19.744  0.00  0.00    +0.035 C 
ATOM     31  H   UNL     1      -0.520  13.082  20.240  0.00  0.00    +0.046 HD
BRANCH  30  32
ATOM     32  C   UNL     1      -1.364  11.838  18.721  0.00  0.00    -0.049 C 
ATOM     33  H   UNL     1      -1.703  10.800  18.817  0.00  0.00    +0.024 HD
ATOM     34  H   UNL     1      -1.026  11.978  17.688  0.00  0.00    +0.024 HD
ATOM     35  H   UNL     1      -2.237  12.479  18.875  0.00  0.00    +0.024 HD
ENDBRANCH  30  32
BRANCH  30  36
ATOM     36  S   UNL     1       1.356  12.337  18.903  0.00  0.00    -0.078 S 
BRANCH  36  37
ATOM     37  C   UNL     1       2.101  13.548  19.881  0.00  0.00    +0.192 A 
ATOM     38  N   UNL     1       1.777  13.882  21.109  0.00  0.00    -0.123 NA
ATOM     39  N   UNL     1       2.632  14.885  21.511  0.00  0.00    -0.137 NA
ATOM     40  C   UNL     1       3.452  15.128  20.513  0.00  0.00    +0.120 A 
ATOM     41  N   UNL     1       3.155  14.308  19.466  0.00  0.00    -0.312 N 
ATOM     42  H   UNL     1       4.246  15.863  20.506  0.00  0.00    +0.105 HD
BRANCH  41  43
ATOM     43  C   UNL     1       3.833  14.278  18.199  0.00  0.00    +0.015 C 
ATOM     44  H   UNL     1       4.314  13.304  18.080  0.00  0.00    +0.046 HD
ATOM     45  H   UNL     1       4.574  15.083  18.175  0.00  0.00    +0.046 HD
ATOM     46  H   UNL     1       3.110  14.427  17.393  0.00  0.00    +0.046 HD
ENDBRANCH  41  43
ENDBRANCH  36  37
ENDBRANCH  30  36
ENDBRANCH   1  30
TORSDOF 10
ENDMDL
MODEL 14
REMARK VINA RESULT:    -6.826      1.526      1.920
REMARK INTER + INTRA:         -10.445
REMARK INTER:                 -10.132
REMARK INTRA:                  -0.313
REMARK UNBOUND:                -0.227
REMARK  Name = 
REMARK  10 active torsions:
REMARK  status: ('A' for Active; 'I' for Inactive)
REMARK    1  A    between atoms: C_1  and  C_2
REMARK    2  A    between atoms: C_2  and  C_3
REMARK    3  A    between atoms: C_2  and  S_23
REMARK    4  A    between atoms: C_7  and  N_9
REMARK    5  A    between atoms: C_10  and  C_11
REMARK    6  A    between atoms: C_14  and  N_19
REMARK    7  A    between atoms: C_15  and  O_17
REMARK    8  A    between atoms: O_17  and  C_18
REMARK    9  A    between atoms: S_23  and  C_24
REMARK   10  A    between atoms: N_28  and  C_29
REMARK                            x       y       z     vdW  Elec       q    Type
REMARK                         _______ _______ _______ _____ _____    ______ ____
ROOT
ATOM      1  C   UNL     1      -0.181  10.925  20.793  0.00  0.00    -0.030 A 
ATOM      2  C   UNL     1      -0.634  11.123  22.100  0.00  0.00    -0.039 A 
ATOM      3  C   UNL     1      -0.439  10.112  23.027  0.00  0.00    +0.030 A 
ATOM      4  N   UNL     1       0.162   8.938  22.746  0.00  0.00    -0.240 NA
ATOM      5  C   UNL     1       0.589   8.738  21.491  0.00  0.00    +0.125 A 
ATOM      6  C   UNL     1       0.434   9.699  20.495  0.00  0.00    -0.017 A 
ATOM      7  H   UNL     1      -1.139  12.033  22.402  0.00  0.00    +0.064 HD
ATOM      8  H   UNL     1      -0.774  10.222  24.055  0.00  0.00    +0.083 HD
ATOM      9  H   UNL     1       0.787   9.503  19.486  0.00  0.00    +0.065 HD
ENDROOT
BRANCH   5  10
ATOM     10  N   UNL     1       1.213   7.541  21.130  0.00  0.00    -0.265 N 
ATOM     11  C   UNL     1       1.961   7.320  19.995  0.00  0.00    +0.268 C 
ATOM     12  O   UNL     1       2.227   8.102  19.092  0.00  0.00    -0.268 OA
ATOM     13  H   UNL     1       1.119   6.746  21.749  0.00  0.00    +0.157 HD
BRANCH  11  14
ATOM     14  C   UNL     1       2.489   5.917  19.921  0.00  0.00    +0.130 A 
ATOM     15  C   UNL     1       1.947   4.925  20.735  0.00  0.00    -0.029 A 
ATOM     16  C   UNL     1       2.462   3.637  20.637  0.00  0.00    -0.024 A 
ATOM     17  C   UNL     1       3.493   3.403  19.724  0.00  0.00    +0.187 A 
ATOM     18  C   UNL     1       3.992   4.440  18.950  0.00  0.00    +0.246 A 
ATOM     19  N   UNL     1       3.506   5.703  19.030  0.00  0.00    -0.206 NA
ATOM     20  H   UNL     1       1.142   5.156  21.429  0.00  0.00    +0.064 HD
ATOM     21  H   UNL     1       2.065   2.837  21.258  0.00  0.00    +0.064 HD
BRANCH  17  22
ATOM     22  N   UNL     1       4.035   2.075  19.597  0.00  0.00    +0.062 N 
ATOM     23  O   UNL     1       3.592   1.378  18.674  0.00  0.00    -0.126 OA
ATOM     24  O   UNL     1       4.938   1.749  20.378  0.00  0.00    -0.126 OA
ENDBRANCH  17  22
BRANCH  18  25
ATOM     25  O   UNL     1       5.051   4.192  18.103  0.00  0.00    -0.478 OA
BRANCH  25  26
ATOM     26  C   UNL     1       6.261   4.844  18.473  0.00  0.00    +0.080 C 
ATOM     27  H   UNL     1       6.239   5.904  18.196  0.00  0.00    +0.066 HD
ATOM     28  H   UNL     1       7.132   4.343  18.037  0.00  0.00    +0.066 HD
ATOM     29  H   UNL     1       6.353   4.785  19.562  0.00  0.00    +0.066 HD
ENDBRANCH  25  26
ENDBRANCH  18  25
ENDBRANCH  11  14
ENDBRANCH   5  10
BRANCH   1  30
ATOM     30  C   UNL     1      -0.359  11.964  19.699  0.00  0.00    +0.035 C 
ATOM     31  H   UNL     1      -0.757  11.449  18.816  0.00  0.00    +0.046 HD
BRANCH  30  32
ATOM     32  C   UNL     1       0.959  12.630  19.292  0.00  0.00    -0.049 C 
ATOM     33  H   UNL     1       1.750  11.879  19.187  0.00  0.00    +0.024 HD
ATOM     34  H   UNL     1       1.302  13.366  20.028  0.00  0.00    +0.024 HD
ATOM     35  H   UNL     1       0.867  13.141  18.329  0.00  0.00    +0.024 HD
ENDBRANCH  30  32
BRANCH  30  36
ATOM     36  S   UNL     1      -1.576  13.228  20.238  0.00  0.00    -0.078 S 
BRANCH  36  37
ATOM     37  C   UNL     1      -3.053  12.549  19.657  0.00  0.00    +0.192 A 
ATOM     38  N   UNL     1      -3.228  11.872  18.546  0.00  0.00    -0.123 NA
ATOM     39  N   UNL     1      -4.556  11.512  18.478  0.00  0.00    -0.137 NA
ATOM     40  C   UNL     1      -5.147  11.979  19.555  0.00  0.00    +0.120 A 
ATOM     41  N   UNL     1      -4.238  12.638  20.327  0.00  0.00    -0.312 N 
ATOM     42  H   UNL     1      -6.193  11.868  19.805  0.00  0.00    +0.105 HD
BRANCH  41  43
ATOM     43  C   UNL     1      -4.507  13.284  21.583  0.00  0.00    +0.015 C 
ATOM     44  H   UNL     1      -5.056  12.592  22.224  0.00  0.00    +0.046 HD
ATOM     45  H   UNL     1      -5.093  14.189  21.396  0.00  0.00    +0.046 HD
ATOM     46  H   UNL     1      -3.564  13.556  22.064  0.00  0.00    +0.046 HD
ENDBRANCH  41  43
ENDBRANCH  36  37
ENDBRANCH  30  36
ENDBRANCH   1  30
TORSDOF 10
ENDMDL
MODEL 15
REMARK VINA RESULT:    -6.781      4.130      9.181
REMARK INTER + INTRA:         -10.378
REMARK INTER:                 -10.420
REMARK INTRA:                   0.042
REMARK UNBOUND:                -0.227
REMARK  Name = 
REMARK  10 active torsions:
REMARK  status: ('A' for Active; 'I' for Inactive)
REMARK    1  A    between atoms: C_1  and  C_2
REMARK    2  A    between atoms: C_2  and  C_3
REMARK    3  A    between atoms: C_2  and  S_23
REMARK    4  A    between atoms: C_7  and  N_9
REMARK    5  A    between atoms: C_10  and  C_11
REMARK    6  A    between atoms: C_14  and  N_19
REMARK    7  A    between atoms: C_15  and  O_17
REMARK    8  A    between atoms: O_17  and  C_18
REMARK    9  A    between atoms: S_23  and  C_24
REMARK   10  A    between atoms: N_28  and  C_29
REMARK                            x       y       z     vdW  Elec       q    Type
REMARK                         _______ _______ _______ _____ _____    ______ ____
ROOT
ATOM      1  C   UNL     1       4.633   4.924  17.755  0.00  0.00    -0.030 A 
ATOM      2  C   UNL     1       4.602   3.654  18.336  0.00  0.00    -0.039 A 
ATOM      3  C   UNL     1       3.824   3.464  19.466  0.00  0.00    +0.030 A 
ATOM      4  N   UNL     1       3.091   4.435  20.048  0.00  0.00    -0.240 NA
ATOM      5  C   UNL     1       3.127   5.659  19.502  0.00  0.00    +0.125 A 
ATOM      6  C   UNL     1       3.882   5.940  18.366  0.00  0.00    -0.017 A 
ATOM      7  H   UNL     1       5.173   2.824  17.936  0.00  0.00    +0.064 HD
ATOM      8  H   UNL     1       3.768   2.493  19.951  0.00  0.00    +0.083 HD
ATOM      9  H   UNL     1       3.893   6.945  17.951  0.00  0.00    +0.065 HD
ENDROOT
BRANCH   5  10
ATOM     10  N   UNL     1       2.398   6.713  20.060  0.00  0.00    -0.265 N 
ATOM     11  C   UNL     1       1.988   7.856  19.410  0.00  0.00    +0.268 C 
ATOM     12  O   UNL     1       2.172   8.178  18.244  0.00  0.00    -0.268 OA
ATOM     13  H   UNL     1       2.135   6.650  21.035  0.00  0.00    +0.157 HD
BRANCH  11  14
ATOM     14  C   UNL     1       1.221   8.781  20.308  0.00  0.00    +0.130 A 
ATOM     15  C   UNL     1       1.283   8.621  21.690  0.00  0.00    -0.029 A 
ATOM     16  C   UNL     1       0.559   9.499  22.490  0.00  0.00    -0.024 A 
ATOM     17  C   UNL     1      -0.189  10.500  21.866  0.00  0.00    +0.187 A 
ATOM     18  C   UNL     1      -0.213  10.598  20.482  0.00  0.00    +0.246 A 
ATOM     19  N   UNL     1       0.484   9.751  19.684  0.00  0.00    -0.206 NA
ATOM     20  H   UNL     1       1.883   7.828  22.130  0.00  0.00    +0.064 HD
ATOM     21  H   UNL     1       0.582   9.403  23.574  0.00  0.00    +0.064 HD
BRANCH  17  22
ATOM     22  N   UNL     1      -0.938  11.428  22.673  0.00  0.00    +0.062 N 
ATOM     23  O   UNL     1      -1.834  10.951  23.384  0.00  0.00    -0.126 OA
ATOM     24  O   UNL     1      -0.598  12.618  22.641  0.00  0.00    -0.126 OA
ENDBRANCH  17  22
BRANCH  18  25
ATOM     25  O   UNL     1      -1.009  11.556  19.894  0.00  0.00    -0.478 OA
BRANCH  25  26
ATOM     26  C   UNL     1      -1.627  11.140  18.681  0.00  0.00    +0.080 C 
ATOM     27  H   UNL     1      -2.700  11.366  18.687  0.00  0.00    +0.066 HD
ATOM     28  H   UNL     1      -1.452  10.076  18.491  0.00  0.00    +0.066 HD
ATOM     29  H   UNL     1      -1.172  11.705  17.863  0.00  0.00    +0.066 HD
ENDBRANCH  25  26
ENDBRANCH  18  25
ENDBRANCH  11  14
ENDBRANCH   5  10
BRANCH   1  30
ATOM     30  C   UNL     1       5.466   5.241  16.524  0.00  0.00    +0.035 C 
ATOM     31  H   UNL     1       6.498   5.407  16.856  0.00  0.00    +0.046 HD
BRANCH  30  32
ATOM     32  C   UNL     1       5.002   6.511  15.803  0.00  0.00    -0.049 C 
ATOM     33  H   UNL     1       4.868   6.316  14.733  0.00  0.00    +0.024 HD
ATOM     34  H   UNL     1       5.719   7.334  15.898  0.00  0.00    +0.024 HD
ATOM     35  H   UNL     1       4.041   6.861  16.192  0.00  0.00    +0.024 HD
ENDBRANCH  30  32
BRANCH  30  36
ATOM     36  S   UNL     1       5.443   3.809  15.376  0.00  0.00    -0.078 S 
BRANCH  36  37
ATOM     37  C   UNL     1       6.497   4.358  14.124  0.00  0.00    +0.192 A 
ATOM     38  N   UNL     1       7.537   5.149  14.257  0.00  0.00    -0.123 NA
ATOM     39  N   UNL     1       8.094   5.322  13.010  0.00  0.00    -0.137 NA
ATOM     40  C   UNL     1       7.376   4.627  12.156  0.00  0.00    +0.120 A 
ATOM     41  N   UNL     1       6.360   4.002  12.815  0.00  0.00    -0.312 N 
ATOM     42  H   UNL     1       7.551   4.551  11.091  0.00  0.00    +0.105 HD
BRANCH  41  43
ATOM     43  C   UNL     1       5.366   3.150  12.220  0.00  0.00    +0.015 C 
ATOM     44  H   UNL     1       5.535   2.124  12.555  0.00  0.00    +0.046 HD
ATOM     45  H   UNL     1       5.445   3.222  11.131  0.00  0.00    +0.046 HD
ATOM     46  H   UNL     1       4.371   3.476  12.533  0.00  0.00    +0.046 HD
ENDBRANCH  41  43
ENDBRANCH  36  37
ENDBRANCH  30  36
ENDBRANCH   1  30
TORSDOF 10
ENDMDL
MODEL 16
REMARK VINA RESULT:    -6.759      2.741      4.324
REMARK INTER + INTRA:         -10.345
REMARK INTER:                  -9.925
REMARK INTRA:                  -0.420
REMARK UNBOUND:                -0.227
REMARK  Name = 
REMARK  10 active torsions:
REMARK  status: ('A' for Active; 'I' for Inactive)
REMARK    1  A    between atoms: C_1  and  C_2
REMARK    2  A    between atoms: C_2  and  C_3
REMARK    3  A    between atoms: C_2  and  S_23
REMARK    4  A    between atoms: C_7  and  N_9
REMARK    5  A    between atoms: C_10  and  C_11
REMARK    6  A    between atoms: C_14  and  N_19
REMARK    7  A    between atoms: C_15  and  O_17
REMARK    8  A    between atoms: O_17  and  C_18
REMARK    9  A    between atoms: S_23  and  C_24
REMARK   10  A    between atoms: N_28  and  C_29
REMARK                            x       y       z     vdW  Elec       q    Type
REMARK                         _______ _______ _______ _____ _____    ______ ____
ROOT
ATOM      1  C   UNL     1      -0.055  11.158  21.109  0.00  0.00    -0.030 A 
ATOM      2  C   UNL     1       0.081  12.044  20.037  0.00  0.00    -0.039 A 
ATOM      3  C   UNL     1       0.715  11.600  18.889  0.00  0.00    +0.030 A 
ATOM      4  N   UNL     1       1.218  10.358  18.739  0.00  0.00    -0.240 NA
ATOM      5  C   UNL     1       1.102   9.507  19.768  0.00  0.00    +0.125 A 
ATOM      6  C   UNL     1       0.478   9.869  20.960  0.00  0.00    -0.017 A 
ATOM      7  H   UNL     1      -0.284  13.064  20.084  0.00  0.00    +0.064 HD
ATOM      8  H   UNL     1       0.843  12.255  18.031  0.00  0.00    +0.083 HD
ATOM      9  H   UNL     1       0.405   9.155  21.777  0.00  0.00    +0.065 HD
ENDROOT
BRANCH   5  10
ATOM     10  N   UNL     1       1.608   8.207  19.681  0.00  0.00    -0.265 N 
ATOM     11  C   UNL     1       2.352   7.688  18.645  0.00  0.00    +0.268 C 
ATOM     12  O   UNL     1       2.715   8.240  17.615  0.00  0.00    -0.268 OA
ATOM     13  H   UNL     1       1.420   7.568  20.444  0.00  0.00    +0.157 HD
BRANCH  11  14
ATOM     14  C   UNL     1       2.735   6.256  18.877  0.00  0.00    +0.130 A 
ATOM     15  C   UNL     1       2.012   5.478  19.778  0.00  0.00    -0.029 A 
ATOM     16  C   UNL     1       2.396   4.155  19.965  0.00  0.00    -0.024 A 
ATOM     17  C   UNL     1       3.486   3.672  19.236  0.00  0.00    +0.187 A 
ATOM     18  C   UNL     1       4.167   4.504  18.360  0.00  0.00    +0.246 A 
ATOM     19  N   UNL     1       3.811   5.798  18.164  0.00  0.00    -0.206 NA
ATOM     20  H   UNL     1       1.169   5.899  20.321  0.00  0.00    +0.064 HD
ATOM     21  H   UNL     1       1.856   3.518  20.663  0.00  0.00    +0.064 HD
BRANCH  17  22
ATOM     22  N   UNL     1       3.896   2.302  19.405  0.00  0.00    +0.062 N 
ATOM     23  O   UNL     1       4.600   2.049  20.392  0.00  0.00    -0.126 OA
ATOM     24  O   UNL     1       3.472   1.473  18.589  0.00  0.00    -0.126 OA
ENDBRANCH  17  22
BRANCH  18  25
ATOM     25  O   UNL     1       5.276   4.017  17.702  0.00  0.00    -0.478 OA
BRANCH  25  26
ATOM     26  C   UNL     1       6.447   4.810  17.862  0.00  0.00    +0.080 C 
ATOM     27  H   UNL     1       7.203   4.552  17.112  0.00  0.00    +0.066 HD
ATOM     28  H   UNL     1       6.853   4.720  18.875  0.00  0.00    +0.066 HD
ATOM     29  H   UNL     1       6.166   5.856  17.706  0.00  0.00    +0.066 HD
ENDBRANCH  25  26
ENDBRANCH  18  25
ENDBRANCH  11  14
ENDBRANCH   5  10
BRANCH   1  30
ATOM     30  C   UNL     1      -0.721  11.551  22.417  0.00  0.00    +0.035 C 
ATOM     31  H   UNL     1      -0.026  12.203  22.959  0.00  0.00    +0.046 HD
BRANCH  30  32
ATOM     32  C   UNL     1      -1.023  10.346  23.314  0.00  0.00    -0.049 C 
ATOM     33  H   UNL     1      -2.079  10.065  23.235  0.00  0.00    +0.024 HD
ATOM     34  H   UNL     1      -0.816  10.548  24.372  0.00  0.00    +0.024 HD
ATOM     35  H   UNL     1      -0.433   9.473  23.022  0.00  0.00    +0.024 HD
ENDBRANCH  30  32
BRANCH  30  36
ATOM     36  S   UNL     1      -2.259  12.492  22.070  0.00  0.00    -0.078 S 
BRANCH  36  37
ATOM     37  C   UNL     1      -2.306  13.575  23.413  0.00  0.00    +0.192 A 
ATOM     38  N   UNL     1      -1.463  14.547  23.675  0.00  0.00    -0.123 NA
ATOM     39  N   UNL     1      -1.878  15.161  24.835  0.00  0.00    -0.137 NA
ATOM     40  C   UNL     1      -2.964  14.544  25.242  0.00  0.00    +0.120 A 
ATOM     41  N   UNL     1      -3.271  13.538  24.376  0.00  0.00    -0.312 N 
ATOM     42  H   UNL     1      -3.539  14.784  26.127  0.00  0.00    +0.105 HD
BRANCH  41  43
ATOM     43  C   UNL     1      -4.391  12.642  24.485  0.00  0.00    +0.015 C 
ATOM     44  H   UNL     1      -5.209  13.161  24.990  0.00  0.00    +0.046 HD
ATOM     45  H   UNL     1      -4.082  11.759  25.052  0.00  0.00    +0.046 HD
ATOM     46  H   UNL     1      -4.714  12.337  23.486  0.00  0.00    +0.046 HD
ENDBRANCH  41  43
ENDBRANCH  36  37
ENDBRANCH  30  36
ENDBRANCH   1  30
TORSDOF 10
ENDMDL
MODEL 17
REMARK VINA RESULT:    -6.757      2.868      3.920
REMARK INTER + INTRA:         -10.341
REMARK INTER:                  -9.537
REMARK INTRA:                  -0.805
REMARK UNBOUND:                -0.227
REMARK  Name = 
REMARK  10 active torsions:
REMARK  status: ('A' for Active; 'I' for Inactive)
REMARK    1  A    between atoms: C_1  and  C_2
REMARK    2  A    between atoms: C_2  and  C_3
REMARK    3  A    between atoms: C_2  and  S_23
REMARK    4  A    between atoms: C_7  and  N_9
REMARK    5  A    between atoms: C_10  and  C_11
REMARK    6  A    between atoms: C_14  and  N_19
REMARK    7  A    between atoms: C_15  and  O_17
REMARK    8  A    between atoms: O_17  and  C_18
REMARK    9  A    between atoms: S_23  and  C_24
REMARK   10  A    between atoms: N_28  and  C_29
REMARK                            x       y       z     vdW  Elec       q    Type
REMARK                         _______ _______ _______ _____ _____    ______ ____
ROOT
ATOM      1  C   UNL     1      -0.298  10.155  20.323  0.00  0.00    -0.030 A 
ATOM      2  C   UNL     1      -0.175  10.101  21.714  0.00  0.00    -0.039 A 
ATOM      3  C   UNL     1       0.762   9.240  22.261  0.00  0.00    +0.030 A 
ATOM      4  N   UNL     1       1.567   8.440  21.532  0.00  0.00    -0.240 NA
ATOM      5  C   UNL     1       1.444   8.478  20.197  0.00  0.00    +0.125 A 
ATOM      6  C   UNL     1       0.529   9.315  19.562  0.00  0.00    -0.017 A 
ATOM      7  H   UNL     1      -0.794  10.701  22.370  0.00  0.00    +0.064 HD
ATOM      8  H   UNL     1       0.894   9.165  23.337  0.00  0.00    +0.083 HD
ATOM      9  H   UNL     1       0.452   9.318  18.478  0.00  0.00    +0.065 HD
ENDROOT
BRANCH   5  10
ATOM     10  N   UNL     1       2.242   7.670  19.382  0.00  0.00    -0.265 N 
ATOM     11  C   UNL     1       2.345   6.298  19.444  0.00  0.00    +0.268 C 
ATOM     12  O   UNL     1       1.778   5.524  20.203  0.00  0.00    -0.268 OA
ATOM     13  H   UNL     1       2.807   8.117  18.671  0.00  0.00    +0.157 HD
BRANCH  11  14
ATOM     14  C   UNL     1       3.293   5.749  18.419  0.00  0.00    +0.130 A 
ATOM     15  C   UNL     1       3.193   4.418  18.019  0.00  0.00    -0.029 A 
ATOM     16  C   UNL     1       4.088   3.946  17.065  0.00  0.00    -0.024 A 
ATOM     17  C   UNL     1       5.039   4.832  16.552  0.00  0.00    +0.187 A 
ATOM     18  C   UNL     1       5.087   6.145  17.001  0.00  0.00    +0.246 A 
ATOM     19  N   UNL     1       4.226   6.625  17.932  0.00  0.00    -0.206 NA
ATOM     20  H   UNL     1       2.434   3.767  18.445  0.00  0.00    +0.064 HD
ATOM     21  H   UNL     1       4.042   2.912  16.731  0.00  0.00    +0.064 HD
BRANCH  17  22
ATOM     22  N   UNL     1       5.969   4.370  15.556  0.00  0.00    +0.062 N 
ATOM     23  O   UNL     1       7.075   3.987  15.961  0.00  0.00    -0.126 OA
ATOM     24  O   UNL     1       5.580   4.337  14.381  0.00  0.00    -0.126 OA
ENDBRANCH  17  22
BRANCH  18  25
ATOM     25  O   UNL     1       6.075   6.978  16.523  0.00  0.00    -0.478 OA
BRANCH  25  26
ATOM     26  C   UNL     1       7.140   7.210  17.439  0.00  0.00    +0.080 C 
ATOM     27  H   UNL     1       8.092   7.339  16.912  0.00  0.00    +0.066 HD
ATOM     28  H   UNL     1       7.207   6.407  18.180  0.00  0.00    +0.066 HD
ATOM     29  H   UNL     1       6.925   8.140  17.973  0.00  0.00    +0.066 HD
ENDBRANCH  25  26
ENDBRANCH  18  25
ENDBRANCH  11  14
ENDBRANCH   5  10
BRANCH   1  30
ATOM     30  C   UNL     1      -1.305  11.054  19.625  0.00  0.00    +0.035 C 
ATOM     31  H   UNL     1      -2.307  10.688  19.879  0.00  0.00    +0.046 HD
BRANCH  30  32
ATOM     32  C   UNL     1      -1.172  11.020  18.099  0.00  0.00    -0.049 C 
ATOM     33  H   UNL     1      -1.664  10.129  17.692  0.00  0.00    +0.024 HD
ATOM     34  H   UNL     1      -0.128  10.997  17.768  0.00  0.00    +0.024 HD
ATOM     35  H   UNL     1      -1.647  11.891  17.638  0.00  0.00    +0.024 HD
ENDBRANCH  30  32
BRANCH  30  36
ATOM     36  S   UNL     1      -1.134  12.773  20.245  0.00  0.00    -0.078 S 
BRANCH  36  37
ATOM     37  C   UNL     1      -2.553  12.928  21.215  0.00  0.00    +0.192 A 
ATOM     38  N   UNL     1      -3.798  12.773  20.826  0.00  0.00    -0.123 NA
ATOM     39  N   UNL     1      -4.609  12.979  21.919  0.00  0.00    -0.137 NA
ATOM     40  C   UNL     1      -3.830  13.251  22.943  0.00  0.00    +0.120 A 
ATOM     41  N   UNL     1      -2.527  13.229  22.546  0.00  0.00    -0.312 N 
ATOM     42  H   UNL     1      -4.157  13.464  23.952  0.00  0.00    +0.105 HD
BRANCH  41  43
ATOM     43  C   UNL     1      -1.385  13.476  23.383  0.00  0.00    +0.015 C 
ATOM     44  H   UNL     1      -1.632  14.270  24.090  0.00  0.00    +0.046 HD
ATOM     45  H   UNL     1      -0.540  13.765  22.751  0.00  0.00    +0.046 HD
ATOM     46  H   UNL     1      -1.131  12.565  23.933  0.00  0.00    +0.046 HD
ENDBRANCH  41  43
ENDBRANCH  36  37
ENDBRANCH  30  36
ENDBRANCH   1  30
TORSDOF 10
ENDMDL
MODEL 18
REMARK VINA RESULT:    -6.727      2.938      4.069
REMARK INTER + INTRA:         -10.296
REMARK INTER:                  -9.518
REMARK INTRA:                  -0.778
REMARK UNBOUND:                -0.227
REMARK  Name = 
REMARK  10 active torsions:
REMARK  status: ('A' for Active; 'I' for Inactive)
REMARK    1  A    between atoms: C_1  and  C_2
REMARK    2  A    between atoms: C_2  and  C_3
REMARK    3  A    between atoms: C_2  and  S_23
REMARK    4  A    between atoms: C_7  and  N_9
REMARK    5  A    between atoms: C_10  and  C_11
REMARK    6  A    between atoms: C_14  and  N_19
REMARK    7  A    between atoms: C_15  and  O_17
REMARK    8  A    between atoms: O_17  and  C_18
REMARK    9  A    between atoms: S_23  and  C_24
REMARK   10  A    between atoms: N_28  and  C_29
REMARK                            x       y       z     vdW  Elec       q    Type
REMARK                         _______ _______ _______ _____ _____    ______ ____
ROOT
ATOM      1  C   UNL     1      -0.521  10.512  19.885  0.00  0.00    -0.030 A 
ATOM      2  C   UNL     1      -0.410  10.556  21.277  0.00  0.00    -0.039 A 
ATOM      3  C   UNL     1       0.528   9.742  21.891  0.00  0.00    +0.030 A 
ATOM      4  N   UNL     1       1.345   8.900  21.227  0.00  0.00    -0.240 NA
ATOM      5  C   UNL     1       1.235   8.845  19.891  0.00  0.00    +0.125 A 
ATOM      6  C   UNL     1       0.320   9.627  19.191  0.00  0.00    -0.017 A 
ATOM      7  H   UNL     1      -1.040  11.196  21.884  0.00  0.00    +0.064 HD
ATOM      8  H   UNL     1       0.650   9.744  22.971  0.00  0.00    +0.083 HD
ATOM      9  H   UNL     1       0.253   9.554  18.109  0.00  0.00    +0.065 HD
ENDROOT
BRANCH   5  10
ATOM     10  N   UNL     1       2.047   7.988  19.142  0.00  0.00    -0.265 N 
ATOM     11  C   UNL     1       2.301   6.661  19.412  0.00  0.00    +0.268 C 
ATOM     12  O   UNL     1       1.882   5.977  20.335  0.00  0.00    -0.268 OA
ATOM     13  H   UNL     1       2.502   8.359  18.318  0.00  0.00    +0.157 HD
BRANCH  11  14
ATOM     14  C   UNL     1       3.216   6.037  18.400  0.00  0.00    +0.130 A 
ATOM     15  C   UNL     1       3.005   4.724  17.985  0.00  0.00    -0.029 A 
ATOM     16  C   UNL     1       3.874   4.181  17.044  0.00  0.00    -0.024 A 
ATOM     17  C   UNL     1       4.910   4.982  16.559  0.00  0.00    +0.187 A 
ATOM     18  C   UNL     1       5.067   6.281  17.022  0.00  0.00    +0.246 A 
ATOM     19  N   UNL     1       4.233   6.829  17.940  0.00  0.00    -0.206 NA
ATOM     20  H   UNL     1       2.182   4.140  18.390  0.00  0.00    +0.064 HD
ATOM     21  H   UNL     1       3.742   3.158  16.699  0.00  0.00    +0.064 HD
BRANCH  17  22
ATOM     22  N   UNL     1       5.816   4.446  15.577  0.00  0.00    +0.062 N 
ATOM     23  O   UNL     1       6.888   3.990  15.998  0.00  0.00    -0.126 OA
ATOM     24  O   UNL     1       5.436   4.428  14.399  0.00  0.00    -0.126 OA
ENDBRANCH  17  22
BRANCH  18  25
ATOM     25  O   UNL     1       6.136   7.025  16.571  0.00  0.00    -0.478 OA
BRANCH  25  26
ATOM     26  C   UNL     1       7.192   7.163  17.515  0.00  0.00    +0.080 C 
ATOM     27  H   UNL     1       8.038   6.515  17.257  0.00  0.00    +0.066 HD
ATOM     28  H   UNL     1       6.843   6.966  18.534  0.00  0.00    +0.066 HD
ATOM     29  H   UNL     1       7.542   8.199  17.476  0.00  0.00    +0.066 HD
ENDBRANCH  25  26
ENDBRANCH  18  25
ENDBRANCH  11  14
ENDBRANCH   5  10
BRANCH   1  30
ATOM     30  C   UNL     1      -1.527  11.352  19.116  0.00  0.00    +0.035 C 
ATOM     31  H   UNL     1      -2.192  11.824  19.849  0.00  0.00    +0.046 HD
BRANCH  30  32
ATOM     32  C   UNL     1      -2.397  10.518  18.171  0.00  0.00    -0.049 C 
ATOM     33  H   UNL     1      -3.269  10.121  18.704  0.00  0.00    +0.024 HD
ATOM     34  H   UNL     1      -1.857   9.664  17.745  0.00  0.00    +0.024 HD
ATOM     35  H   UNL     1      -2.773  11.121  17.339  0.00  0.00    +0.024 HD
ENDBRANCH  30  32
BRANCH  30  36
ATOM     36  S   UNL     1      -0.650  12.669  18.185  0.00  0.00    -0.078 S 
BRANCH  36  37
ATOM     37  C   UNL     1       0.468  13.238  19.372  0.00  0.00    +0.192 A 
ATOM     38  N   UNL     1       0.184  13.864  20.490  0.00  0.00    -0.123 NA
ATOM     39  N   UNL     1       1.370  14.125  21.138  0.00  0.00    -0.137 NA
ATOM     40  C   UNL     1       2.341  13.647  20.393  0.00  0.00    +0.120 A 
ATOM     41  N   UNL     1       1.819  13.077  19.271  0.00  0.00    -0.312 N 
ATOM     42  H   UNL     1       3.398  13.689  20.620  0.00  0.00    +0.105 HD
BRANCH  41  43
ATOM     43  C   UNL     1       2.567  12.445  18.218  0.00  0.00    +0.015 C 
ATOM     44  H   UNL     1       3.286  13.164  17.818  0.00  0.00    +0.046 HD
ATOM     45  H   UNL     1       1.872  12.116  17.440  0.00  0.00    +0.046 HD
ATOM     46  H   UNL     1       3.101  11.579  18.617  0.00  0.00    +0.046 HD
ENDBRANCH  41  43
ENDBRANCH  36  37
ENDBRANCH  30  36
ENDBRANCH   1  30
TORSDOF 10
ENDMDL
MODEL 19
REMARK VINA RESULT:    -6.705      3.948      9.163
REMARK INTER + INTRA:         -10.263
REMARK INTER:                  -9.983
REMARK INTRA:                  -0.280
REMARK UNBOUND:                -0.227
REMARK  Name = 
REMARK  10 active torsions:
REMARK  status: ('A' for Active; 'I' for Inactive)
REMARK    1  A    between atoms: C_1  and  C_2
REMARK    2  A    between atoms: C_2  and  C_3
REMARK    3  A    between atoms: C_2  and  S_23
REMARK    4  A    between atoms: C_7  and  N_9
REMARK    5  A    between atoms: C_10  and  C_11
REMARK    6  A    between atoms: C_14  and  N_19
REMARK    7  A    between atoms: C_15  and  O_17
REMARK    8  A    between atoms: O_17  and  C_18
REMARK    9  A    between atoms: S_23  and  C_24
REMARK   10  A    between atoms: N_28  and  C_29
REMARK                            x       y       z     vdW  Elec       q    Type
REMARK                         _______ _______ _______ _____ _____    ______ ____
ROOT
ATOM      1  C   UNL     1       4.230   4.747  17.109  0.00  0.00    -0.030 A 
ATOM      2  C   UNL     1       3.731   3.452  17.275  0.00  0.00    -0.039 A 
ATOM      3  C   UNL     1       2.659   3.263  18.131  0.00  0.00    +0.030 A 
ATOM      4  N   UNL     1       2.064   4.255  18.824  0.00  0.00    -0.240 NA
ATOM      5  C   UNL     1       2.547   5.497  18.679  0.00  0.00    +0.125 A 
ATOM      6  C   UNL     1       3.622   5.779  17.838  0.00  0.00    -0.017 A 
ATOM      7  H   UNL     1       4.162   2.599  16.764  0.00  0.00    +0.064 HD
ATOM      8  H   UNL     1       2.237   2.274  18.290  0.00  0.00    +0.083 HD
ATOM      9  H   UNL     1       3.991   6.797  17.747  0.00  0.00    +0.065 HD
ENDROOT
BRANCH   5  10
ATOM     10  N   UNL     1       1.982   6.570  19.373  0.00  0.00    -0.265 N 
ATOM     11  C   UNL     1       2.004   7.893  18.990  0.00  0.00    +0.268 C 
ATOM     12  O   UNL     1       2.508   8.390  17.992  0.00  0.00    -0.268 OA
ATOM     13  H   UNL     1       1.505   6.378  20.245  0.00  0.00    +0.157 HD
BRANCH  11  14
ATOM     14  C   UNL     1       1.299   8.784  19.970  0.00  0.00    +0.130 A 
ATOM     15  C   UNL     1       1.454   8.576  21.338  0.00  0.00    -0.029 A 
ATOM     16  C   UNL     1       0.785   9.423  22.215  0.00  0.00    -0.024 A 
ATOM     17  C   UNL     1      -0.005  10.443  21.679  0.00  0.00    +0.187 A 
ATOM     18  C   UNL     1      -0.122  10.589  20.304  0.00  0.00    +0.246 A 
ATOM     19  N   UNL     1       0.520   9.773  19.431  0.00  0.00    -0.206 NA
ATOM     20  H   UNL     1       2.082   7.770  21.709  0.00  0.00    +0.064 HD
ATOM     21  H   UNL     1       0.880   9.290  23.291  0.00  0.00    +0.064 HD
BRANCH  17  22
ATOM     22  N   UNL     1      -0.698  11.340  22.566  0.00  0.00    +0.062 N 
ATOM     23  O   UNL     1      -0.395  12.539  22.495  0.00  0.00    -0.126 OA
ATOM     24  O   UNL     1      -1.581  10.860  23.289  0.00  0.00    -0.126 OA
ENDBRANCH  17  22
BRANCH  18  25
ATOM     25  O   UNL     1      -0.957  11.565  19.804  0.00  0.00    -0.478 OA
BRANCH  25  26
ATOM     26  C   UNL     1      -0.329  12.464  18.896  0.00  0.00    +0.080 C 
ATOM     27  H   UNL     1       0.472  11.965  18.339  0.00  0.00    +0.066 HD
ATOM     28  H   UNL     1       0.048  13.352  19.414  0.00  0.00    +0.066 HD
ATOM     29  H   UNL     1      -1.083  12.792  18.175  0.00  0.00    +0.066 HD
ENDBRANCH  25  26
ENDBRANCH  18  25
ENDBRANCH  11  14
ENDBRANCH   5  10
BRANCH   1  30
ATOM     30  C   UNL     1       5.412   5.059  16.205  0.00  0.00    +0.035 C 
ATOM     31  H   UNL     1       5.388   6.134  15.989  0.00  0.00    +0.046 HD
BRANCH  30  32
ATOM     32  C   UNL     1       5.348   4.316  14.867  0.00  0.00    -0.049 C 
ATOM     33  H   UNL     1       6.099   4.711  14.174  0.00  0.00    +0.024 HD
ATOM     34  H   UNL     1       4.371   4.411  14.379  0.00  0.00    +0.024 HD
ATOM     35  H   UNL     1       5.553   3.249  14.993  0.00  0.00    +0.024 HD
ENDBRANCH  30  32
BRANCH  30  36
ATOM     36  S   UNL     1       6.979   4.670  17.079  0.00  0.00    -0.078 S 
BRANCH  36  37
ATOM     37  C   UNL     1       7.505   6.245  17.550  0.00  0.00    +0.192 A 
ATOM     38  N   UNL     1       7.469   7.340  16.826  0.00  0.00    -0.123 NA
ATOM     39  N   UNL     1       7.978   8.366  17.591  0.00  0.00    -0.137 NA
ATOM     40  C   UNL     1       8.306   7.863  18.760  0.00  0.00    +0.120 A 
ATOM     41  N   UNL     1       8.024   6.530  18.779  0.00  0.00    -0.312 N 
ATOM     42  H   UNL     1       8.734   8.408  19.590  0.00  0.00    +0.105 HD
BRANCH  41  43
ATOM     43  C   UNL     1       8.242   5.637  19.885  0.00  0.00    +0.015 C 
ATOM     44  H   UNL     1       9.309   5.414  19.953  0.00  0.00    +0.046 HD
ATOM     45  H   UNL     1       7.662   4.724  19.721  0.00  0.00    +0.046 HD
ATOM     46  H   UNL     1       7.910   6.114  20.811  0.00  0.00    +0.046 HD
ENDBRANCH  41  43
ENDBRANCH  36  37
ENDBRANCH  30  36
ENDBRANCH   1  30
TORSDOF 10
ENDMDL
MODEL 20
REMARK VINA RESULT:    -6.617      2.543      3.442
REMARK INTER + INTRA:         -10.131
REMARK INTER:                  -9.962
REMARK INTRA:                  -0.170
REMARK UNBOUND:                -0.227
REMARK  Name = 
REMARK  10 active torsions:
REMARK  status: ('A' for Active; 'I' for Inactive)
REMARK    1  A    between atoms: C_1  and  C_2
REMARK    2  A    between atoms: C_2  and  C_3
REMARK    3  A    between atoms: C_2  and  S_23
REMARK    4  A    between atoms: C_7  and  N_9
REMARK    5  A    between atoms: C_10  and  C_11
REMARK    6  A    between atoms: C_14  and  N_19
REMARK    7  A    between atoms: C_15  and  O_17
REMARK    8  A    between atoms: O_17  and  C_18
REMARK    9  A    between atoms: S_23  and  C_24
REMARK   10  A    between atoms: N_28  and  C_29
REMARK                            x       y       z     vdW  Elec       q    Type
REMARK                         _______ _______ _______ _____ _____    ______ ____
ROOT
ATOM      1  C   UNL     1      -0.661  11.189  21.226  0.00  0.00    -0.030 A 
ATOM      2  C   UNL     1      -0.973  11.207  22.588  0.00  0.00    -0.039 A 
ATOM      3  C   UNL     1      -0.611  10.119  23.363  0.00  0.00    +0.030 A 
ATOM      4  N   UNL     1       0.026   9.031  22.883  0.00  0.00    -0.240 NA
ATOM      5  C   UNL     1       0.318   9.002  21.575  0.00  0.00    +0.125 A 
ATOM      6  C   UNL     1      -0.009  10.054  20.721  0.00  0.00    -0.017 A 
ATOM      7  H   UNL     1      -1.496  12.038  23.047  0.00  0.00    +0.064 HD
ATOM      8  H   UNL     1      -0.832  10.089  24.426  0.00  0.00    +0.083 HD
ATOM      9  H   UNL     1       0.237   9.997  19.664  0.00  0.00    +0.065 HD
ENDROOT
BRANCH   5  10
ATOM     10  N   UNL     1       0.971   7.903  21.011  0.00  0.00    -0.265 N 
ATOM     11  C   UNL     1       1.710   7.900  19.849  0.00  0.00    +0.268 C 
ATOM     12  O   UNL     1       1.943   8.832  19.090  0.00  0.00    -0.268 OA
ATOM     13  H   UNL     1       0.906   7.012  21.487  0.00  0.00    +0.157 HD
BRANCH  11  14
ATOM     14  C   UNL     1       2.275   6.546  19.534  0.00  0.00    +0.130 A 
ATOM     15  C   UNL     1       2.859   6.306  18.292  0.00  0.00    -0.029 A 
ATOM     16  C   UNL     1       3.373   5.039  18.038  0.00  0.00    -0.024 A 
ATOM     17  C   UNL     1       3.282   4.073  19.043  0.00  0.00    +0.187 A 
ATOM     18  C   UNL     1       2.680   4.378  20.256  0.00  0.00    +0.246 A 
ATOM     19  N   UNL     1       2.171   5.606  20.523  0.00  0.00    -0.206 NA
ATOM     20  H   UNL     1       2.909   7.091  17.542  0.00  0.00    +0.064 HD
ATOM     21  H   UNL     1       3.834   4.814  17.079  0.00  0.00    +0.064 HD
BRANCH  17  22
ATOM     22  N   UNL     1       3.816   2.757  18.808  0.00  0.00    +0.062 N 
ATOM     23  O   UNL     1       3.410   2.163  17.800  0.00  0.00    -0.126 OA
ATOM     24  O   UNL     1       4.679   2.341  19.593  0.00  0.00    -0.126 OA
ENDBRANCH  17  22
BRANCH  18  25
ATOM     25  O   UNL     1       2.550   3.387  21.204  0.00  0.00    -0.478 OA
BRANCH  25  26
ATOM     26  C   UNL     1       1.235   2.853  21.316  0.00  0.00    +0.080 C 
ATOM     27  H   UNL     1       0.587   3.519  21.898  0.00  0.00    +0.066 HD
ATOM     28  H   UNL     1       1.250   1.846  21.747  0.00  0.00    +0.066 HD
ATOM     29  H   UNL     1       0.817   2.779  20.308  0.00  0.00    +0.066 HD
ENDBRANCH  25  26
ENDBRANCH  18  25
ENDBRANCH  11  14
ENDBRANCH   5  10
BRANCH   1  30
ATOM     30  C   UNL     1      -1.028  12.326  20.286  0.00  0.00    +0.035 C 
ATOM     31  H   UNL     1      -0.539  13.234  20.659  0.00  0.00    +0.046 HD
BRANCH  30  32
ATOM     32  C   UNL     1      -2.535  12.596  20.242  0.00  0.00    -0.049 C 
ATOM     33  H   UNL     1      -2.881  12.668  19.205  0.00  0.00    +0.024 HD
ATOM     34  H   UNL     1      -2.810  13.531  20.744  0.00  0.00    +0.024 HD
ATOM     35  H   UNL     1      -3.100  11.787  20.716  0.00  0.00    +0.024 HD
ENDBRANCH  30  32
BRANCH  30  36
ATOM     36  S   UNL     1      -0.393  11.966  18.602  0.00  0.00    -0.078 S 
BRANCH  36  37
ATOM     37  C   UNL     1       1.057  12.903  18.578  0.00  0.00    +0.192 A 
ATOM     38  N   UNL     1       2.287  12.453  18.484  0.00  0.00    -0.123 NA
ATOM     39  N   UNL     1       3.133  13.540  18.494  0.00  0.00    -0.137 NA
ATOM     40  C   UNL     1       2.389  14.619  18.591  0.00  0.00    +0.120 A 
ATOM     41  N   UNL     1       1.075  14.265  18.645  0.00  0.00    -0.312 N 
ATOM     42  H   UNL     1       2.748  15.639  18.624  0.00  0.00    +0.105 HD
BRANCH  41  43
ATOM     43  C   UNL     1      -0.039  15.169  18.752  0.00  0.00    +0.015 C 
ATOM     44  H   UNL     1       0.062  15.944  17.990  0.00  0.00    +0.046 HD
ATOM     45  H   UNL     1      -0.044  15.606  19.754  0.00  0.00    +0.046 HD
ATOM     46  H   UNL     1      -0.971  14.620  18.592  0.00  0.00    +0.046 HD
ENDBRANCH  41  43
ENDBRANCH  36  37
ENDBRANCH  30  36
ENDBRANCH   1  30
TORSDOF 10
ENDMDL
MODEL 21
REMARK VINA RESULT:    -6.605      2.730      4.262
REMARK INTER + INTRA:         -10.113
REMARK INTER:                  -9.372
REMARK INTRA:                  -0.742
REMARK UNBOUND:                -0.227
REMARK  Name = 
REMARK  10 active torsions:
REMARK  status: ('A' for Active; 'I' for Inactive)
REMARK    1  A    between atoms: C_1  and  C_2
REMARK    2  A    between atoms: C_2  and  C_3
REMARK    3  A    between atoms: C_2  and  S_23
REMARK    4  A    between atoms: C_7  and  N_9
REMARK    5  A    between atoms: C_10  and  C_11
REMARK    6  A    between atoms: C_14  and  N_19
REMARK    7  A    between atoms: C_15  and  O_17
REMARK    8  A    between atoms: O_17  and  C_18
REMARK    9  A    between atoms: S_23  and  C_24
REMARK   10  A    between atoms: N_28  and  C_29
REMARK                            x       y       z     vdW  Elec       q    Type
REMARK                         _______ _______ _______ _____ _____    ______ ____
ROOT
ATOM      1  C   UNL     1      -0.617  11.689  19.369  0.00  0.00    -0.030 A 
ATOM      2  C   UNL     1       0.260  12.701  18.968  0.00  0.00    -0.039 A 
ATOM      3  C   UNL     1       1.527  12.345  18.539  0.00  0.00    +0.030 A 
ATOM      4  N   UNL     1       1.975  11.075  18.486  0.00  0.00    -0.240 NA
ATOM      5  C   UNL     1       1.143  10.100  18.880  0.00  0.00    +0.125 A 
ATOM      6  C   UNL     1      -0.149  10.367  19.327  0.00  0.00    -0.017 A 
ATOM      7  H   UNL     1      -0.020  13.748  18.994  0.00  0.00    +0.064 HD
ATOM      8  H   UNL     1       2.242  13.098  18.217  0.00  0.00    +0.083 HD
ATOM      9  H   UNL     1      -0.797   9.554  19.644  0.00  0.00    +0.065 HD
ENDROOT
BRANCH   5  10
ATOM     10  N   UNL     1       1.547   8.762  18.858  0.00  0.00    -0.265 N 
ATOM     11  C   UNL     1       1.755   7.954  19.954  0.00  0.00    +0.268 C 
ATOM     12  O   UNL     1       1.635   8.231  21.140  0.00  0.00    -0.268 OA
ATOM     13  H   UNL     1       1.707   8.325  17.959  0.00  0.00    +0.157 HD
BRANCH  11  14
ATOM     14  C   UNL     1       2.182   6.568  19.570  0.00  0.00    +0.130 A 
ATOM     15  C   UNL     1       3.104   6.383  18.542  0.00  0.00    -0.029 A 
ATOM     16  C   UNL     1       3.476   5.083  18.215  0.00  0.00    -0.024 A 
ATOM     17  C   UNL     1       2.910   4.030  18.938  0.00  0.00    +0.187 A 
ATOM     18  C   UNL     1       1.991   4.286  19.946  0.00  0.00    +0.246 A 
ATOM     19  N   UNL     1       1.613   5.545  20.279  0.00  0.00    -0.206 NA
ATOM     20  H   UNL     1       3.519   7.234  18.009  0.00  0.00    +0.064 HD
ATOM     21  H   UNL     1       4.191   4.899  17.416  0.00  0.00    +0.064 HD
BRANCH  17  22
ATOM     22  N   UNL     1       3.287   2.676  18.626  0.00  0.00    +0.062 N 
ATOM     23  O   UNL     1       2.653   2.115  17.722  0.00  0.00    -0.126 OA
ATOM     24  O   UNL     1       4.249   2.194  19.239  0.00  0.00    -0.126 OA
ENDBRANCH  17  22
BRANCH  18  25
ATOM     25  O   UNL     1       1.404   3.224  20.599  0.00  0.00    -0.478 OA
BRANCH  25  26
ATOM     26  C   UNL     1       1.992   2.914  21.858  0.00  0.00    +0.080 C 
ATOM     27  H   UNL     1       2.966   3.404  21.969  0.00  0.00    +0.066 HD
ATOM     28  H   UNL     1       2.078   1.832  22.000  0.00  0.00    +0.066 HD
ATOM     29  H   UNL     1       1.332   3.302  22.640  0.00  0.00    +0.066 HD
ENDBRANCH  25  26
ENDBRANCH  18  25
ENDBRANCH  11  14
ENDBRANCH   5  10
BRANCH   1  30
ATOM     30  C   UNL     1      -2.023  11.975  19.870  0.00  0.00    +0.035 C 
ATOM     31  H   UNL     1      -2.258  11.228  20.638  0.00  0.00    +0.046 HD
BRANCH  30  32
ATOM     32  C   UNL     1      -3.081  11.856  18.769  0.00  0.00    -0.049 C 
ATOM     33  H   UNL     1      -3.237  12.826  18.283  0.00  0.00    +0.024 HD
ATOM     34  H   UNL     1      -4.052  11.524  19.153  0.00  0.00    +0.024 HD
ATOM     35  H   UNL     1      -2.772  11.151  17.993  0.00  0.00    +0.024 HD
ENDBRANCH  30  32
BRANCH  30  36
ATOM     36  S   UNL     1      -2.079  13.642  20.636  0.00  0.00    -0.078 S 
BRANCH  36  37
ATOM     37  C   UNL     1      -3.004  13.332  22.060  0.00  0.00    +0.192 A 
ATOM     38  N   UNL     1      -4.192  12.777  22.127  0.00  0.00    -0.123 NA
ATOM     39  N   UNL     1      -4.553  12.714  23.454  0.00  0.00    -0.137 NA
ATOM     40  C   UNL     1      -3.569  13.230  24.156  0.00  0.00    +0.120 A 
ATOM     41  N   UNL     1      -2.571  13.631  23.319  0.00  0.00    -0.312 N 
ATOM     42  H   UNL     1      -3.539  13.330  25.233  0.00  0.00    +0.105 HD
BRANCH  41  43
ATOM     43  C   UNL     1      -1.331  14.242  23.716  0.00  0.00    +0.015 C 
ATOM     44  H   UNL     1      -1.537  15.245  24.094  0.00  0.00    +0.046 HD
ATOM     45  H   UNL     1      -0.664  14.282  22.849  0.00  0.00    +0.046 HD
ATOM     46  H   UNL     1      -0.864  13.644  24.503  0.00  0.00    +0.046 HD
ENDBRANCH  41  43
ENDBRANCH  36  37
ENDBRANCH  30  36
ENDBRANCH   1  30
TORSDOF 10
ENDMDL
MODEL 22
REMARK VINA RESULT:    -6.585      2.879      4.497
REMARK INTER + INTRA:         -10.084
REMARK INTER:                  -8.984
REMARK INTRA:                  -1.100
REMARK UNBOUND:                -0.227
REMARK  Name = 
REMARK  10 active torsions:
REMARK  status: ('A' for Active; 'I' for Inactive)
REMARK    1  A    between atoms: C_1  and  C_2
REMARK    2  A    between atoms: C_2  and  C_3
REMARK    3  A    between atoms: C_2  and  S_23
REMARK    4  A    between atoms: C_7  and  N_9
REMARK    5  A    between atoms: C_10  and  C_11
REMARK    6  A    between atoms: C_14  and  N_19
REMARK    7  A    between atoms: C_15  and  O_17
REMARK    8  A    between atoms: O_17  and  C_18
REMARK    9  A    between atoms: S_23  and  C_24
REMARK   10  A    between atoms: N_28  and  C_29
REMARK                            x       y       z     vdW  Elec       q    Type
REMARK                         _______ _______ _______ _____ _____    ______ ____
ROOT
ATOM      1  C   UNL     1      -0.640  12.245  20.834  0.00  0.00    -0.030 A 
ATOM      2  C   UNL     1      -1.774  12.409  20.034  0.00  0.00    -0.039 A 
ATOM      3  C   UNL     1      -2.028  11.471  19.047  0.00  0.00    +0.030 A 
ATOM      4  N   UNL     1      -1.242  10.402  18.804  0.00  0.00    -0.240 NA
ATOM      5  C   UNL     1      -0.145  10.246  19.560  0.00  0.00    +0.125 A 
ATOM      6  C   UNL     1       0.187  11.141  20.575  0.00  0.00    -0.017 A 
ATOM      7  H   UNL     1      -2.449  13.248  20.157  0.00  0.00    +0.064 HD
ATOM      8  H   UNL     1      -2.898  11.557  18.402  0.00  0.00    +0.083 HD
ATOM      9  H   UNL     1       1.085  10.988  21.167  0.00  0.00    +0.065 HD
ENDROOT
BRANCH   5  10
ATOM     10  N   UNL     1       0.716   9.165  19.357  0.00  0.00    -0.265 N 
ATOM     11  C   UNL     1       1.796   9.132  18.502  0.00  0.00    +0.268 C 
ATOM     12  O   UNL     1       2.213  10.015  17.765  0.00  0.00    -0.268 OA
ATOM     13  H   UNL     1       0.548   8.314  19.877  0.00  0.00    +0.157 HD
BRANCH  11  14
ATOM     14  C   UNL     1       2.508   7.811  18.530  0.00  0.00    +0.130 A 
ATOM     15  C   UNL     1       3.402   7.479  17.515  0.00  0.00    -0.029 A 
ATOM     16  C   UNL     1       4.043   6.246  17.578  0.00  0.00    -0.024 A 
ATOM     17  C   UNL     1       3.761   5.406  18.658  0.00  0.00    +0.187 A 
ATOM     18  C   UNL     1       2.853   5.797  19.631  0.00  0.00    +0.246 A 
ATOM     19  N   UNL     1       2.215   6.993  19.589  0.00  0.00    -0.206 NA
ATOM     20  H   UNL     1       3.590   8.167  16.695  0.00  0.00    +0.064 HD
ATOM     21  H   UNL     1       4.746   5.951  16.801  0.00  0.00    +0.064 HD
BRANCH  17  22
ATOM     22  N   UNL     1       4.421   4.130  18.750  0.00  0.00    +0.062 N 
ATOM     23  O   UNL     1       3.871   3.176  18.182  0.00  0.00    -0.126 OA
ATOM     24  O   UNL     1       5.510   4.090  19.338  0.00  0.00    -0.126 OA
ENDBRANCH  17  22
BRANCH  18  25
ATOM     25  O   UNL     1       2.549   4.922  20.651  0.00  0.00    -0.478 OA
BRANCH  25  26
ATOM     26  C   UNL     1       1.250   4.348  20.562  0.00  0.00    +0.080 C 
ATOM     27  H   UNL     1       0.546   4.861  21.226  0.00  0.00    +0.066 HD
ATOM     28  H   UNL     1       1.276   3.273  20.772  0.00  0.00    +0.066 HD
ATOM     29  H   UNL     1       0.896   4.479  19.535  0.00  0.00    +0.066 HD
ENDBRANCH  25  26
ENDBRANCH  18  25
ENDBRANCH  11  14
ENDBRANCH   5  10
BRANCH   1  30
ATOM     30  C   UNL     1      -0.265  13.226  21.933  0.00  0.00    +0.035 C 
ATOM     31  H   UNL     1       0.690  12.895  22.359  0.00  0.00    +0.046 HD
BRANCH  30  32
ATOM     32  C   UNL     1      -1.291  13.266  23.069  0.00  0.00    -0.049 C 
ATOM     33  H   UNL     1      -1.162  14.173  23.670  0.00  0.00    +0.024 HD
ATOM     34  H   UNL     1      -1.202  12.409  23.747  0.00  0.00    +0.024 HD
ATOM     35  H   UNL     1      -2.315  13.277  22.682  0.00  0.00    +0.024 HD
ENDBRANCH  30  32
BRANCH  30  36
ATOM     36  S   UNL     1      -0.037  14.900  21.216  0.00  0.00    -0.078 S 
BRANCH  36  37
ATOM     37  C   UNL     1       1.280  14.631  20.133  0.00  0.00    +0.192 A 
ATOM     38  N   UNL     1       1.211  14.435  18.837  0.00  0.00    -0.123 NA
ATOM     39  N   UNL     1       2.496  14.272  18.368  0.00  0.00    -0.137 NA
ATOM     40  C   UNL     1       3.308  14.378  19.395  0.00  0.00    +0.120 A 
ATOM     41  N   UNL     1       2.586  14.605  20.528  0.00  0.00    -0.312 N 
ATOM     42  H   UNL     1       4.386  14.298  19.365  0.00  0.00    +0.105 HD
BRANCH  41  43
ATOM     43  C   UNL     1       3.122  14.778  21.851  0.00  0.00    +0.015 C 
ATOM     44  H   UNL     1       2.669  15.663  22.303  0.00  0.00    +0.046 HD
ATOM     45  H   UNL     1       4.208  14.890  21.780  0.00  0.00    +0.046 HD
ATOM     46  H   UNL     1       2.888  13.899  22.458  0.00  0.00    +0.046 HD
ENDBRANCH  41  43
ENDBRANCH  36  37
ENDBRANCH  30  36
ENDBRANCH   1  30
TORSDOF 10
ENDMDL
MODEL 23
REMARK VINA RESULT:    -6.558      2.432      3.542
REMARK INTER + INTRA:         -10.043
REMARK INTER:                  -9.488
REMARK INTRA:                  -0.556
REMARK UNBOUND:                -0.227
REMARK  Name = 
REMARK  10 active torsions:
REMARK  status: ('A' for Active; 'I' for Inactive)
REMARK    1  A    between atoms: C_1  and  C_2
REMARK    2  A    between atoms: C_2  and  C_3
REMARK    3  A    between atoms: C_2  and  S_23
REMARK    4  A    between atoms: C_7  and  N_9
REMARK    5  A    between atoms: C_10  and  C_11
REMARK    6  A    between atoms: C_14  and  N_19
REMARK    7  A    between atoms: C_15  and  O_17
REMARK    8  A    between atoms: O_17  and  C_18
REMARK    9  A    between atoms: S_23  and  C_24
REMARK   10  A    between atoms: N_28  and  C_29
REMARK                            x       y       z     vdW  Elec       q    Type
REMARK                         _______ _______ _______ _____ _____    ______ ____
ROOT
ATOM      1  C   UNL     1      -0.058  11.300  20.934  0.00  0.00    -0.030 A 
ATOM      2  C   UNL     1      -0.255  12.012  19.748  0.00  0.00    -0.039 A 
ATOM      3  C   UNL     1       0.104  11.414  18.552  0.00  0.00    +0.030 A 
ATOM      4  N   UNL     1       0.640  10.180  18.457  0.00  0.00    -0.240 NA
ATOM      5  C   UNL     1       0.843   9.497  19.593  0.00  0.00    +0.125 A 
ATOM      6  C   UNL     1       0.512  10.021  20.841  0.00  0.00    -0.017 A 
ATOM      7  H   UNL     1      -0.668  13.014  19.740  0.00  0.00    +0.064 HD
ATOM      8  H   UNL     1      -0.032  11.929  17.605  0.00  0.00    +0.083 HD
ATOM      9  H   UNL     1       0.694   9.443  21.742  0.00  0.00    +0.065 HD
ENDROOT
BRANCH   5  10
ATOM     10  N   UNL     1       1.402   8.216  19.567  0.00  0.00    -0.265 N 
ATOM     11  C   UNL     1       2.372   7.766  18.699  0.00  0.00    +0.268 C 
ATOM     12  O   UNL     1       2.930   8.376  17.796  0.00  0.00    -0.268 OA
ATOM     13  H   UNL     1       1.076   7.538  20.244  0.00  0.00    +0.157 HD
BRANCH  11  14
ATOM     14  C   UNL     1       2.746   6.336  18.951  0.00  0.00    +0.130 A 
ATOM     15  C   UNL     1       2.070   5.599  19.920  0.00  0.00    -0.029 A 
ATOM     16  C   UNL     1       2.445   4.275  20.125  0.00  0.00    -0.024 A 
ATOM     17  C   UNL     1       3.477   3.751  19.344  0.00  0.00    +0.187 A 
ATOM     18  C   UNL     1       4.115   4.544  18.400  0.00  0.00    +0.246 A 
ATOM     19  N   UNL     1       3.766   5.837  18.186  0.00  0.00    -0.206 NA
ATOM     20  H   UNL     1       1.270   6.050  20.502  0.00  0.00    +0.064 HD
ATOM     21  H   UNL     1       1.941   3.670  20.875  0.00  0.00    +0.064 HD
BRANCH  17  22
ATOM     22  N   UNL     1       3.876   2.380  19.529  0.00  0.00    +0.062 N 
ATOM     23  O   UNL     1       4.612   2.139  20.495  0.00  0.00    -0.126 OA
ATOM     24  O   UNL     1       3.412   1.539  18.748  0.00  0.00    -0.126 OA
ENDBRANCH  17  22
BRANCH  18  25
ATOM     25  O   UNL     1       5.171   4.017  17.689  0.00  0.00    -0.478 OA
BRANCH  25  26
ATOM     26  C   UNL     1       4.990   4.032  16.277  0.00  0.00    +0.080 C 
ATOM     27  H   UNL     1       5.955   4.054  15.756  0.00  0.00    +0.066 HD
ATOM     28  H   UNL     1       4.358   4.871  15.966  0.00  0.00    +0.066 HD
ATOM     29  H   UNL     1       4.480   3.107  15.994  0.00  0.00    +0.066 HD
ENDBRANCH  25  26
ENDBRANCH  18  25
ENDBRANCH  11  14
ENDBRANCH   5  10
BRANCH   1  30
ATOM     30  C   UNL     1      -0.403  11.872  22.299  0.00  0.00    +0.035 C 
ATOM     31  H   UNL     1       0.529  11.953  22.870  0.00  0.00    +0.046 HD
BRANCH  30  32
ATOM     32  C   UNL     1      -1.357  10.975  23.094  0.00  0.00    -0.049 C 
ATOM     33  H   UNL     1      -0.824  10.486  23.919  0.00  0.00    +0.024 HD
ATOM     34  H   UNL     1      -1.802  10.184  22.479  0.00  0.00    +0.024 HD
ATOM     35  H   UNL     1      -2.175  11.552  23.535  0.00  0.00    +0.024 HD
ENDBRANCH  30  32
BRANCH  30  36
ATOM     36  S   UNL     1      -1.119  13.551  22.103  0.00  0.00    -0.078 S 
BRANCH  36  37
ATOM     37  C   UNL     1      -2.810  13.206  22.125  0.00  0.00    +0.192 A 
ATOM     38  N   UNL     1      -3.521  12.676  21.157  0.00  0.00    -0.123 NA
ATOM     39  N   UNL     1      -4.820  12.569  21.600  0.00  0.00    -0.137 NA
ATOM     40  C   UNL     1      -4.858  13.034  22.829  0.00  0.00    +0.120 A 
ATOM     41  N   UNL     1      -3.613  13.445  23.201  0.00  0.00    -0.312 N 
ATOM     42  H   UNL     1      -5.734  13.091  23.461  0.00  0.00    +0.105 HD
BRANCH  41  43
ATOM     43  C   UNL     1      -3.257  14.011  24.474  0.00  0.00    +0.015 C 
ATOM     44  H   UNL     1      -2.321  14.564  24.364  0.00  0.00    +0.046 HD
ATOM     45  H   UNL     1      -3.147  13.202  25.202  0.00  0.00    +0.046 HD
ATOM     46  H   UNL     1      -4.045  14.692  24.805  0.00  0.00    +0.046 HD
ENDBRANCH  41  43
ENDBRANCH  36  37
ENDBRANCH  30  36
ENDBRANCH   1  30
TORSDOF 10
ENDMDL
MODEL 24
REMARK VINA RESULT:    -6.547      3.150      4.646
REMARK INTER + INTRA:         -10.027
REMARK INTER:                  -9.118
REMARK INTRA:                  -0.909
REMARK UNBOUND:                -0.227
REMARK  Name = 
REMARK  10 active torsions:
REMARK  status: ('A' for Active; 'I' for Inactive)
REMARK    1  A    between atoms: C_1  and  C_2
REMARK    2  A    between atoms: C_2  and  C_3
REMARK    3  A    between atoms: C_2  and  S_23
REMARK    4  A    between atoms: C_7  and  N_9
REMARK    5  A    between atoms: C_10  and  C_11
REMARK    6  A    between atoms: C_14  and  N_19
REMARK    7  A    between atoms: C_15  and  O_17
REMARK    8  A    between atoms: O_17  and  C_18
REMARK    9  A    between atoms: S_23  and  C_24
REMARK   10  A    between atoms: N_28  and  C_29
REMARK                            x       y       z     vdW  Elec       q    Type
REMARK                         _______ _______ _______ _____ _____    ______ ____
ROOT
ATOM      1  C   UNL     1      -1.119  12.268  20.285  0.00  0.00    -0.030 A 
ATOM      2  C   UNL     1      -2.145  12.409  19.347  0.00  0.00    -0.039 A 
ATOM      3  C   UNL     1      -2.241  11.476  18.328  0.00  0.00    +0.030 A 
ATOM      4  N   UNL     1      -1.399  10.434  18.179  0.00  0.00    -0.240 NA
ATOM      5  C   UNL     1      -0.404  10.300  19.069  0.00  0.00    +0.125 A 
ATOM      6  C   UNL     1      -0.233  11.192  20.126  0.00  0.00    -0.017 A 
ATOM      7  H   UNL     1      -2.855  13.227  19.389  0.00  0.00    +0.064 HD
ATOM      8  H   UNL     1      -3.023  11.545  17.577  0.00  0.00    +0.083 HD
ATOM      9  H   UNL     1       0.586  11.057  20.827  0.00  0.00    +0.065 HD
ENDROOT
BRANCH   5  10
ATOM     10  N   UNL     1       0.509   9.247  18.968  0.00  0.00    -0.265 N 
ATOM     11  C   UNL     1       1.740   9.290  18.353  0.00  0.00    +0.268 C 
ATOM     12  O   UNL     1       2.275  10.231  17.783  0.00  0.00    -0.268 OA
ATOM     13  H   UNL     1       0.260   8.356  19.381  0.00  0.00    +0.157 HD
BRANCH  11  14
ATOM     14  C   UNL     1       2.465   7.979  18.431  0.00  0.00    +0.130 A 
ATOM     15  C   UNL     1       3.374   7.625  17.438  0.00  0.00    -0.029 A 
ATOM     16  C   UNL     1       4.028   6.401  17.546  0.00  0.00    -0.024 A 
ATOM     17  C   UNL     1       3.742   5.593  18.649  0.00  0.00    +0.187 A 
ATOM     18  C   UNL     1       2.819   6.004  19.599  0.00  0.00    +0.246 A 
ATOM     19  N   UNL     1       2.169   7.192  19.512  0.00  0.00    -0.206 NA
ATOM     20  H   UNL     1       3.566   8.289  16.599  0.00  0.00    +0.064 HD
ATOM     21  H   UNL     1       4.743   6.090  16.787  0.00  0.00    +0.064 HD
BRANCH  17  22
ATOM     22  N   UNL     1       4.414   4.327  18.789  0.00  0.00    +0.062 N 
ATOM     23  O   UNL     1       3.868   3.346  18.267  0.00  0.00    -0.126 OA
ATOM     24  O   UNL     1       5.508   4.321  19.368  0.00  0.00    -0.126 OA
ENDBRANCH  17  22
BRANCH  18  25
ATOM     25  O   UNL     1       2.512   5.158  20.643  0.00  0.00    -0.478 OA
BRANCH  25  26
ATOM     26  C   UNL     1       1.288   4.450  20.482  0.00  0.00    +0.080 C 
ATOM     27  H   UNL     1       0.427   5.115  20.620  0.00  0.00    +0.066 HD
ATOM     28  H   UNL     1       1.233   3.592  21.160  0.00  0.00    +0.066 HD
ATOM     29  H   UNL     1       1.254   4.069  19.457  0.00  0.00    +0.066 HD
ENDBRANCH  25  26
ENDBRANCH  18  25
ENDBRANCH  11  14
ENDBRANCH   5  10
BRANCH   1  30
ATOM     30  C   UNL     1      -0.917  13.245  21.431  0.00  0.00    +0.035 C 
ATOM     31  H   UNL     1      -1.555  14.116  21.239  0.00  0.00    +0.046 HD
BRANCH  30  32
ATOM     32  C   UNL     1       0.527  13.742  21.540  0.00  0.00    -0.049 C 
ATOM     33  H   UNL     1       0.556  14.838  21.533  0.00  0.00    +0.024 HD
ATOM     34  H   UNL     1       1.156  13.394  20.713  0.00  0.00    +0.024 HD
ATOM     35  H   UNL     1       0.994  13.413  22.473  0.00  0.00    +0.024 HD
ENDBRANCH  30  32
BRANCH  30  36
ATOM     36  S   UNL     1      -1.447  12.467  23.007  0.00  0.00    -0.078 S 
BRANCH  36  37
ATOM     37  C   UNL     1      -2.587  13.624  23.592  0.00  0.00    +0.192 A 
ATOM     38  N   UNL     1      -2.371  14.570  24.476  0.00  0.00    -0.123 NA
ATOM     39  N   UNL     1      -3.548  15.267  24.642  0.00  0.00    -0.137 NA
ATOM     40  C   UNL     1      -4.444  14.723  23.850  0.00  0.00    +0.120 A 
ATOM     41  N   UNL     1      -3.883  13.685  23.168  0.00  0.00    -0.312 N 
ATOM     42  H   UNL     1      -5.474  15.037  23.743  0.00  0.00    +0.105 HD
BRANCH  41  43
ATOM     43  C   UNL     1      -4.548  12.848  22.207  0.00  0.00    +0.015 C 
ATOM     44  H   UNL     1      -5.401  12.367  22.690  0.00  0.00    +0.046 HD
ATOM     45  H   UNL     1      -3.839  12.102  21.837  0.00  0.00    +0.046 HD
ATOM     46  H   UNL     1      -4.900  13.458  21.371  0.00  0.00    +0.046 HD
ENDBRANCH  41  43
ENDBRANCH  36  37
ENDBRANCH  30  36
ENDBRANCH   1  30
TORSDOF 10
ENDMDL
MODEL 25
REMARK VINA RESULT:    -6.544      2.651      4.181
REMARK INTER + INTRA:         -10.022
REMARK INTER:                  -9.937
REMARK INTRA:                  -0.086
REMARK UNBOUND:                -0.227
REMARK  Name = 
REMARK  10 active torsions:
REMARK  status: ('A' for Active; 'I' for Inactive)
REMARK    1  A    between atoms: C_1  and  C_2
REMARK    2  A    between atoms: C_2  and  C_3
REMARK    3  A    between atoms: C_2  and  S_23
REMARK    4  A    between atoms: C_7  and  N_9
REMARK    5  A    between atoms: C_10  and  C_11
REMARK    6  A    between atoms: C_14  and  N_19
REMARK    7  A    between atoms: C_15  and  O_17
REMARK    8  A    between atoms: O_17  and  C_18
REMARK    9  A    between atoms: S_23  and  C_24
REMARK   10  A    between atoms: N_28  and  C_29
REMARK                            x       y       z     vdW  Elec       q    Type
REMARK                         _______ _______ _______ _____ _____    ______ ____
ROOT
ATOM      1  C   UNL     1      -0.108  10.825  20.278  0.00  0.00    -0.030 A 
ATOM      2  C   UNL     1      -1.095  11.127  19.337  0.00  0.00    -0.039 A 
ATOM      3  C   UNL     1      -1.037  10.512  18.098  0.00  0.00    +0.030 A 
ATOM      4  N   UNL     1      -0.078   9.635  17.737  0.00  0.00    -0.240 NA
ATOM      5  C   UNL     1       0.879   9.349  18.631  0.00  0.00    +0.125 A 
ATOM      6  C   UNL     1       0.898   9.922  19.901  0.00  0.00    -0.017 A 
ATOM      7  H   UNL     1      -1.892  11.832  19.545  0.00  0.00    +0.064 HD
ATOM      8  H   UNL     1      -1.783  10.716  17.334  0.00  0.00    +0.083 HD
ATOM      9  H   UNL     1       1.691   9.672  20.601  0.00  0.00    +0.065 HD
ENDROOT
BRANCH   5  10
ATOM     10  N   UNL     1       1.906   8.454  18.320  0.00  0.00    -0.265 N 
ATOM     11  C   UNL     1       2.322   7.389  19.088  0.00  0.00    +0.268 C 
ATOM     12  O   UNL     1       1.891   7.016  20.171  0.00  0.00    -0.268 OA
ATOM     13  H   UNL     1       2.406   8.584  17.450  0.00  0.00    +0.157 HD
BRANCH  11  14
ATOM     14  C   UNL     1       3.450   6.632  18.453  0.00  0.00    +0.130 A 
ATOM     15  C   UNL     1       4.123   7.172  17.359  0.00  0.00    -0.029 A 
ATOM     16  C   UNL     1       5.165   6.440  16.798  0.00  0.00    -0.024 A 
ATOM     17  C   UNL     1       5.487   5.204  17.363  0.00  0.00    +0.187 A 
ATOM     18  C   UNL     1       4.770   4.723  18.449  0.00  0.00    +0.246 A 
ATOM     19  N   UNL     1       3.749   5.418  19.010  0.00  0.00    -0.206 NA
ATOM     20  H   UNL     1       3.837   8.140  16.955  0.00  0.00    +0.064 HD
ATOM     21  H   UNL     1       5.711   6.829  15.941  0.00  0.00    +0.064 HD
BRANCH  17  22
ATOM     22  N   UNL     1       6.569   4.434  16.807  0.00  0.00    +0.062 N 
ATOM     23  O   UNL     1       7.658   4.499  17.394  0.00  0.00    -0.126 OA
ATOM     24  O   UNL     1       6.319   3.724  15.825  0.00  0.00    -0.126 OA
ENDBRANCH  17  22
BRANCH  18  25
ATOM     25  O   UNL     1       5.070   3.473  18.946  0.00  0.00    -0.478 OA
BRANCH  25  26
ATOM     26  C   UNL     1       3.995   2.844  19.636  0.00  0.00    +0.080 C 
ATOM     27  H   UNL     1       4.168   1.766  19.735  0.00  0.00    +0.066 HD
ATOM     28  H   UNL     1       3.037   3.043  19.144  0.00  0.00    +0.066 HD
ATOM     29  H   UNL     1       3.949   3.269  20.643  0.00  0.00    +0.066 HD
ENDBRANCH  25  26
ENDBRANCH  18  25
ENDBRANCH  11  14
ENDBRANCH   5  10
BRANCH   1  30
ATOM     30  C   UNL     1      -0.073  11.457  21.660  0.00  0.00    +0.035 C 
ATOM     31  H   UNL     1       0.977  11.513  21.971  0.00  0.00    +0.046 HD
BRANCH  30  32
ATOM     32  C   UNL     1      -0.824  10.631  22.709  0.00  0.00    -0.049 C 
ATOM     33  H   UNL     1      -0.190  10.459  23.587  0.00  0.00    +0.024 HD
ATOM     34  H   UNL     1      -1.131   9.649  22.331  0.00  0.00    +0.024 HD
ATOM     35  H   UNL     1      -1.723  11.149  23.056  0.00  0.00    +0.024 HD
ENDBRANCH  30  32
BRANCH  30  36
ATOM     36  S   UNL     1      -0.753  13.160  21.578  0.00  0.00    -0.078 S 
BRANCH  36  37
ATOM     37  C   UNL     1      -2.235  12.976  22.444  0.00  0.00    +0.192 A 
ATOM     38  N   UNL     1      -2.386  12.901  23.746  0.00  0.00    -0.123 NA
ATOM     39  N   UNL     1      -3.732  12.768  24.006  0.00  0.00    -0.137 NA
ATOM     40  C   UNL     1      -4.359  12.769  22.851  0.00  0.00    +0.120 A 
ATOM     41  N   UNL     1      -3.456  12.900  21.839  0.00  0.00    -0.312 N 
ATOM     42  H   UNL     1      -5.428  12.681  22.707  0.00  0.00    +0.105 HD
BRANCH  41  43
ATOM     43  C   UNL     1      -3.761  12.944  20.435  0.00  0.00    +0.015 C 
ATOM     44  H   UNL     1      -2.885  13.310  19.895  0.00  0.00    +0.046 HD
ATOM     45  H   UNL     1      -4.618  13.605  20.280  0.00  0.00    +0.046 HD
ATOM     46  H   UNL     1      -4.011  11.939  20.083  0.00  0.00    +0.046 HD
ENDBRANCH  41  43
ENDBRANCH  36  37
ENDBRANCH  30  36
ENDBRANCH   1  30
TORSDOF 10
ENDMDL
MODEL 26
REMARK VINA RESULT:    -6.538      3.738      8.732
REMARK INTER + INTRA:         -10.013
REMARK INTER:                  -9.259
REMARK INTRA:                  -0.755
REMARK UNBOUND:                -0.227
REMARK  Name = 
REMARK  10 active torsions:
REMARK  status: ('A' for Active; 'I' for Inactive)
REMARK    1  A    between atoms: C_1  and  C_2
REMARK    2  A    between atoms: C_2  and  C_3
REMARK    3  A    between atoms: C_2  and  S_23
REMARK    4  A    between atoms: C_7  and  N_9
REMARK    5  A    between atoms: C_10  and  C_11
REMARK    6  A    between atoms: C_14  and  N_19
REMARK    7  A    between atoms: C_15  and  O_17
REMARK    8  A    between atoms: O_17  and  C_18
REMARK    9  A    between atoms: S_23  and  C_24
REMARK   10  A    between atoms: N_28  and  C_29
REMARK                            x       y       z     vdW  Elec       q    Type
REMARK                         _______ _______ _______ _____ _____    ______ ____
ROOT
ATOM      1  C   UNL     1       4.289   5.902  18.516  0.00  0.00    -0.030 A 
ATOM      2  C   UNL     1       4.376   6.184  17.150  0.00  0.00    -0.039 A 
ATOM      3  C   UNL     1       3.633   7.238  16.644  0.00  0.00    +0.030 A 
ATOM      4  N   UNL     1       2.821   8.013  17.391  0.00  0.00    -0.240 NA
ATOM      5  C   UNL     1       2.723   7.740  18.700  0.00  0.00    +0.125 A 
ATOM      6  C   UNL     1       3.434   6.699  19.293  0.00  0.00    -0.017 A 
ATOM      7  H   UNL     1       4.996   5.599  16.480  0.00  0.00    +0.064 HD
ATOM      8  H   UNL     1       3.671   7.494  15.589  0.00  0.00    +0.083 HD
ATOM      9  H   UNL     1       3.329   6.501  20.356  0.00  0.00    +0.065 HD
ENDROOT
BRANCH   5  10
ATOM     10  N   UNL     1       1.894   8.499  19.529  0.00  0.00    -0.265 N 
ATOM     11  C   UNL     1       1.227   8.051  20.648  0.00  0.00    +0.268 C 
ATOM     12  O   UNL     1       1.222   6.928  21.134  0.00  0.00    -0.268 OA
ATOM     13  H   UNL     1       1.755   9.476  19.303  0.00  0.00    +0.157 HD
BRANCH  11  14
ATOM     14  C   UNL     1       0.423   9.133  21.307  0.00  0.00    +0.130 A 
ATOM     15  C   UNL     1       0.088   9.030  22.655  0.00  0.00    -0.029 A 
ATOM     16  C   UNL     1      -0.657  10.055  23.230  0.00  0.00    -0.024 A 
ATOM     17  C   UNL     1      -1.026  11.137  22.428  0.00  0.00    +0.187 A 
ATOM     18  C   UNL     1      -0.665  11.172  21.089  0.00  0.00    +0.246 A 
ATOM     19  N   UNL     1       0.059  10.183  20.507  0.00  0.00    -0.206 NA
ATOM     20  H   UNL     1       0.402   8.169  23.239  0.00  0.00    +0.064 HD
ATOM     21  H   UNL     1      -0.939  10.007  24.280  0.00  0.00    +0.064 HD
BRANCH  17  22
ATOM     22  N   UNL     1      -1.788  12.214  23.003  0.00  0.00    +0.062 N 
ATOM     23  O   UNL     1      -3.003  12.024  23.145  0.00  0.00    -0.126 OA
ATOM     24  O   UNL     1      -1.168  13.223  23.365  0.00  0.00    -0.126 OA
ENDBRANCH  17  22
BRANCH  18  25
ATOM     25  O   UNL     1      -1.097  12.222  20.308  0.00  0.00    -0.478 OA
BRANCH  25  26
ATOM     26  C   UNL     1      -2.104  11.873  19.364  0.00  0.00    +0.080 C 
ATOM     27  H   UNL     1      -2.227  12.659  18.610  0.00  0.00    +0.066 HD
ATOM     28  H   UNL     1      -3.055  11.654  19.860  0.00  0.00    +0.066 HD
ATOM     29  H   UNL     1      -1.779  10.965  18.848  0.00  0.00    +0.066 HD
ENDBRANCH  25  26
ENDBRANCH  18  25
ENDBRANCH  11  14
ENDBRANCH   5  10
BRANCH   1  30
ATOM     30  C   UNL     1       5.050   4.759  19.166  0.00  0.00    +0.035 C 
ATOM     31  H   UNL     1       4.959   4.877  20.253  0.00  0.00    +0.046 HD
BRANCH  30  32
ATOM     32  C   UNL     1       6.543   4.769  18.822  0.00  0.00    -0.049 C 
ATOM     33  H   UNL     1       6.686   4.717  17.737  0.00  0.00    +0.024 HD
ATOM     34  H   UNL     1       7.082   3.922  19.263  0.00  0.00    +0.024 HD
ATOM     35  H   UNL     1       7.026   5.687  19.169  0.00  0.00    +0.024 HD
ENDBRANCH  30  32
BRANCH  30  36
ATOM     36  S   UNL     1       4.292   3.158  18.685  0.00  0.00    -0.078 S 
BRANCH  36  37
ATOM     37  C   UNL     1       2.905   3.115  19.711  0.00  0.00    +0.192 A 
ATOM     38  N   UNL     1       2.866   2.750  20.972  0.00  0.00    -0.123 NA
ATOM     39  N   UNL     1       1.565   2.876  21.405  0.00  0.00    -0.137 NA
ATOM     40  C   UNL     1       0.852   3.317  20.393  0.00  0.00    +0.120 A 
ATOM     41  N   UNL     1       1.656   3.484  19.305  0.00  0.00    -0.312 N 
ATOM     42  H   UNL     1      -0.210   3.523  20.403  0.00  0.00    +0.105 HD
BRANCH  41  43
ATOM     43  C   UNL     1       1.240   3.953  18.011  0.00  0.00    +0.015 C 
ATOM     44  H   UNL     1       0.343   3.409  17.711  0.00  0.00    +0.046 HD
ATOM     45  H   UNL     1       2.053   3.788  17.298  0.00  0.00    +0.046 HD
ATOM     46  H   UNL     1       1.017   5.022  18.065  0.00  0.00    +0.046 HD
ENDBRANCH  41  43
ENDBRANCH  36  37
ENDBRANCH  30  36
ENDBRANCH   1  30
TORSDOF 10
ENDMDL
MODEL 27
REMARK VINA RESULT:    -6.538      4.377      9.567
REMARK INTER + INTRA:         -10.013
REMARK INTER:                  -9.453
REMARK INTRA:                  -0.560
REMARK UNBOUND:                -0.227
REMARK  Name = 
REMARK  10 active torsions:
REMARK  status: ('A' for Active; 'I' for Inactive)
REMARK    1  A    between atoms: C_1  and  C_2
REMARK    2  A    between atoms: C_2  and  C_3
REMARK    3  A    between atoms: C_2  and  S_23
REMARK    4  A    between atoms: C_7  and  N_9
REMARK    5  A    between atoms: C_10  and  C_11
REMARK    6  A    between atoms: C_14  and  N_19
REMARK    7  A    between atoms: C_15  and  O_17
REMARK    8  A    between atoms: O_17  and  C_18
REMARK    9  A    between atoms: S_23  and  C_24
REMARK   10  A    between atoms: N_28  and  C_29
REMARK                            x       y       z     vdW  Elec       q    Type
REMARK                         _______ _______ _______ _____ _____    ______ ____
ROOT
ATOM      1  C   UNL     1       2.798   6.475  18.894  0.00  0.00    -0.030 A 
ATOM      2  C   UNL     1       3.375   6.998  17.733  0.00  0.00    -0.039 A 
ATOM      3  C   UNL     1       3.103   8.313  17.395  0.00  0.00    +0.030 A 
ATOM      4  N   UNL     1       2.306   9.127  18.117  0.00  0.00    -0.240 NA
ATOM      5  C   UNL     1       1.740   8.628  19.225  0.00  0.00    +0.125 A 
ATOM      6  C   UNL     1       1.959   7.316  19.640  0.00  0.00    -0.017 A 
ATOM      7  H   UNL     1       4.016   6.405  17.092  0.00  0.00    +0.064 HD
ATOM      8  H   UNL     1       3.530   8.762  16.502  0.00  0.00    +0.083 HD
ATOM      9  H   UNL     1       1.480   6.941  20.541  0.00  0.00    +0.065 HD
ENDROOT
BRANCH   5  10
ATOM     10  N   UNL     1       0.897   9.415  20.015  0.00  0.00    -0.265 N 
ATOM     11  C   UNL     1      -0.157  10.182  19.570  0.00  0.00    +0.268 C 
ATOM     12  O   UNL     1      -0.563  10.331  18.425  0.00  0.00    -0.268 OA
ATOM     13  H   UNL     1       1.061   9.438  21.013  0.00  0.00    +0.157 HD
BRANCH  11  14
ATOM     14  C   UNL     1      -0.853  10.901  20.688  0.00  0.00    +0.130 A 
ATOM     15  C   UNL     1      -0.600  10.543  22.011  0.00  0.00    -0.029 A 
ATOM     16  C   UNL     1      -1.264  11.232  23.020  0.00  0.00    -0.024 A 
ATOM     17  C   UNL     1      -2.146  12.253  22.656  0.00  0.00    +0.187 A 
ATOM     18  C   UNL     1      -2.357  12.552  21.318  0.00  0.00    +0.246 A 
ATOM     19  N   UNL     1      -1.722  11.891  20.318  0.00  0.00    -0.206 NA
ATOM     20  H   UNL     1       0.098   9.743  22.245  0.00  0.00    +0.064 HD
ATOM     21  H   UNL     1      -1.093  10.979  24.064  0.00  0.00    +0.064 HD
BRANCH  17  22
ATOM     22  N   UNL     1      -2.836  12.989  23.683  0.00  0.00    +0.062 N 
ATOM     23  O   UNL     1      -3.877  12.483  24.126  0.00  0.00    -0.126 OA
ATOM     24  O   UNL     1      -2.314  14.036  24.085  0.00  0.00    -0.126 OA
ENDBRANCH  17  22
BRANCH  18  25
ATOM     25  O   UNL     1      -3.279  13.522  20.988  0.00  0.00    -0.478 OA
BRANCH  25  26
ATOM     26  C   UNL     1      -4.475  13.017  20.403  0.00  0.00    +0.080 C 
ATOM     27  H   UNL     1      -5.007  12.359  21.099  0.00  0.00    +0.066 HD
ATOM     28  H   UNL     1      -4.268  12.502  19.459  0.00  0.00    +0.066 HD
ATOM     29  H   UNL     1      -5.125  13.868  20.184  0.00  0.00    +0.066 HD
ENDBRANCH  25  26
ENDBRANCH  18  25
ENDBRANCH  11  14
ENDBRANCH   5  10
BRANCH   1  30
ATOM     30  C   UNL     1       3.021   5.041  19.344  0.00  0.00    +0.035 C 
ATOM     31  H   UNL     1       2.695   4.384  18.530  0.00  0.00    +0.046 HD
BRANCH  30  32
ATOM     32  C   UNL     1       2.206   4.677  20.589  0.00  0.00    -0.049 C 
ATOM     33  H   UNL     1       2.061   5.559  21.223  0.00  0.00    +0.024 HD
ATOM     34  H   UNL     1       2.694   3.911  21.202  0.00  0.00    +0.024 HD
ATOM     35  H   UNL     1       1.213   4.305  20.321  0.00  0.00    +0.024 HD
ENDBRANCH  30  32
BRANCH  30  36
ATOM     36  S   UNL     1       4.810   4.759  19.645  0.00  0.00    -0.078 S 
BRANCH  36  37
ATOM     37  C   UNL     1       5.375   4.426  18.048  0.00  0.00    +0.192 A 
ATOM     38  N   UNL     1       4.740   3.769  17.105  0.00  0.00    -0.123 NA
ATOM     39  N   UNL     1       5.549   3.745  15.992  0.00  0.00    -0.137 NA
ATOM     40  C   UNL     1       6.653   4.392  16.292  0.00  0.00    +0.120 A 
ATOM     41  N   UNL     1       6.587   4.840  17.577  0.00  0.00    -0.312 N 
ATOM     42  H   UNL     1       7.495   4.554  15.632  0.00  0.00    +0.105 HD
BRANCH  41  43
ATOM     43  C   UNL     1       7.603   5.591  18.263  0.00  0.00    +0.015 C 
ATOM     44  H   UNL     1       7.384   6.656  18.160  0.00  0.00    +0.046 HD
ATOM     45  H   UNL     1       8.576   5.349  17.826  0.00  0.00    +0.046 HD
ATOM     46  H   UNL     1       7.604   5.321  19.322  0.00  0.00    +0.046 HD
ENDBRANCH  41  43
ENDBRANCH  36  37
ENDBRANCH  30  36
ENDBRANCH   1  30
TORSDOF 10
ENDMDL
MODEL 28
REMARK VINA RESULT:    -6.526      4.062      9.456
REMARK INTER + INTRA:          -9.996
REMARK INTER:                  -9.247
REMARK INTRA:                  -0.749
REMARK UNBOUND:                -0.227
REMARK  Name = 
REMARK  10 active torsions:
REMARK  status: ('A' for Active; 'I' for Inactive)
REMARK    1  A    between atoms: C_1  and  C_2
REMARK    2  A    between atoms: C_2  and  C_3
REMARK    3  A    between atoms: C_2  and  S_23
REMARK    4  A    between atoms: C_7  and  N_9
REMARK    5  A    between atoms: C_10  and  C_11
REMARK    6  A    between atoms: C_14  and  N_19
REMARK    7  A    between atoms: C_15  and  O_17
REMARK    8  A    between atoms: O_17  and  C_18
REMARK    9  A    between atoms: S_23  and  C_24
REMARK   10  A    between atoms: N_28  and  C_29
REMARK                            x       y       z     vdW  Elec       q    Type
REMARK                         _______ _______ _______ _____ _____    ______ ____
ROOT
ATOM      1  C   UNL     1       4.412   5.023  17.009  0.00  0.00    -0.030 A 
ATOM      2  C   UNL     1       3.899   3.845  17.557  0.00  0.00    -0.039 A 
ATOM      3  C   UNL     1       2.826   3.935  18.428  0.00  0.00    +0.030 A 
ATOM      4  N   UNL     1       2.242   5.097  18.787  0.00  0.00    -0.240 NA
ATOM      5  C   UNL     1       2.738   6.232  18.274  0.00  0.00    +0.125 A 
ATOM      6  C   UNL     1       3.816   6.235  17.390  0.00  0.00    -0.017 A 
ATOM      7  H   UNL     1       4.320   2.873  17.329  0.00  0.00    +0.064 HD
ATOM      8  H   UNL     1       2.393   3.046  18.878  0.00  0.00    +0.083 HD
ATOM      9  H   UNL     1       4.197   7.173  16.996  0.00  0.00    +0.065 HD
ENDROOT
BRANCH   5  10
ATOM     10  N   UNL     1       2.186   7.470  18.610  0.00  0.00    -0.265 N 
ATOM     11  C   UNL     1       1.680   7.832  19.840  0.00  0.00    +0.268 C 
ATOM     12  O   UNL     1       1.611   7.163  20.862  0.00  0.00    -0.268 OA
ATOM     13  H   UNL     1       2.143   8.186  17.896  0.00  0.00    +0.157 HD
BRANCH  11  14
ATOM     14  C   UNL     1       1.166   9.241  19.855  0.00  0.00    +0.130 A 
ATOM     15  C   UNL     1       1.168   9.996  18.684  0.00  0.00    -0.029 A 
ATOM     16  C   UNL     1       0.682  11.299  18.738  0.00  0.00    -0.024 A 
ATOM     17  C   UNL     1       0.212  11.781  19.961  0.00  0.00    +0.187 A 
ATOM     18  C   UNL     1       0.247  10.976  21.092  0.00  0.00    +0.246 A 
ATOM     19  N   UNL     1       0.718   9.705  21.062  0.00  0.00    -0.206 NA
ATOM     20  H   UNL     1       1.542   9.576  17.754  0.00  0.00    +0.064 HD
ATOM     21  H   UNL     1       0.671  11.919  17.844  0.00  0.00    +0.064 HD
BRANCH  17  22
ATOM     22  N   UNL     1      -0.305  13.122  20.040  0.00  0.00    +0.062 N 
ATOM     23  O   UNL     1      -1.531  13.254  19.918  0.00  0.00    -0.126 OA
ATOM     24  O   UNL     1       0.499  14.032  20.278  0.00  0.00    -0.126 OA
ENDBRANCH  17  22
BRANCH  18  25
ATOM     25  O   UNL     1      -0.166  11.501  22.297  0.00  0.00    -0.478 OA
BRANCH  25  26
ATOM     26  C   UNL     1      -1.030  10.649  23.041  0.00  0.00    +0.080 C 
ATOM     27  H   UNL     1      -2.003  10.546  22.547  0.00  0.00    +0.066 HD
ATOM     28  H   UNL     1      -1.149  11.004  24.070  0.00  0.00    +0.066 HD
ATOM     29  H   UNL     1      -0.569   9.658  23.081  0.00  0.00    +0.066 HD
ENDBRANCH  25  26
ENDBRANCH  18  25
ENDBRANCH  11  14
ENDBRANCH   5  10
BRANCH   1  30
ATOM     30  C   UNL     1       5.596   5.035  16.056  0.00  0.00    +0.035 C 
ATOM     31  H   UNL     1       5.661   6.039  15.621  0.00  0.00    +0.046 HD
BRANCH  30  32
ATOM     32  C   UNL     1       5.439   4.039  14.903  0.00  0.00    -0.049 C 
ATOM     33  H   UNL     1       5.439   4.565  13.941  0.00  0.00    +0.024 HD
ATOM     34  H   UNL     1       4.506   3.469  14.963  0.00  0.00    +0.024 HD
ATOM     35  H   UNL     1       6.265   3.322  14.879  0.00  0.00    +0.024 HD
ENDBRANCH  30  32
BRANCH  30  36
ATOM     36  S   UNL     1       7.142   4.698  16.987  0.00  0.00    -0.078 S 
BRANCH  36  37
ATOM     37  C   UNL     1       7.577   6.285  17.510  0.00  0.00    +0.192 A 
ATOM     38  N   UNL     1       7.528   7.391  16.805  0.00  0.00    -0.123 NA
ATOM     39  N   UNL     1       7.955   8.422  17.611  0.00  0.00    -0.137 NA
ATOM     40  C   UNL     1       8.248   7.910  18.785  0.00  0.00    +0.120 A 
ATOM     41  N   UNL     1       8.024   6.566  18.768  0.00  0.00    -0.312 N 
ATOM     42  H   UNL     1       8.614   8.457  19.645  0.00  0.00    +0.105 HD
BRANCH  41  43
ATOM     43  C   UNL     1       8.229   5.662  19.867  0.00  0.00    +0.015 C 
ATOM     44  H   UNL     1       8.630   4.723  19.479  0.00  0.00    +0.046 HD
ATOM     45  H   UNL     1       7.272   5.498  20.371  0.00  0.00    +0.046 HD
ATOM     46  H   UNL     1       8.940   6.099  20.572  0.00  0.00    +0.046 HD
ENDBRANCH  41  43
ENDBRANCH  36  37
ENDBRANCH  30  36
ENDBRANCH   1  30
TORSDOF 10
ENDMDL
MODEL 29
REMARK VINA RESULT:    -6.507      2.004      3.024
REMARK INTER + INTRA:          -9.967
REMARK INTER:                  -9.633
REMARK INTRA:                  -0.334
REMARK UNBOUND:                -0.227
REMARK  Name = 
REMARK  10 active torsions:
REMARK  status: ('A' for Active; 'I' for Inactive)
REMARK    1  A    between atoms: C_1  and  C_2
REMARK    2  A    between atoms: C_2  and  C_3
REMARK    3  A    between atoms: C_2  and  S_23
REMARK    4  A    between atoms: C_7  and  N_9
REMARK    5  A    between atoms: C_10  and  C_11
REMARK    6  A    between atoms: C_14  and  N_19
REMARK    7  A    between atoms: C_15  and  O_17
REMARK    8  A    between atoms: O_17  and  C_18
REMARK    9  A    between atoms: S_23  and  C_24
REMARK   10  A    between atoms: N_28  and  C_29
REMARK                            x       y       z     vdW  Elec       q    Type
REMARK                         _______ _______ _______ _____ _____    ______ ____
ROOT
ATOM      1  C   UNL     1       0.317  10.844  20.940  0.00  0.00    -0.030 A 
ATOM      2  C   UNL     1      -0.408  10.227  21.962  0.00  0.00    -0.039 A 
ATOM      3  C   UNL     1      -0.285   8.857  22.126  0.00  0.00    +0.030 A 
ATOM      4  N   UNL     1       0.494   8.073  21.353  0.00  0.00    -0.240 NA
ATOM      5  C   UNL     1       1.183   8.657  20.363  0.00  0.00    +0.125 A 
ATOM      6  C   UNL     1       1.119  10.029  20.126  0.00  0.00    -0.017 A 
ATOM      7  H   UNL     1      -1.067  10.785  22.618  0.00  0.00    +0.064 HD
ATOM      8  H   UNL     1      -0.829   8.335  22.908  0.00  0.00    +0.083 HD
ATOM      9  H   UNL     1       1.687  10.470  19.311  0.00  0.00    +0.065 HD
ENDROOT
BRANCH   5  10
ATOM     10  N   UNL     1       2.004   7.903  19.520  0.00  0.00    -0.265 N 
ATOM     11  C   UNL     1       2.291   6.561  19.647  0.00  0.00    +0.268 C 
ATOM     12  O   UNL     1       1.900   5.775  20.500  0.00  0.00    -0.268 OA
ATOM     13  H   UNL     1       2.439   8.367  18.734  0.00  0.00    +0.157 HD
BRANCH  11  14
ATOM     14  C   UNL     1       3.206   6.067  18.566  0.00  0.00    +0.130 A 
ATOM     15  C   UNL     1       3.887   6.977  17.760  0.00  0.00    -0.029 A 
ATOM     16  C   UNL     1       4.727   6.480  16.769  0.00  0.00    -0.024 A 
ATOM     17  C   UNL     1       4.850   5.095  16.636  0.00  0.00    +0.187 A 
ATOM     18  C   UNL     1       4.137   4.246  17.470  0.00  0.00    +0.246 A 
ATOM     19  N   UNL     1       3.310   4.708  18.440  0.00  0.00    -0.206 NA
ATOM     20  H   UNL     1       3.760   8.047  17.902  0.00  0.00    +0.064 HD
ATOM     21  H   UNL     1       5.273   7.161  16.118  0.00  0.00    +0.064 HD
BRANCH  17  22
ATOM     22  N   UNL     1       5.723   4.557  15.625  0.00  0.00    +0.062 N 
ATOM     23  O   UNL     1       5.243   4.418  14.492  0.00  0.00    -0.126 OA
ATOM     24  O   UNL     1       6.896   4.328  15.946  0.00  0.00    -0.126 OA
ENDBRANCH  17  22
BRANCH  18  25
ATOM     25  O   UNL     1       4.231   2.885  17.275  0.00  0.00    -0.478 OA
BRANCH  25  26
ATOM     26  C   UNL     1       3.492   2.107  18.210  0.00  0.00    +0.080 C 
ATOM     27  H   UNL     1       2.754   2.722  18.739  0.00  0.00    +0.066 HD
ATOM     28  H   UNL     1       4.156   1.599  18.917  0.00  0.00    +0.066 HD
ATOM     29  H   UNL     1       2.948   1.340  17.652  0.00  0.00    +0.066 HD
ENDBRANCH  25  26
ENDBRANCH  18  25
ENDBRANCH  11  14
ENDBRANCH   5  10
BRANCH   1  30
ATOM     30  C   UNL     1       0.240  12.337  20.667  0.00  0.00    +0.035 C 
ATOM     31  H   UNL     1       1.226  12.764  20.885  0.00  0.00    +0.046 HD
BRANCH  30  32
ATOM     32  C   UNL     1      -0.783  13.050  21.557  0.00  0.00    -0.049 C 
ATOM     33  H   UNL     1      -0.295  13.837  22.145  0.00  0.00    +0.024 HD
ATOM     34  H   UNL     1      -1.273  12.371  22.263  0.00  0.00    +0.024 HD
ATOM     35  H   UNL     1      -1.565  13.530  20.961  0.00  0.00    +0.024 HD
ENDBRANCH  30  32
BRANCH  30  36
ATOM     36  S   UNL     1      -0.144  12.622  18.894  0.00  0.00    -0.078 S 
BRANCH  36  37
ATOM     37  C   UNL     1      -1.783  12.086  18.810  0.00  0.00    +0.192 A 
ATOM     38  N   UNL     1      -2.832  12.662  19.349  0.00  0.00    -0.123 NA
ATOM     39  N   UNL     1      -3.937  11.907  19.028  0.00  0.00    -0.137 NA
ATOM     40  C   UNL     1      -3.525  10.894  18.300  0.00  0.00    +0.120 A 
ATOM     41  N   UNL     1      -2.175  10.967  18.136  0.00  0.00    -0.312 N 
ATOM     42  H   UNL     1      -4.148  10.112  17.886  0.00  0.00    +0.105 HD
BRANCH  41  43
ATOM     43  C   UNL     1      -1.362  10.038  17.398  0.00  0.00    +0.015 C 
ATOM     44  H   UNL     1      -0.597  10.596  16.853  0.00  0.00    +0.046 HD
ATOM     45  H   UNL     1      -2.002   9.480  16.708  0.00  0.00    +0.046 HD
ATOM     46  H   UNL     1      -0.882   9.342  18.090  0.00  0.00    +0.046 HD
ENDBRANCH  41  43
ENDBRANCH  36  37
ENDBRANCH  30  36
ENDBRANCH   1  30
TORSDOF 10
ENDMDL
MODEL 30
REMARK VINA RESULT:    -6.427      4.358      9.279
REMARK INTER + INTRA:          -9.848
REMARK INTER:                  -9.219
REMARK INTRA:                  -0.629
REMARK UNBOUND:                -0.227
REMARK  Name = 
REMARK  10 active torsions:
REMARK  status: ('A' for Active; 'I' for Inactive)
REMARK    1  A    between atoms: C_1  and  C_2
REMARK    2  A    between atoms: C_2  and  C_3
REMARK    3  A    between atoms: C_2  and  S_23
REMARK    4  A    between atoms: C_7  and  N_9
REMARK    5  A    between atoms: C_10  and  C_11
REMARK    6  A    between atoms: C_14  and  N_19
REMARK    7  A    between atoms: C_15  and  O_17
REMARK    8  A    between atoms: O_17  and  C_18
REMARK    9  A    between atoms: S_23  and  C_24
REMARK   10  A    between atoms: N_28  and  C_29
REMARK                            x       y       z     vdW  Elec       q    Type
REMARK                         _______ _______ _______ _____ _____    ______ ____
ROOT
ATOM      1  C   UNL     1       2.745   4.794  18.783  0.00  0.00    -0.030 A 
ATOM      2  C   UNL     1       2.135   4.139  19.856  0.00  0.00    -0.039 A 
ATOM      3  C   UNL     1       1.484   4.902  20.811  0.00  0.00    +0.030 A 
ATOM      4  N   UNL     1       1.404   6.247  20.775  0.00  0.00    -0.240 NA
ATOM      5  C   UNL     1       1.998   6.882  19.754  0.00  0.00    +0.125 A 
ATOM      6  C   UNL     1       2.674   6.195  18.748  0.00  0.00    -0.017 A 
ATOM      7  H   UNL     1       2.167   3.061  19.965  0.00  0.00    +0.064 HD
ATOM      8  H   UNL     1       0.995   4.436  21.663  0.00  0.00    +0.083 HD
ATOM      9  H   UNL     1       3.149   6.741  17.937  0.00  0.00    +0.065 HD
ENDROOT
BRANCH   5  10
ATOM     10  N   UNL     1       1.959   8.276  19.659  0.00  0.00    -0.265 N 
ATOM     11  C   UNL     1       1.635   9.009  18.539  0.00  0.00    +0.268 C 
ATOM     12  O   UNL     1       1.322   8.605  17.427  0.00  0.00    -0.268 OA
ATOM     13  H   UNL     1       2.190   8.819  20.481  0.00  0.00    +0.157 HD
BRANCH  11  14
ATOM     14  C   UNL     1       1.691  10.488  18.787  0.00  0.00    +0.130 A 
ATOM     15  C   UNL     1       2.395  11.315  17.915  0.00  0.00    -0.029 A 
ATOM     16  C   UNL     1       2.423  12.681  18.178  0.00  0.00    -0.024 A 
ATOM     17  C   UNL     1       1.739  13.153  19.300  0.00  0.00    +0.187 A 
ATOM     18  C   UNL     1       1.064  12.272  20.132  0.00  0.00    +0.246 A 
ATOM     19  N   UNL     1       1.025  10.937  19.895  0.00  0.00    -0.206 NA
ATOM     20  H   UNL     1       2.911  10.900  17.052  0.00  0.00    +0.064 HD
ATOM     21  H   UNL     1       2.966  13.357  17.520  0.00  0.00    +0.064 HD
BRANCH  17  22
ATOM     22  N   UNL     1       1.744  14.564  19.587  0.00  0.00    +0.062 N 
ATOM     23  O   UNL     1       2.695  14.993  20.255  0.00  0.00    -0.126 OA
ATOM     24  O   UNL     1       0.836  15.250  19.101  0.00  0.00    -0.126 OA
ENDBRANCH  17  22
BRANCH  18  25
ATOM     25  O   UNL     1       0.451  12.761  21.265  0.00  0.00    -0.478 OA
BRANCH  25  26
ATOM     26  C   UNL     1      -0.972  12.718  21.225  0.00  0.00    +0.080 C 
ATOM     27  H   UNL     1      -1.355  11.831  21.742  0.00  0.00    +0.066 HD
ATOM     28  H   UNL     1      -1.342  12.763  20.196  0.00  0.00    +0.066 HD
ATOM     29  H   UNL     1      -1.347  13.600  21.754  0.00  0.00    +0.066 HD
ENDBRANCH  25  26
ENDBRANCH  18  25
ENDBRANCH  11  14
ENDBRANCH   5  10
BRANCH   1  30
ATOM     30  C   UNL     1       3.497   4.051  17.691  0.00  0.00    +0.035 C 
ATOM     31  H   UNL     1       3.339   4.595  16.752  0.00  0.00    +0.046 HD
BRANCH  30  32
ATOM     32  C   UNL     1       2.989   2.620  17.489  0.00  0.00    -0.049 C 
ATOM     33  H   UNL     1       2.080   2.620  16.876  0.00  0.00    +0.024 HD
ATOM     34  H   UNL     1       2.746   2.123  18.435  0.00  0.00    +0.024 HD
ATOM     35  H   UNL     1       3.729   2.003  16.971  0.00  0.00    +0.024 HD
ENDBRANCH  30  32
BRANCH  30  36
ATOM     36  S   UNL     1       5.293   4.046  18.070  0.00  0.00    -0.078 S 
BRANCH  36  37
ATOM     37  C   UNL     1       5.974   4.266  16.499  0.00  0.00    +0.192 A 
ATOM     38  N   UNL     1       5.800   3.499  15.448  0.00  0.00    -0.123 NA
ATOM     39  N   UNL     1       6.516   4.046  14.407  0.00  0.00    -0.137 NA
ATOM     40  C   UNL     1       7.101   5.133  14.857  0.00  0.00    +0.120 A 
ATOM     41  N   UNL     1       6.786   5.312  16.171  0.00  0.00    -0.312 N 
ATOM     42  H   UNL     1       7.739   5.796  14.287  0.00  0.00    +0.105 HD
BRANCH  41  43
ATOM     43  C   UNL     1       7.236   6.391  17.008  0.00  0.00    +0.015 C 
ATOM     44  H   UNL     1       7.916   5.991  17.763  0.00  0.00    +0.046 HD
ATOM     45  H   UNL     1       6.366   6.860  17.477  0.00  0.00    +0.046 HD
ATOM     46  H   UNL     1       7.763   7.131  16.399  0.00  0.00    +0.046 HD
ENDBRANCH  41  43
ENDBRANCH  36  37
ENDBRANCH  30  36
ENDBRANCH   1  30
TORSDOF 10
ENDMDL
MODEL 31
REMARK VINA RESULT:    -6.346      4.434      9.180
REMARK INTER + INTRA:          -9.726
REMARK INTER:                  -8.994
REMARK INTRA:                  -0.732
REMARK UNBOUND:                -0.227
REMARK  Name = 
REMARK  10 active torsions:
REMARK  status: ('A' for Active; 'I' for Inactive)
REMARK    1  A    between atoms: C_1  and  C_2
REMARK    2  A    between atoms: C_2  and  C_3
REMARK    3  A    between atoms: C_2  and  S_23
REMARK    4  A    between atoms: C_7  and  N_9
REMARK    5  A    between atoms: C_10  and  C_11
REMARK    6  A    between atoms: C_14  and  N_19
REMARK    7  A    between atoms: C_15  and  O_17
REMARK    8  A    between atoms: O_17  and  C_18
REMARK    9  A    between atoms: S_23  and  C_24
REMARK   10  A    between atoms: N_28  and  C_29
REMARK                            x       y       z     vdW  Elec       q    Type
REMARK                         _______ _______ _______ _____ _____    ______ ____
ROOT
ATOM      1  C   UNL     1       2.759   5.251  18.706  0.00  0.00    -0.030 A 
ATOM      2  C   UNL     1       2.518   4.299  19.700  0.00  0.00    -0.039 A 
ATOM      3  C   UNL     1       1.951   4.719  20.892  0.00  0.00    +0.030 A 
ATOM      4  N   UNL     1       1.617   5.998  21.158  0.00  0.00    -0.240 NA
ATOM      5  C   UNL     1       1.857   6.918  20.212  0.00  0.00    +0.125 A 
ATOM      6  C   UNL     1       2.425   6.584  18.984  0.00  0.00    -0.017 A 
ATOM      7  H   UNL     1       2.771   3.253  19.570  0.00  0.00    +0.064 HD
ATOM      8  H   UNL     1       1.745   4.014  21.694  0.00  0.00    +0.083 HD
ATOM      9  H   UNL     1       2.610   7.355  18.241  0.00  0.00    +0.065 HD
ENDROOT
BRANCH   5  10
ATOM     10  N   UNL     1       1.542   8.262  20.425  0.00  0.00    -0.265 N 
ATOM     11  C   UNL     1       0.419   8.747  21.060  0.00  0.00    +0.268 C 
ATOM     12  O   UNL     1      -0.508   8.120  21.554  0.00  0.00    -0.268 OA
ATOM     13  H   UNL     1       2.188   8.965  20.088  0.00  0.00    +0.157 HD
BRANCH  11  14
ATOM     14  C   UNL     1       0.398  10.246  21.118  0.00  0.00    +0.130 A 
ATOM     15  C   UNL     1      -0.428  10.896  22.032  0.00  0.00    -0.029 A 
ATOM     16  C   UNL     1      -0.419  12.287  22.057  0.00  0.00    -0.024 A 
ATOM     17  C   UNL     1       0.421  12.960  21.167  0.00  0.00    +0.187 A 
ATOM     18  C   UNL     1       1.213  12.249  20.276  0.00  0.00    +0.246 A 
ATOM     19  N   UNL     1       1.218  10.894  20.234  0.00  0.00    -0.206 NA
ATOM     20  H   UNL     1      -1.063  10.328  22.707  0.00  0.00    +0.064 HD
ATOM     21  H   UNL     1      -1.053  12.829  22.756  0.00  0.00    +0.064 HD
BRANCH  17  22
ATOM     22  N   UNL     1       0.456  14.400  21.181  0.00  0.00    +0.062 N 
ATOM     23  O   UNL     1      -0.354  14.984  20.447  0.00  0.00    -0.126 OA
ATOM     24  O   UNL     1       1.247  14.945  21.961  0.00  0.00    -0.126 OA
ENDBRANCH  17  22
BRANCH  18  25
ATOM     25  O   UNL     1       1.984  12.942  19.369  0.00  0.00    -0.478 OA
BRANCH  25  26
ATOM     26  C   UNL     1       2.350  12.190  18.217  0.00  0.00    +0.080 C 
ATOM     27  H   UNL     1       3.174  12.671  17.677  0.00  0.00    +0.066 HD
ATOM     28  H   UNL     1       1.490  12.030  17.558  0.00  0.00    +0.066 HD
ATOM     29  H   UNL     1       2.699  11.210  18.555  0.00  0.00    +0.066 HD
ENDBRANCH  25  26
ENDBRANCH  18  25
ENDBRANCH  11  14
ENDBRANCH   5  10
BRANCH   1  30
ATOM     30  C   UNL     1       3.392   4.896  17.370  0.00  0.00    +0.035 C 
ATOM     31  H   UNL     1       2.590   4.866  16.622  0.00  0.00    +0.046 HD
BRANCH  30  32
ATOM     32  C   UNL     1       4.069   3.523  17.380  0.00  0.00    -0.049 C 
ATOM     33  H   UNL     1       4.996   3.549  16.796  0.00  0.00    +0.024 HD
ATOM     34  H   UNL     1       3.435   2.738  16.951  0.00  0.00    +0.024 HD
ATOM     35  H   UNL     1       4.335   3.216  18.396  0.00  0.00    +0.024 HD
ENDBRANCH  30  32
BRANCH  30  36
ATOM     36  S   UNL     1       4.592   6.199  16.889  0.00  0.00    -0.078 S 
BRANCH  36  37
ATOM     37  C   UNL     1       6.014   5.673  17.716  0.00  0.00    +0.192 A 
ATOM     38  N   UNL     1       6.282   5.811  18.994  0.00  0.00    -0.123 NA
ATOM     39  N   UNL     1       7.514   5.243  19.228  0.00  0.00    -0.137 NA
ATOM     40  C   UNL     1       7.958   4.775  18.083  0.00  0.00    +0.120 A 
ATOM     41  N   UNL     1       7.044   5.022  17.102  0.00  0.00    -0.312 N 
ATOM     42  H   UNL     1       8.900   4.269  17.924  0.00  0.00    +0.105 HD
BRANCH  41  43
ATOM     43  C   UNL     1       7.172   4.659  15.717  0.00  0.00    +0.015 C 
ATOM     44  H   UNL     1       6.174   4.530  15.293  0.00  0.00    +0.046 HD
ATOM     45  H   UNL     1       7.748   3.731  15.648  0.00  0.00    +0.046 HD
ATOM     46  H   UNL     1       7.697   5.452  15.178  0.00  0.00    +0.046 HD
ENDBRANCH  41  43
ENDBRANCH  36  37
ENDBRANCH  30  36
ENDBRANCH   1  30
TORSDOF 10
ENDMDL
MODEL 32
REMARK VINA RESULT:    -6.323      2.939      4.680
REMARK INTER + INTRA:          -9.691
REMARK INTER:                  -9.464
REMARK INTRA:                  -0.227
REMARK UNBOUND:                -0.227
REMARK  Name = 
REMARK  10 active torsions:
REMARK  status: ('A' for Active; 'I' for Inactive)
REMARK    1  A    between atoms: C_1  and  C_2
REMARK    2  A    between atoms: C_2  and  C_3
REMARK    3  A    between atoms: C_2  and  S_23
REMARK    4  A    between atoms: C_7  and  N_9
REMARK    5  A    between atoms: C_10  and  C_11
REMARK    6  A    between atoms: C_14  and  N_19
REMARK    7  A    between atoms: C_15  and  O_17
REMARK    8  A    between atoms: O_17  and  C_18
REMARK    9  A    between atoms: S_23  and  C_24
REMARK   10  A    between atoms: N_28  and  C_29
REMARK                            x       y       z     vdW  Elec       q    Type
REMARK                         _______ _______ _______ _____ _____    ______ ____
ROOT
ATOM      1  C   UNL     1       0.093  11.504  20.935  0.00  0.00    -0.030 A 
ATOM      2  C   UNL     1       0.306  12.418  19.899  0.00  0.00    -0.039 A 
ATOM      3  C   UNL     1       0.955  11.981  18.756  0.00  0.00    +0.030 A 
ATOM      4  N   UNL     1       1.402  10.721  18.579  0.00  0.00    -0.240 NA
ATOM      5  C   UNL     1       1.211   9.843  19.574  0.00  0.00    +0.125 A 
ATOM      6  C   UNL     1       0.568  10.196  20.758  0.00  0.00    -0.017 A 
ATOM      7  H   UNL     1      -0.010  13.452  19.969  0.00  0.00    +0.064 HD
ATOM      8  H   UNL     1       1.142  12.655  17.925  0.00  0.00    +0.083 HD
ATOM      9  H   UNL     1       0.434   9.461  21.547  0.00  0.00    +0.065 HD
ENDROOT
BRANCH   5  10
ATOM     10  N   UNL     1       1.656   8.523  19.458  0.00  0.00    -0.265 N 
ATOM     11  C   UNL     1       1.629   7.563  20.446  0.00  0.00    +0.268 C 
ATOM     12  O   UNL     1       1.222   7.663  21.596  0.00  0.00    -0.268 OA
ATOM     13  H   UNL     1       2.040   8.223  18.571  0.00  0.00    +0.157 HD
BRANCH  11  14
ATOM     14  C   UNL     1       2.184   6.249  19.982  0.00  0.00    +0.130 A 
ATOM     15  C   UNL     1       3.274   6.220  19.115  0.00  0.00    -0.029 A 
ATOM     16  C   UNL     1       3.761   4.982  18.708  0.00  0.00    -0.024 A 
ATOM     17  C   UNL     1       3.135   3.831  19.193  0.00  0.00    +0.187 A 
ATOM     18  C   UNL     1       2.047   3.933  20.048  0.00  0.00    +0.246 A 
ATOM     19  N   UNL     1       1.555   5.129  20.456  0.00  0.00    -0.206 NA
ATOM     20  H   UNL     1       3.730   7.143  18.766  0.00  0.00    +0.064 HD
ATOM     21  H   UNL     1       4.609   4.920  18.029  0.00  0.00    +0.064 HD
BRANCH  17  22
ATOM     22  N   UNL     1       3.627   2.538  18.794  0.00  0.00    +0.062 N 
ATOM     23  O   UNL     1       4.431   1.988  19.560  0.00  0.00    -0.126 OA
ATOM     24  O   UNL     1       3.172   2.049  17.752  0.00  0.00    -0.126 OA
ENDBRANCH  17  22
BRANCH  18  25
ATOM     25  O   UNL     1       1.412   2.781  20.460  0.00  0.00    -0.478 OA
BRANCH  25  26
ATOM     26  C   UNL     1       1.594   2.474  21.839  0.00  0.00    +0.080 C 
ATOM     27  H   UNL     1       1.485   1.399  22.021  0.00  0.00    +0.066 HD
ATOM     28  H   UNL     1       0.907   3.050  22.467  0.00  0.00    +0.066 HD
ATOM     29  H   UNL     1       2.614   2.757  22.113  0.00  0.00    +0.066 HD
ENDBRANCH  25  26
ENDBRANCH  18  25
ENDBRANCH  11  14
ENDBRANCH   5  10
BRANCH   1  30
ATOM     30  C   UNL     1      -0.594  11.886  22.235  0.00  0.00    +0.035 C 
ATOM     31  H   UNL     1       0.126  12.455  22.835  0.00  0.00    +0.046 HD
BRANCH  30  32
ATOM     32  C   UNL     1      -1.025  10.669  23.058  0.00  0.00    -0.049 C 
ATOM     33  H   UNL     1      -1.630   9.989  22.448  0.00  0.00    +0.024 HD
ATOM     34  H   UNL     1      -1.625  10.944  23.933  0.00  0.00    +0.024 HD
ATOM     35  H   UNL     1      -0.160  10.101  23.414  0.00  0.00    +0.024 HD
ENDBRANCH  30  32
BRANCH  30  36
ATOM     36  S   UNL     1      -2.039  12.962  21.877  0.00  0.00    -0.078 S 
BRANCH  36  37
ATOM     37  C   UNL     1      -2.180  13.843  23.355  0.00  0.00    +0.192 A 
ATOM     38  N   UNL     1      -1.319  14.702  23.848  0.00  0.00    -0.123 NA
ATOM     39  N   UNL     1      -1.831  15.176  25.036  0.00  0.00    -0.137 NA
ATOM     40  C   UNL     1      -2.992  14.591  25.226  0.00  0.00    +0.120 A 
ATOM     41  N   UNL     1      -3.253  13.744  24.191  0.00  0.00    -0.312 N 
ATOM     42  H   UNL     1      -3.652  14.745  26.069  0.00  0.00    +0.105 HD
BRANCH  41  43
ATOM     43  C   UNL     1      -4.428  12.928  24.043  0.00  0.00    +0.015 C 
ATOM     44  H   UNL     1      -4.182  12.066  23.420  0.00  0.00    +0.046 HD
ATOM     45  H   UNL     1      -5.219  13.528  23.583  0.00  0.00    +0.046 HD
ATOM     46  H   UNL     1      -4.760  12.584  25.026  0.00  0.00    +0.046 HD
ENDBRANCH  41  43
ENDBRANCH  36  37
ENDBRANCH  30  36
ENDBRANCH   1  30
TORSDOF 10
ENDMDL
MODEL 33
REMARK VINA RESULT:    -6.304      2.910      4.478
REMARK INTER + INTRA:          -9.664
REMARK INTER:                  -8.531
REMARK INTRA:                  -1.133
REMARK UNBOUND:                -0.227
REMARK  Name = 
REMARK  10 active torsions:
REMARK  status: ('A' for Active; 'I' for Inactive)
REMARK    1  A    between atoms: C_1  and  C_2
REMARK    2  A    between atoms: C_2  and  C_3
REMARK    3  A    between atoms: C_2  and  S_23
REMARK    4  A    between atoms: C_7  and  N_9
REMARK    5  A    between atoms: C_10  and  C_11
REMARK    6  A    between atoms: C_14  and  N_19
REMARK    7  A    between atoms: C_15  and  O_17
REMARK    8  A    between atoms: O_17  and  C_18
REMARK    9  A    between atoms: S_23  and  C_24
REMARK   10  A    between atoms: N_28  and  C_29
REMARK                            x       y       z     vdW  Elec       q    Type
REMARK                         _______ _______ _______ _____ _____    ______ ____
ROOT
ATOM      1  C   UNL     1      -0.601  12.283  20.934  0.00  0.00    -0.030 A 
ATOM      2  C   UNL     1      -1.656  12.550  20.057  0.00  0.00    -0.039 A 
ATOM      3  C   UNL     1      -1.859  11.693  18.988  0.00  0.00    +0.030 A 
ATOM      4  N   UNL     1      -1.096  10.611  18.734  0.00  0.00    -0.240 NA
ATOM      5  C   UNL     1      -0.074  10.356  19.565  0.00  0.00    +0.125 A 
ATOM      6  C   UNL     1       0.203  11.165  20.665  0.00  0.00    -0.017 A 
ATOM      7  H   UNL     1      -2.307  13.407  20.185  0.00  0.00    +0.064 HD
ATOM      8  H   UNL     1      -2.668  11.861  18.281  0.00  0.00    +0.083 HD
ATOM      9  H   UNL     1       1.042  10.933  21.316  0.00  0.00    +0.065 HD
ENDROOT
BRANCH   5  10
ATOM     10  N   UNL     1       0.761   9.256  19.355  0.00  0.00    -0.265 N 
ATOM     11  C   UNL     1       1.796   9.177  18.449  0.00  0.00    +0.268 C 
ATOM     12  O   UNL     1       2.188  10.029  17.663  0.00  0.00    -0.268 OA
ATOM     13  H   UNL     1       0.607   8.425  19.912  0.00  0.00    +0.157 HD
BRANCH  11  14
ATOM     14  C   UNL     1       2.489   7.847  18.487  0.00  0.00    +0.130 A 
ATOM     15  C   UNL     1       2.226   6.954  19.522  0.00  0.00    -0.029 A 
ATOM     16  C   UNL     1       2.888   5.730  19.522  0.00  0.00    -0.024 A 
ATOM     17  C   UNL     1       3.778   5.458  18.481  0.00  0.00    +0.187 A 
ATOM     18  C   UNL     1       4.000   6.398  17.485  0.00  0.00    +0.246 A 
ATOM     19  N   UNL     1       3.367   7.597  17.467  0.00  0.00    -0.206 NA
ATOM     20  H   UNL     1       1.522   7.209  20.310  0.00  0.00    +0.064 HD
ATOM     21  H   UNL     1       2.709   5.008  20.316  0.00  0.00    +0.064 HD
BRANCH  17  22
ATOM     22  N   UNL     1       4.467   4.194  18.453  0.00  0.00    +0.062 N 
ATOM     23  O   UNL     1       5.521   4.119  19.100  0.00  0.00    -0.126 OA
ATOM     24  O   UNL     1       3.931   3.264  17.836  0.00  0.00    -0.126 OA
ENDBRANCH  17  22
BRANCH  18  25
ATOM     25  O   UNL     1       4.930   6.126  16.505  0.00  0.00    -0.478 OA
BRANCH  25  26
ATOM     26  C   UNL     1       6.194   6.748  16.710  0.00  0.00    +0.080 C 
ATOM     27  H   UNL     1       6.140   7.825  16.517  0.00  0.00    +0.066 HD
ATOM     28  H   UNL     1       6.971   6.279  16.098  0.00  0.00    +0.066 HD
ATOM     29  H   UNL     1       6.468   6.611  17.761  0.00  0.00    +0.066 HD
ENDBRANCH  25  26
ENDBRANCH  18  25
ENDBRANCH  11  14
ENDBRANCH   5  10
BRANCH   1  30
ATOM     30  C   UNL     1      -0.284  13.168  22.127  0.00  0.00    +0.035 C 
ATOM     31  H   UNL     1       0.611  12.761  22.613  0.00  0.00    +0.046 HD
BRANCH  30  32
ATOM     32  C   UNL     1      -1.408  13.188  23.167  0.00  0.00    -0.049 C 
ATOM     33  H   UNL     1      -2.243  13.806  22.817  0.00  0.00    +0.024 HD
ATOM     34  H   UNL     1      -1.083  13.594  24.132  0.00  0.00    +0.024 HD
ATOM     35  H   UNL     1      -1.803  12.183  23.347  0.00  0.00    +0.024 HD
ENDBRANCH  30  32
BRANCH  30  36
ATOM     36  S   UNL     1       0.086  14.872  21.552  0.00  0.00    -0.078 S 
BRANCH  36  37
ATOM     37  C   UNL     1       1.757  14.737  21.141  0.00  0.00    +0.192 A 
ATOM     38  N   UNL     1       2.783  14.851  21.952  0.00  0.00    -0.123 NA
ATOM     39  N   UNL     1       3.928  14.665  21.210  0.00  0.00    -0.137 NA
ATOM     40  C   UNL     1       3.562  14.440  19.969  0.00  0.00    +0.120 A 
ATOM     41  N   UNL     1       2.203  14.475  19.878  0.00  0.00    -0.312 N 
ATOM     42  H   UNL     1       4.224  14.254  19.133  0.00  0.00    +0.105 HD
BRANCH  41  43
ATOM     43  C   UNL     1       1.430  14.272  18.682  0.00  0.00    +0.015 C 
ATOM     44  H   UNL     1       1.726  15.019  17.942  0.00  0.00    +0.046 HD
ATOM     45  H   UNL     1       0.368  14.367  18.928  0.00  0.00    +0.046 HD
ATOM     46  H   UNL     1       1.623  13.271  18.288  0.00  0.00    +0.046 HD
ENDBRANCH  41  43
ENDBRANCH  36  37
ENDBRANCH  30  36
ENDBRANCH   1  30
TORSDOF 10
ENDMDL
