MODEL 1
REMARK VINA RESULT:    -9.549      0.000      0.000
REMARK INTER + INTRA:         -12.994
REMARK INTER:                 -12.178
REMARK INTRA:                  -0.817
REMARK UNBOUND:                -0.097
REMARK  Name = 
REMARK  7 active torsions:
REMARK  status: ('A' for Active; 'I' for Inactive)
REMARK    1  A    between atoms: C_1  and  C_2
REMARK    2  A    between atoms: C_2  and  C_3
REMARK    3  A    between atoms: C_2  and  C_10
REMARK    4  A    between atoms: C_3  and  C_4
REMARK    5  A    between atoms: N_8  and  C_9
REMARK    6  A    between atoms: C_18  and  N_19
REMARK    7  A    between atoms: C_26  and  C_27
REMARK                            x       y       z     vdW  Elec       q    Type
REMARK                         _______ _______ _______ _____ _____    ______ ____
ROOT
ATOM      1  C   UNL     1       4.194   5.536  17.553  0.00  0.00    -0.002 A 
ATOM      2  C   UNL     1       3.844   4.457  18.367  0.00  0.00    -0.015 A 
ATOM      3  C   UNL     1       2.908   4.630  19.383  0.00  0.00    +0.124 A 
ATOM      4  N   UNL     1       2.537   3.546  20.195  0.00  0.00    -0.315 N 
ATOM      5  C   UNL     1       1.915   3.666  21.485  0.00  0.00    +0.015 C 
ATOM      6  C   UNL     1       2.331   2.210  21.722  0.00  0.00    -0.021 C 
ATOM      7  C   UNL     1       3.369   2.459  20.620  0.00  0.00    +0.015 C 
ATOM      8  N   UNL     1       2.319   5.827  19.600  0.00  0.00    -0.214 NA
ATOM      9  C   UNL     1       2.651   6.899  18.832  0.00  0.00    +0.166 A 
ATOM     10  C   UNL     1       3.593   6.776  17.811  0.00  0.00    +0.167 A 
ATOM     11  F   UNL     1       3.975   7.808  17.051  0.00  0.00    -0.202 F 
ATOM     12  H   UNL     1       4.290   3.480  18.217  0.00  0.00    +0.066 HD
ATOM     13  H   UNL     1       2.408   4.399  22.130  0.00  0.00    +0.046 HD
ATOM     14  H   UNL     1       0.840   3.853  21.434  0.00  0.00    +0.046 HD
ATOM     15  H   UNL     1       1.563   1.474  21.460  0.00  0.00    +0.030 HD
ATOM     16  H   UNL     1       2.732   1.985  22.713  0.00  0.00    +0.030 HD
ATOM     17  H   UNL     1       4.353   2.785  20.974  0.00  0.00    +0.046 HD
ATOM     18  H   UNL     1       3.467   1.665  19.877  0.00  0.00    +0.046 HD
ENDROOT
BRANCH   9  19
ATOM     19  N   UNL     1       1.977   8.098  19.160  0.00  0.00    -0.245 N 
ATOM     20  C   UNL     1       1.392   8.230  20.488  0.00  0.00    +0.048 C 
ATOM     21  C   UNL     1       0.758   9.583  20.449  0.00  0.00    -0.006 A 
ATOM     22  C   UNL     1       0.977  10.160  19.202  0.00  0.00    +0.042 A 
ATOM     23  C   UNL     1       0.500  11.414  18.870  0.00  0.00    -0.049 A 
ATOM     24  C   UNL     1      -0.226  12.107  19.838  0.00  0.00    -0.060 A 
ATOM     25  C   UNL     1      -0.455  11.536  21.105  0.00  0.00    -0.050 A 
ATOM     26  C   UNL     1       0.036  10.257  21.430  0.00  0.00    +0.060 A 
ATOM     27  C   UNL     1       1.755   9.221  18.376  0.00  0.00    +0.253 C 
ATOM     28  O   UNL     1       2.076   9.500  17.239  0.00  0.00    -0.270 OA
ATOM     29  H   UNL     1       2.180   8.190  21.248  0.00  0.00    +0.052 HD
ATOM     30  H   UNL     1       0.636   7.452  20.642  0.00  0.00    +0.052 HD
ATOM     31  H   UNL     1       0.687  11.840  17.888  0.00  0.00    +0.063 HD
ATOM     32  H   UNL     1      -0.618  13.097  19.613  0.00  0.00    +0.062 HD
ATOM     33  H   UNL     1      -1.027  12.105  21.839  0.00  0.00    +0.062 HD
BRANCH  26  34
ATOM     34  C   UNL     1      -0.204   9.637  22.780  0.00  0.00    +0.418 C 
ATOM     35  F   UNL     1      -0.903   8.471  22.694  0.00  0.00    -0.166 F 
ATOM     36  F   UNL     1      -0.931  10.447  23.598  0.00  0.00    -0.166 F 
ATOM     37  F   UNL     1       0.936   9.341  23.459  0.00  0.00    -0.166 F 
ENDBRANCH  26  34
ENDBRANCH   9  19
BRANCH   1  38
ATOM     38  C   UNL     1       5.231   5.436  16.444  0.00  0.00    -0.009 C 
ATOM     39  H   UNL     1       5.232   6.397  15.911  0.00  0.00    +0.035 HD
BRANCH  38  40
ATOM     40  C   UNL     1       4.886   4.383  15.379  0.00  0.00    -0.058 C 
ATOM     41  H   UNL     1       4.327   3.552  15.822  0.00  0.00    +0.024 HD
ATOM     42  H   UNL     1       5.794   3.967  14.931  0.00  0.00    +0.024 HD
ATOM     43  H   UNL     1       4.271   4.798  14.574  0.00  0.00    +0.024 HD
ENDBRANCH  38  40
BRANCH  38  44
ATOM     44  C   UNL     1       6.621   5.197  17.065  0.00  0.00    +0.014 C 
ATOM     45  H   UNL     1       6.555   4.496  17.906  0.00  0.00    +0.035 HD
ATOM     46  H   UNL     1       7.279   4.716  16.331  0.00  0.00    +0.035 HD
BRANCH  44  47
ATOM     47  C   UNL     1       7.256   6.458  17.540  0.00  0.00    +0.134 A 
ATOM     48  N   UNL     1       7.257   7.615  16.909  0.00  0.00    -0.135 NA
ATOM     49  N   UNL     1       7.956   8.518  17.673  0.00  0.00    -0.138 NA
ATOM     50  C   UNL     1       8.369   7.893  18.751  0.00  0.00    +0.120 A 
ATOM     51  N   UNL     1       7.949   6.599  18.715  0.00  0.00    -0.320 N 
ATOM     52  H   UNL     1       8.951   8.323  19.555  0.00  0.00    +0.105 HD
BRANCH  51  53
ATOM     53  C   UNL     1       8.186   5.601  19.725  0.00  0.00    +0.014 C 
ATOM     54  H   UNL     1       9.263   5.509  19.888  0.00  0.00    +0.046 HD
ATOM     55  H   UNL     1       7.764   4.654  19.383  0.00  0.00    +0.046 HD
ATOM     56  H   UNL     1       7.702   5.905  20.657  0.00  0.00    +0.046 HD
ENDBRANCH  51  53
ENDBRANCH  44  47
ENDBRANCH  38  44
ENDBRANCH   1  38
TORSDOF 7
ENDMDL
MODEL 2
REMARK VINA RESULT:    -8.053      2.033      2.811
REMARK INTER + INTRA:         -10.975
REMARK INTER:                 -10.120
REMARK INTRA:                  -0.855
REMARK UNBOUND:                -0.097
REMARK  Name = 
REMARK  7 active torsions:
REMARK  status: ('A' for Active; 'I' for Inactive)
REMARK    1  A    between atoms: C_1  and  C_2
REMARK    2  A    between atoms: C_2  and  C_3
REMARK    3  A    between atoms: C_2  and  C_10
REMARK    4  A    between atoms: C_3  and  C_4
REMARK    5  A    between atoms: N_8  and  C_9
REMARK    6  A    between atoms: C_18  and  N_19
REMARK    7  A    between atoms: C_26  and  C_27
REMARK                            x       y       z     vdW  Elec       q    Type
REMARK                         _______ _______ _______ _____ _____    ______ ____
ROOT
ATOM      1  C   UNL     1       4.667   5.453  17.497  0.00  0.00    -0.002 A 
ATOM      2  C   UNL     1       3.917   4.298  17.731  0.00  0.00    -0.015 A 
ATOM      3  C   UNL     1       2.655   4.398  18.309  0.00  0.00    +0.124 A 
ATOM      4  N   UNL     1       1.886   3.244  18.532  0.00  0.00    -0.315 N 
ATOM      5  C   UNL     1       0.786   3.159  19.452  0.00  0.00    +0.015 C 
ATOM      6  C   UNL     1       0.941   1.637  19.359  0.00  0.00    -0.021 C 
ATOM      7  C   UNL     1       2.367   1.938  18.878  0.00  0.00    +0.015 C 
ATOM      8  N   UNL     1       2.129   5.596  18.648  0.00  0.00    -0.214 NA
ATOM      9  C   UNL     1       2.843   6.736  18.445  0.00  0.00    +0.166 A 
ATOM     10  C   UNL     1       4.117   6.684  17.880  0.00  0.00    +0.167 A 
ATOM     11  F   UNL     1       4.869   7.773  17.691  0.00  0.00    -0.202 F 
ATOM     12  H   UNL     1       4.304   3.321  17.464  0.00  0.00    +0.066 HD
ATOM     13  H   UNL     1       1.014   3.589  20.432  0.00  0.00    +0.046 HD
ATOM     14  H   UNL     1      -0.146   3.569  19.054  0.00  0.00    +0.046 HD
ATOM     15  H   UNL     1       0.301   1.164  18.607  0.00  0.00    +0.030 HD
ATOM     16  H   UNL     1       0.861   1.093  20.304  0.00  0.00    +0.030 HD
ATOM     17  H   UNL     1       3.128   1.957  19.665  0.00  0.00    +0.046 HD
ATOM     18  H   UNL     1       2.708   1.354  18.020  0.00  0.00    +0.046 HD
ENDROOT
BRANCH   9  19
ATOM     19  N   UNL     1       2.192   7.924  18.849  0.00  0.00    -0.245 N 
ATOM     20  C   UNL     1       1.592   7.977  20.175  0.00  0.00    +0.048 C 
ATOM     21  C   UNL     1       0.991   9.346  20.223  0.00  0.00    -0.006 A 
ATOM     22  C   UNL     1       1.241  10.002  19.022  0.00  0.00    +0.042 A 
ATOM     23  C   UNL     1       0.798  11.288  18.773  0.00  0.00    -0.049 A 
ATOM     24  C   UNL     1       0.075  11.929  19.779  0.00  0.00    -0.060 A 
ATOM     25  C   UNL     1      -0.186  11.276  21.000  0.00  0.00    -0.050 A 
ATOM     26  C   UNL     1       0.271   9.967  21.241  0.00  0.00    +0.060 A 
ATOM     27  C   UNL     1       2.007   9.105  18.143  0.00  0.00    +0.253 C 
ATOM     28  O   UNL     1       2.351   9.454  17.031  0.00  0.00    -0.270 OA
ATOM     29  H   UNL     1       2.368   7.866  20.940  0.00  0.00    +0.052 HD
ATOM     30  H   UNL     1       0.817   7.209  20.264  0.00  0.00    +0.052 HD
ATOM     31  H   UNL     1       1.009  11.776  17.826  0.00  0.00    +0.063 HD
ATOM     32  H   UNL     1      -0.291  12.942  19.619  0.00  0.00    +0.062 HD
ATOM     33  H   UNL     1      -0.754  11.806  21.765  0.00  0.00    +0.062 HD
BRANCH  26  34
ATOM     34  C   UNL     1      -0.002   9.260  22.541  0.00  0.00    +0.418 C 
ATOM     35  F   UNL     1      -0.739   8.127  22.365  0.00  0.00    -0.166 F 
ATOM     36  F   UNL     1      -0.709  10.033  23.410  0.00  0.00    -0.166 F 
ATOM     37  F   UNL     1       1.122   8.877  23.204  0.00  0.00    -0.166 F 
ENDBRANCH  26  34
ENDBRANCH   9  19
BRANCH   1  38
ATOM     38  C   UNL     1       6.066   5.426  16.899  0.00  0.00    -0.009 C 
ATOM     39  H   UNL     1       6.374   4.373  16.834  0.00  0.00    +0.035 HD
BRANCH  38  40
ATOM     40  C   UNL     1       7.123   6.101  17.787  0.00  0.00    -0.058 C 
ATOM     41  H   UNL     1       7.133   7.184  17.624  0.00  0.00    +0.024 HD
ATOM     42  H   UNL     1       8.126   5.726  17.559  0.00  0.00    +0.024 HD
ATOM     43  H   UNL     1       6.933   5.933  18.852  0.00  0.00    +0.024 HD
ENDBRANCH  38  40
BRANCH  38  44
ATOM     44  C   UNL     1       6.027   6.032  15.483  0.00  0.00    +0.014 C 
ATOM     45  H   UNL     1       5.154   6.685  15.364  0.00  0.00    +0.035 HD
ATOM     46  H   UNL     1       6.900   6.679  15.330  0.00  0.00    +0.035 HD
BRANCH  44  47
ATOM     47  C   UNL     1       5.998   4.991  14.419  0.00  0.00    +0.134 A 
ATOM     48  N   UNL     1       5.054   4.090  14.237  0.00  0.00    -0.135 NA
ATOM     49  N   UNL     1       5.406   3.313  13.160  0.00  0.00    -0.138 NA
ATOM     50  C   UNL     1       6.559   3.753  12.710  0.00  0.00    +0.120 A 
ATOM     51  N   UNL     1       6.967   4.809  13.466  0.00  0.00    -0.320 N 
ATOM     52  H   UNL     1       7.111   3.354  11.870  0.00  0.00    +0.105 HD
BRANCH  51  53
ATOM     53  C   UNL     1       8.172   5.574  13.274  0.00  0.00    +0.014 C 
ATOM     54  H   UNL     1       8.982   4.896  12.997  0.00  0.00    +0.046 HD
ATOM     55  H   UNL     1       8.405   6.094  14.205  0.00  0.00    +0.046 HD
ATOM     56  H   UNL     1       8.017   6.302  12.474  0.00  0.00    +0.046 HD
ENDBRANCH  51  53
ENDBRANCH  44  47
ENDBRANCH  38  44
ENDBRANCH   1  38
TORSDOF 7
ENDMDL
MODEL 3
REMARK VINA RESULT:    -7.998      3.186      7.897
REMARK INTER + INTRA:         -10.899
REMARK INTER:                  -9.351
REMARK INTRA:                  -1.548
REMARK UNBOUND:                -0.097
REMARK  Name = 
REMARK  7 active torsions:
REMARK  status: ('A' for Active; 'I' for Inactive)
REMARK    1  A    between atoms: C_1  and  C_2
REMARK    2  A    between atoms: C_2  and  C_3
REMARK    3  A    between atoms: C_2  and  C_10
REMARK    4  A    between atoms: C_3  and  C_4
REMARK    5  A    between atoms: N_8  and  C_9
REMARK    6  A    between atoms: C_18  and  N_19
REMARK    7  A    between atoms: C_26  and  C_27
REMARK                            x       y       z     vdW  Elec       q    Type
REMARK                         _______ _______ _______ _____ _____    ______ ____
ROOT
ATOM      1  C   UNL     1      -0.395  11.157  20.793  0.00  0.00    -0.002 A 
ATOM      2  C   UNL     1      -1.436  11.241  19.866  0.00  0.00    -0.015 A 
ATOM      3  C   UNL     1      -1.453  10.389  18.765  0.00  0.00    +0.124 A 
ATOM      4  N   UNL     1      -2.504  10.455  17.836  0.00  0.00    -0.315 N 
ATOM      5  C   UNL     1      -2.445   9.940  16.496  0.00  0.00    +0.015 C 
ATOM      6  C   UNL     1      -3.666  10.818  16.200  0.00  0.00    -0.021 C 
ATOM      7  C   UNL     1      -3.227  11.624  17.429  0.00  0.00    +0.015 C 
ATOM      8  N   UNL     1      -0.481   9.469  18.572  0.00  0.00    -0.214 NA
ATOM      9  C   UNL     1       0.551   9.374  19.452  0.00  0.00    +0.166 A 
ATOM     10  C   UNL     1       0.617  10.215  20.563  0.00  0.00    +0.167 A 
ATOM     11  F   UNL     1       1.629  10.181  21.437  0.00  0.00    -0.202 F 
ATOM     12  H   UNL     1      -2.236  11.962  19.992  0.00  0.00    +0.066 HD
ATOM     13  H   UNL     1      -1.530  10.225  15.969  0.00  0.00    +0.046 HD
ATOM     14  H   UNL     1      -2.608   8.861  16.437  0.00  0.00    +0.046 HD
ATOM     15  H   UNL     1      -4.627  10.306  16.315  0.00  0.00    +0.030 HD
ATOM     16  H   UNL     1      -3.646  11.353  15.247  0.00  0.00    +0.030 HD
ATOM     17  H   UNL     1      -2.575  12.478  17.216  0.00  0.00    +0.046 HD
ATOM     18  H   UNL     1      -4.026  11.907  18.117  0.00  0.00    +0.046 HD
ENDROOT
BRANCH   9  19
ATOM     19  N   UNL     1       1.509   8.382  19.140  0.00  0.00    -0.245 N 
ATOM     20  C   UNL     1       1.477   7.122  19.871  0.00  0.00    +0.048 C 
ATOM     21  C   UNL     1       2.630   6.364  19.295  0.00  0.00    -0.006 A 
ATOM     22  C   UNL     1       3.250   7.137  18.319  0.00  0.00    +0.042 A 
ATOM     23  C   UNL     1       4.355   6.697  17.614  0.00  0.00    -0.049 A 
ATOM     24  C   UNL     1       4.848   5.427  17.913  0.00  0.00    -0.060 A 
ATOM     25  C   UNL     1       4.230   4.633  18.898  0.00  0.00    -0.050 A 
ATOM     26  C   UNL     1       3.105   5.093  19.609  0.00  0.00    +0.060 A 
ATOM     27  C   UNL     1       2.541   8.423  18.212  0.00  0.00    +0.253 C 
ATOM     28  O   UNL     1       2.895   9.274  17.421  0.00  0.00    -0.270 OA
ATOM     29  H   UNL     1       0.532   6.603  19.676  0.00  0.00    +0.052 HD
ATOM     30  H   UNL     1       1.629   7.308  20.940  0.00  0.00    +0.052 HD
ATOM     31  H   UNL     1       4.818   7.322  16.857  0.00  0.00    +0.063 HD
ATOM     32  H   UNL     1       5.717   5.045  17.379  0.00  0.00    +0.062 HD
ATOM     33  H   UNL     1       4.641   3.644  19.107  0.00  0.00    +0.062 HD
BRANCH  26  34
ATOM     34  C   UNL     1       2.437   4.254  20.665  0.00  0.00    +0.418 C 
ATOM     35  F   UNL     1       3.028   3.035  20.803  0.00  0.00    -0.166 F 
ATOM     36  F   UNL     1       1.131   4.004  20.375  0.00  0.00    -0.166 F 
ATOM     37  F   UNL     1       2.449   4.818  21.902  0.00  0.00    -0.166 F 
ENDBRANCH  26  34
ENDBRANCH   9  19
BRANCH   1  38
ATOM     38  C   UNL     1      -0.287  12.073  22.003  0.00  0.00    -0.009 C 
ATOM     39  H   UNL     1       0.622  11.787  22.550  0.00  0.00    +0.035 HD
BRANCH  38  40
ATOM     40  C   UNL     1      -1.436  11.894  23.008  0.00  0.00    -0.058 C 
ATOM     41  H   UNL     1      -1.962  12.841  23.169  0.00  0.00    +0.024 HD
ATOM     42  H   UNL     1      -1.059  11.559  23.980  0.00  0.00    +0.024 HD
ATOM     43  H   UNL     1      -2.175  11.164  22.662  0.00  0.00    +0.024 HD
ENDBRANCH  38  40
BRANCH  38  44
ATOM     44  C   UNL     1      -0.156  13.533  21.528  0.00  0.00    +0.014 C 
ATOM     45  H   UNL     1      -1.063  13.853  21.001  0.00  0.00    +0.035 HD
ATOM     46  H   UNL     1      -0.068  14.201  22.394  0.00  0.00    +0.035 HD
BRANCH  44  47
ATOM     47  C   UNL     1       1.017  13.736  20.633  0.00  0.00    +0.134 A 
ATOM     48  N   UNL     1       2.283  13.556  20.955  0.00  0.00    -0.135 NA
ATOM     49  N   UNL     1       3.050  13.859  19.856  0.00  0.00    -0.138 NA
ATOM     50  C   UNL     1       2.238  14.222  18.890  0.00  0.00    +0.120 A 
ATOM     51  N   UNL     1       0.952  14.155  19.329  0.00  0.00    -0.320 N 
ATOM     52  H   UNL     1       2.528  14.526  17.893  0.00  0.00    +0.105 HD
BRANCH  51  53
ATOM     53  C   UNL     1      -0.225  14.456  18.556  0.00  0.00    +0.014 C 
ATOM     54  H   UNL     1       0.062  14.592  17.511  0.00  0.00    +0.046 HD
ATOM     55  H   UNL     1      -0.679  15.366  18.954  0.00  0.00    +0.046 HD
ATOM     56  H   UNL     1      -0.933  13.627  18.634  0.00  0.00    +0.046 HD
ENDBRANCH  51  53
ENDBRANCH  44  47
ENDBRANCH  38  44
ENDBRANCH   1  38
TORSDOF 7
ENDMDL
MODEL 4
REMARK VINA RESULT:    -7.997      3.439      9.255
REMARK INTER + INTRA:         -10.898
REMARK INTER:                  -9.972
REMARK INTRA:                  -0.926
REMARK UNBOUND:                -0.097
REMARK  Name = 
REMARK  7 active torsions:
REMARK  status: ('A' for Active; 'I' for Inactive)
REMARK    1  A    between atoms: C_1  and  C_2
REMARK    2  A    between atoms: C_2  and  C_3
REMARK    3  A    between atoms: C_2  and  C_10
REMARK    4  A    between atoms: C_3  and  C_4
REMARK    5  A    between atoms: N_8  and  C_9
REMARK    6  A    between atoms: C_18  and  N_19
REMARK    7  A    between atoms: C_26  and  C_27
REMARK                            x       y       z     vdW  Elec       q    Type
REMARK                         _______ _______ _______ _____ _____    ______ ____
ROOT
ATOM      1  C   UNL     1      -0.952  11.635  19.164  0.00  0.00    -0.002 A 
ATOM      2  C   UNL     1      -0.103  12.675  18.780  0.00  0.00    -0.015 A 
ATOM      3  C   UNL     1       1.245  12.417  18.544  0.00  0.00    +0.124 A 
ATOM      4  N   UNL     1       2.103  13.453  18.141  0.00  0.00    -0.315 N 
ATOM      5  C   UNL     1       3.535  13.419  18.252  0.00  0.00    +0.015 C 
ATOM      6  C   UNL     1       3.497  14.941  18.072  0.00  0.00    -0.021 C 
ATOM      7  C   UNL     1       2.037  14.832  18.531  0.00  0.00    +0.015 C 
ATOM      8  N   UNL     1       1.757  11.172  18.672  0.00  0.00    -0.214 NA
ATOM      9  C   UNL     1       0.955  10.143  19.057  0.00  0.00    +0.166 A 
ATOM     10  C   UNL     1      -0.398  10.356  19.317  0.00  0.00    +0.167 A 
ATOM     11  F   UNL     1      -1.217   9.382  19.729  0.00  0.00    -0.202 F 
ATOM     12  H   UNL     1      -0.479  13.684  18.660  0.00  0.00    +0.066 HD
ATOM     13  H   UNL     1       3.880  13.077  19.232  0.00  0.00    +0.046 HD
ATOM     14  H   UNL     1       4.020  12.856  17.450  0.00  0.00    +0.046 HD
ATOM     15  H   UNL     1       3.621  15.275  17.036  0.00  0.00    +0.030 HD
ATOM     16  H   UNL     1       4.160  15.513  18.725  0.00  0.00    +0.030 HD
ATOM     17  H   UNL     1       1.876  14.966  19.606  0.00  0.00    +0.046 HD
ATOM     18  H   UNL     1       1.317  15.416  17.954  0.00  0.00    +0.046 HD
ENDROOT
BRANCH   9  19
ATOM     19  N   UNL     1       1.606   8.892  19.166  0.00  0.00    -0.245 N 
ATOM     20  C   UNL     1       2.558   8.507  18.132  0.00  0.00    +0.048 C 
ATOM     21  C   UNL     1       3.002   7.147  18.567  0.00  0.00    -0.006 A 
ATOM     22  C   UNL     1       2.353   6.806  19.749  0.00  0.00    +0.042 A 
ATOM     23  C   UNL     1       2.561   5.597  20.388  0.00  0.00    -0.049 A 
ATOM     24  C   UNL     1       3.458   4.703  19.804  0.00  0.00    -0.060 A 
ATOM     25  C   UNL     1       4.122   5.036  18.608  0.00  0.00    -0.050 A 
ATOM     26  C   UNL     1       3.902   6.270  17.967  0.00  0.00    +0.060 A 
ATOM     27  C   UNL     1       1.464   7.912  20.139  0.00  0.00    +0.253 C 
ATOM     28  O   UNL     1       0.787   7.853  21.145  0.00  0.00    -0.270 OA
ATOM     29  H   UNL     1       3.400   9.207  18.122  0.00  0.00    +0.052 HD
ATOM     30  H   UNL     1       2.054   8.459  17.161  0.00  0.00    +0.052 HD
ATOM     31  H   UNL     1       2.040   5.358  21.311  0.00  0.00    +0.063 HD
ATOM     32  H   UNL     1       3.647   3.741  20.277  0.00  0.00    +0.062 HD
ATOM     33  H   UNL     1       4.818   4.314  18.178  0.00  0.00    +0.062 HD
BRANCH  26  34
ATOM     34  C   UNL     1       4.605   6.635  16.688  0.00  0.00    +0.418 C 
ATOM     35  F   UNL     1       4.978   5.536  15.974  0.00  0.00    -0.166 F 
ATOM     36  F   UNL     1       5.748   7.340  16.911  0.00  0.00    -0.166 F 
ATOM     37  F   UNL     1       3.853   7.392  15.845  0.00  0.00    -0.166 F 
ENDBRANCH  26  34
ENDBRANCH   9  19
BRANCH   1  38
ATOM     38  C   UNL     1      -2.428  11.840  19.471  0.00  0.00    -0.009 C 
ATOM     39  H   UNL     1      -2.763  10.973  20.056  0.00  0.00    +0.035 HD
BRANCH  38  40
ATOM     40  C   UNL     1      -3.316  11.849  18.217  0.00  0.00    -0.058 C 
ATOM     41  H   UNL     1      -3.266  12.820  17.713  0.00  0.00    +0.024 HD
ATOM     42  H   UNL     1      -4.364  11.669  18.478  0.00  0.00    +0.024 HD
ATOM     43  H   UNL     1      -3.013  11.087  17.492  0.00  0.00    +0.024 HD
ENDBRANCH  38  40
BRANCH  38  44
ATOM     44  C   UNL     1      -2.600  13.119  20.312  0.00  0.00    +0.014 C 
ATOM     45  H   UNL     1      -1.644  13.646  20.419  0.00  0.00    +0.035 HD
ATOM     46  H   UNL     1      -3.266  13.820  19.793  0.00  0.00    +0.035 HD
BRANCH  44  47
ATOM     47  C   UNL     1      -3.149  12.838  21.668  0.00  0.00    +0.134 A 
ATOM     48  N   UNL     1      -4.398  13.004  22.053  0.00  0.00    -0.135 NA
ATOM     49  N   UNL     1      -4.490  12.642  23.375  0.00  0.00    -0.138 NA
ATOM     50  C   UNL     1      -3.295  12.267  23.770  0.00  0.00    +0.120 A 
ATOM     51  N   UNL     1      -2.421  12.368  22.732  0.00  0.00    -0.320 N 
ATOM     52  H   UNL     1      -3.028  11.925  24.761  0.00  0.00    +0.105 HD
BRANCH  51  53
ATOM     53  C   UNL     1      -1.022  12.030  22.764  0.00  0.00    +0.014 C 
ATOM     54  H   UNL     1      -0.546  12.566  23.589  0.00  0.00    +0.046 HD
ATOM     55  H   UNL     1      -0.574  12.313  21.809  0.00  0.00    +0.046 HD
ATOM     56  H   UNL     1      -0.912  10.953  22.918  0.00  0.00    +0.046 HD
ENDBRANCH  51  53
ENDBRANCH  44  47
ENDBRANCH  38  44
ENDBRANCH   1  38
TORSDOF 7
ENDMDL
MODEL 5
REMARK VINA RESULT:    -7.944      2.220      2.654
REMARK INTER + INTRA:         -10.827
REMARK INTER:                  -9.655
REMARK INTRA:                  -1.173
REMARK UNBOUND:                -0.097
REMARK  Name = 
REMARK  7 active torsions:
REMARK  status: ('A' for Active; 'I' for Inactive)
REMARK    1  A    between atoms: C_1  and  C_2
REMARK    2  A    between atoms: C_2  and  C_3
REMARK    3  A    between atoms: C_2  and  C_10
REMARK    4  A    between atoms: C_3  and  C_4
REMARK    5  A    between atoms: N_8  and  C_9
REMARK    6  A    between atoms: C_18  and  N_19
REMARK    7  A    between atoms: C_26  and  C_27
REMARK                            x       y       z     vdW  Elec       q    Type
REMARK                         _______ _______ _______ _____ _____    ______ ____
ROOT
ATOM      1  C   UNL     1       4.193   6.022  17.099  0.00  0.00    -0.002 A 
ATOM      2  C   UNL     1       3.639   4.746  17.218  0.00  0.00    -0.015 A 
ATOM      3  C   UNL     1       2.544   4.542  18.052  0.00  0.00    +0.124 A 
ATOM      4  N   UNL     1       1.969   3.265  18.165  0.00  0.00    -0.315 N 
ATOM      5  C   UNL     1       1.129   2.840  19.250  0.00  0.00    +0.015 C 
ATOM      6  C   UNL     1       1.411   1.405  18.788  0.00  0.00    -0.021 C 
ATOM      7  C   UNL     1       2.646   2.003  18.102  0.00  0.00    +0.015 C 
ATOM      8  N   UNL     1       1.994   5.558  18.753  0.00  0.00    -0.214 NA
ATOM      9  C   UNL     1       2.521   6.809  18.667  0.00  0.00    +0.166 A 
ATOM     10  C   UNL     1       3.626   7.058  17.854  0.00  0.00    +0.167 A 
ATOM     11  F   UNL     1       4.200   8.264  17.762  0.00  0.00    -0.202 F 
ATOM     12  H   UNL     1       4.050   3.908  16.665  0.00  0.00    +0.066 HD
ATOM     13  H   UNL     1       1.535   3.098  20.232  0.00  0.00    +0.046 HD
ATOM     14  H   UNL     1       0.093   3.176  19.156  0.00  0.00    +0.046 HD
ATOM     15  H   UNL     1       0.664   0.999  18.098  0.00  0.00    +0.030 HD
ATOM     16  H   UNL     1       1.609   0.681  19.582  0.00  0.00    +0.030 HD
ATOM     17  H   UNL     1       3.565   1.980  18.698  0.00  0.00    +0.046 HD
ATOM     18  H   UNL     1       2.834   1.656  17.085  0.00  0.00    +0.046 HD
ENDROOT
BRANCH   9  19
ATOM     19  N   UNL     1       1.867   7.786  19.453  0.00  0.00    -0.245 N 
ATOM     20  C   UNL     1       1.526   9.063  18.840  0.00  0.00    +0.048 C 
ATOM     21  C   UNL     1       0.891   9.820  19.962  0.00  0.00    -0.006 A 
ATOM     22  C   UNL     1       0.875   9.026  21.104  0.00  0.00    +0.042 A 
ATOM     23  C   UNL     1       0.351   9.466  22.306  0.00  0.00    -0.049 A 
ATOM     24  C   UNL     1      -0.174  10.757  22.349  0.00  0.00    -0.060 A 
ATOM     25  C   UNL     1      -0.164  11.572  21.201  0.00  0.00    -0.050 A 
ATOM     26  C   UNL     1       0.372  11.112  19.983  0.00  0.00    +0.060 A 
ATOM     27  C   UNL     1       1.492   7.728  20.788  0.00  0.00    +0.253 C 
ATOM     28  O   UNL     1       1.594   6.857  21.628  0.00  0.00    -0.270 OA
ATOM     29  H   UNL     1       0.814   8.906  18.023  0.00  0.00    +0.052 HD
ATOM     30  H   UNL     1       2.436   9.567  18.498  0.00  0.00    +0.052 HD
ATOM     31  H   UNL     1       0.352   8.823  23.182  0.00  0.00    +0.063 HD
ATOM     32  H   UNL     1      -0.594  11.138  23.278  0.00  0.00    +0.062 HD
ATOM     33  H   UNL     1      -0.583  12.577  21.269  0.00  0.00    +0.062 HD
BRANCH  26  34
ATOM     34  C   UNL     1       0.388  11.975  18.749  0.00  0.00    +0.418 C 
ATOM     35  F   UNL     1       1.635  12.082  18.213  0.00  0.00    -0.166 F 
ATOM     36  F   UNL     1      -0.018  13.248  19.005  0.00  0.00    -0.166 F 
ATOM     37  F   UNL     1      -0.412  11.517  17.750  0.00  0.00    -0.166 F 
ENDBRANCH  26  34
ENDBRANCH   9  19
BRANCH   1  38
ATOM     38  C   UNL     1       5.409   6.321  16.234  0.00  0.00    -0.009 C 
ATOM     39  H   UNL     1       5.454   7.410  16.098  0.00  0.00    +0.035 HD
BRANCH  38  40
ATOM     40  C   UNL     1       5.305   5.741  14.815  0.00  0.00    -0.058 C 
ATOM     41  H   UNL     1       5.317   4.646  14.841  0.00  0.00    +0.024 HD
ATOM     42  H   UNL     1       6.150   6.063  14.197  0.00  0.00    +0.024 HD
ATOM     43  H   UNL     1       4.383   6.047  14.312  0.00  0.00    +0.024 HD
ENDBRANCH  38  40
BRANCH  38  44
ATOM     44  C   UNL     1       6.682   5.846  16.962  0.00  0.00    +0.014 C 
ATOM     45  H   UNL     1       6.438   5.088  17.716  0.00  0.00    +0.035 HD
ATOM     46  H   UNL     1       7.354   5.348  16.252  0.00  0.00    +0.035 HD
BRANCH  44  47
ATOM     47  C   UNL     1       7.410   6.965  17.622  0.00  0.00    +0.134 A 
ATOM     48  N   UNL     1       7.512   8.200  17.174  0.00  0.00    -0.135 NA
ATOM     49  N   UNL     1       8.271   8.918  18.066  0.00  0.00    -0.138 NA
ATOM     50  C   UNL     1       8.619   8.105  19.038  0.00  0.00    +0.120 A 
ATOM     51  N   UNL     1       8.097   6.870  18.805  0.00  0.00    -0.320 N 
ATOM     52  H   UNL     1       9.223   8.361  19.898  0.00  0.00    +0.105 HD
BRANCH  51  53
ATOM     53  C   UNL     1       8.240   5.715  19.653  0.00  0.00    +0.014 C 
ATOM     54  H   UNL     1       7.248   5.360  19.940  0.00  0.00    +0.046 HD
ATOM     55  H   UNL     1       8.818   6.000  20.534  0.00  0.00    +0.046 HD
ATOM     56  H   UNL     1       8.765   4.927  19.108  0.00  0.00    +0.046 HD
ENDBRANCH  51  53
ENDBRANCH  44  47
ENDBRANCH  38  44
ENDBRANCH   1  38
TORSDOF 7
ENDMDL
MODEL 6
REMARK VINA RESULT:    -7.716      2.291      2.729
REMARK INTER + INTRA:         -10.519
REMARK INTER:                  -9.596
REMARK INTRA:                  -0.923
REMARK UNBOUND:                -0.097
REMARK  Name = 
REMARK  7 active torsions:
REMARK  status: ('A' for Active; 'I' for Inactive)
REMARK    1  A    between atoms: C_1  and  C_2
REMARK    2  A    between atoms: C_2  and  C_3
REMARK    3  A    between atoms: C_2  and  C_10
REMARK    4  A    between atoms: C_3  and  C_4
REMARK    5  A    between atoms: N_8  and  C_9
REMARK    6  A    between atoms: C_18  and  N_19
REMARK    7  A    between atoms: C_26  and  C_27
REMARK                            x       y       z     vdW  Elec       q    Type
REMARK                         _______ _______ _______ _____ _____    ______ ____
ROOT
ATOM      1  C   UNL     1       3.898   6.754  17.708  0.00  0.00    -0.002 A 
ATOM      2  C   UNL     1       3.715   5.508  18.311  0.00  0.00    -0.015 A 
ATOM      3  C   UNL     1       2.754   5.355  19.306  0.00  0.00    +0.124 A 
ATOM      4  N   UNL     1       2.550   4.102  19.906  0.00  0.00    -0.315 N 
ATOM      5  C   UNL     1       1.906   3.897  21.173  0.00  0.00    +0.015 C 
ATOM      6  C   UNL     1       2.544   2.503  21.172  0.00  0.00    -0.021 C 
ATOM      7  C   UNL     1       3.540   3.098  20.168  0.00  0.00    +0.015 C 
ATOM      8  N   UNL     1       1.981   6.391  19.703  0.00  0.00    -0.214 NA
ATOM      9  C   UNL     1       2.147   7.619  19.143  0.00  0.00    +0.166 A 
ATOM     10  C   UNL     1       3.106   7.823  18.151  0.00  0.00    +0.167 A 
ATOM     11  F   UNL     1       3.328   9.018  17.594  0.00  0.00    -0.202 F 
ATOM     12  H   UNL     1       4.311   4.653  18.012  0.00  0.00    +0.066 HD
ATOM     13  H   UNL     1       2.271   4.572  21.953  0.00  0.00    +0.046 HD
ATOM     14  H   UNL     1       0.815   3.922  21.116  0.00  0.00    +0.046 HD
ATOM     15  H   UNL     1       1.904   1.715  20.760  0.00  0.00    +0.030 HD
ATOM     16  H   UNL     1       2.966   2.173  22.125  0.00  0.00    +0.030 HD
ATOM     17  H   UNL     1       4.456   3.505  20.609  0.00  0.00    +0.046 HD
ATOM     18  H   UNL     1       3.769   2.471  19.304  0.00  0.00    +0.046 HD
ENDROOT
BRANCH   9  19
ATOM     19  N   UNL     1       1.289   8.623  19.647  0.00  0.00    -0.245 N 
ATOM     20  C   UNL     1       0.429   9.342  18.716  0.00  0.00    +0.048 C 
ATOM     21  C   UNL     1      -0.288  10.315  19.595  0.00  0.00    -0.006 A 
ATOM     22  C   UNL     1       0.135  10.148  20.910  0.00  0.00    +0.042 A 
ATOM     23  C   UNL     1      -0.353  10.918  21.950  0.00  0.00    -0.049 A 
ATOM     24  C   UNL     1      -1.302  11.892  21.643  0.00  0.00    -0.060 A 
ATOM     25  C   UNL     1      -1.740  12.072  20.316  0.00  0.00    -0.050 A 
ATOM     26  C   UNL     1      -1.235  11.282  19.266  0.00  0.00    +0.060 A 
ATOM     27  C   UNL     1       1.137   9.071  20.952  0.00  0.00    +0.253 C 
ATOM     28  O   UNL     1       1.658   8.735  21.997  0.00  0.00    -0.270 OA
ATOM     29  H   UNL     1      -0.276   8.646  18.248  0.00  0.00    +0.052 HD
ATOM     30  H   UNL     1       1.040   9.866  17.973  0.00  0.00    +0.052 HD
ATOM     31  H   UNL     1      -0.004  10.765  22.967  0.00  0.00    +0.063 HD
ATOM     32  H   UNL     1      -1.709  12.518  22.435  0.00  0.00    +0.062 HD
ATOM     33  H   UNL     1      -2.483  12.843  20.111  0.00  0.00    +0.062 HD
BRANCH  26  34
ATOM     34  C   UNL     1      -1.694  11.466  17.845  0.00  0.00    +0.418 C 
ATOM     35  F   UNL     1      -1.019  12.465  17.212  0.00  0.00    -0.166 F 
ATOM     36  F   UNL     1      -3.012  11.800  17.768  0.00  0.00    -0.166 F 
ATOM     37  F   UNL     1      -1.540  10.359  17.071  0.00  0.00    -0.166 F 
ENDBRANCH  26  34
ENDBRANCH   9  19
BRANCH   1  38
ATOM     38  C   UNL     1       4.948   7.011  16.637  0.00  0.00    -0.009 C 
ATOM     39  H   UNL     1       5.126   8.095  16.606  0.00  0.00    +0.035 HD
BRANCH  38  40
ATOM     40  C   UNL     1       4.480   6.638  15.221  0.00  0.00    -0.058 C 
ATOM     41  H   UNL     1       5.289   6.162  14.657  0.00  0.00    +0.024 HD
ATOM     42  H   UNL     1       4.170   7.528  14.664  0.00  0.00    +0.024 HD
ATOM     43  H   UNL     1       3.637   5.939  15.238  0.00  0.00    +0.024 HD
ENDBRANCH  38  40
BRANCH  38  44
ATOM     44  C   UNL     1       6.255   6.292  17.022  0.00  0.00    +0.014 C 
ATOM     45  H   UNL     1       6.051   5.441  17.683  0.00  0.00    +0.035 HD
ATOM     46  H   UNL     1       6.723   5.863  16.127  0.00  0.00    +0.035 HD
BRANCH  44  47
ATOM     47  C   UNL     1       7.227   7.200  17.693  0.00  0.00    +0.134 A 
ATOM     48  N   UNL     1       7.491   8.446  17.355  0.00  0.00    -0.135 NA
ATOM     49  N   UNL     1       8.448   8.928  18.213  0.00  0.00    -0.138 NA
ATOM     50  C   UNL     1       8.752   7.966  19.054  0.00  0.00    +0.120 A 
ATOM     51  N   UNL     1       8.007   6.864  18.770  0.00  0.00    -0.320 N 
ATOM     52  H   UNL     1       9.476   8.024  19.856  0.00  0.00    +0.105 HD
BRANCH  51  53
ATOM     53  C   UNL     1       8.038   5.612  19.481  0.00  0.00    +0.014 C 
ATOM     54  H   UNL     1       8.505   4.855  18.846  0.00  0.00    +0.046 HD
ATOM     55  H   UNL     1       7.014   5.329  19.732  0.00  0.00    +0.046 HD
ATOM     56  H   UNL     1       8.623   5.729  20.397  0.00  0.00    +0.046 HD
ENDBRANCH  51  53
ENDBRANCH  44  47
ENDBRANCH  38  44
ENDBRANCH   1  38
TORSDOF 7
ENDMDL
MODEL 7
REMARK VINA RESULT:    -7.699      3.926      8.956
REMARK INTER + INTRA:         -10.496
REMARK INTER:                  -9.350
REMARK INTRA:                  -1.146
REMARK UNBOUND:                -0.097
REMARK  Name = 
REMARK  7 active torsions:
REMARK  status: ('A' for Active; 'I' for Inactive)
REMARK    1  A    between atoms: C_1  and  C_2
REMARK    2  A    between atoms: C_2  and  C_3
REMARK    3  A    between atoms: C_2  and  C_10
REMARK    4  A    between atoms: C_3  and  C_4
REMARK    5  A    between atoms: N_8  and  C_9
REMARK    6  A    between atoms: C_18  and  N_19
REMARK    7  A    between atoms: C_26  and  C_27
REMARK                            x       y       z     vdW  Elec       q    Type
REMARK                         _______ _______ _______ _____ _____    ______ ____
ROOT
ATOM      1  C   UNL     1      -0.693  11.015  20.690  0.00  0.00    -0.002 A 
ATOM      2  C   UNL     1      -1.672  11.131  19.701  0.00  0.00    -0.015 A 
ATOM      3  C   UNL     1      -1.572  10.375  18.536  0.00  0.00    +0.124 A 
ATOM      4  N   UNL     1      -2.560  10.472  17.543  0.00  0.00    -0.315 N 
ATOM      5  C   UNL     1      -2.385  10.076  16.173  0.00  0.00    +0.015 C 
ATOM      6  C   UNL     1      -3.626  10.921  15.863  0.00  0.00    -0.021 C 
ATOM      7  C   UNL     1      -3.312  11.639  17.182  0.00  0.00    +0.015 C 
ATOM      8  N   UNL     1      -0.545   9.519  18.338  0.00  0.00    -0.214 NA
ATOM      9  C   UNL     1       0.430   9.396  19.279  0.00  0.00    +0.166 A 
ATOM     10  C   UNL     1       0.379  10.142  20.456  0.00  0.00    +0.167 A 
ATOM     11  F   UNL     1       1.329  10.079  21.395  0.00  0.00    -0.202 F 
ATOM     12  H   UNL     1      -2.514  11.802  19.828  0.00  0.00    +0.066 HD
ATOM     13  H   UNL     1      -1.452  10.446  15.737  0.00  0.00    +0.046 HD
ATOM     14  H   UNL     1      -2.489   9.000  16.014  0.00  0.00    +0.046 HD
ATOM     15  H   UNL     1      -4.566  10.359  15.867  0.00  0.00    +0.030 HD
ATOM     16  H   UNL     1      -3.570  11.535  14.961  0.00  0.00    +0.030 HD
ATOM     17  H   UNL     1      -2.692  12.536  17.087  0.00  0.00    +0.046 HD
ATOM     18  H   UNL     1      -4.170  11.826  17.832  0.00  0.00    +0.046 HD
ENDROOT
BRANCH   9  19
ATOM     19  N   UNL     1       1.456   8.478  18.955  0.00  0.00    -0.245 N 
ATOM     20  C   UNL     1       1.488   7.194  19.643  0.00  0.00    +0.048 C 
ATOM     21  C   UNL     1       2.699   6.530  19.069  0.00  0.00    -0.006 A 
ATOM     22  C   UNL     1       3.289   7.375  18.134  0.00  0.00    +0.042 A 
ATOM     23  C   UNL     1       4.434   7.029  17.441  0.00  0.00    -0.049 A 
ATOM     24  C   UNL     1       5.001   5.783  17.707  0.00  0.00    -0.060 A 
ATOM     25  C   UNL     1       4.414   4.918  18.651  0.00  0.00    -0.050 A 
ATOM     26  C   UNL     1       3.247   5.281  19.350  0.00  0.00    +0.060 A 
ATOM     27  C   UNL     1       2.502   8.616  18.054  0.00  0.00    +0.253 C 
ATOM     28  O   UNL     1       2.818   9.515  17.300  0.00  0.00    -0.270 OA
ATOM     29  H   UNL     1       0.583   6.623  19.409  0.00  0.00    +0.052 HD
ATOM     30  H   UNL     1       1.606   7.351  20.720  0.00  0.00    +0.052 HD
ATOM     31  H   UNL     1       4.873   7.709  16.716  0.00  0.00    +0.063 HD
ATOM     32  H   UNL     1       5.903   5.477  17.182  0.00  0.00    +0.062 HD
ATOM     33  H   UNL     1       4.883   3.951  18.836  0.00  0.00    +0.062 HD
BRANCH  26  34
ATOM     34  C   UNL     1       2.613   4.365  20.362  0.00  0.00    +0.418 C 
ATOM     35  F   UNL     1       3.335   3.226  20.548  0.00  0.00    -0.166 F 
ATOM     36  F   UNL     1       1.370   3.960  19.982  0.00  0.00    -0.166 F 
ATOM     37  F   UNL     1       2.468   4.924  21.593  0.00  0.00    -0.166 F 
ENDBRANCH  26  34
ENDBRANCH   9  19
BRANCH   1  38
ATOM     38  C   UNL     1      -0.713  11.828  21.975  0.00  0.00    -0.009 C 
ATOM     39  H   UNL     1       0.326  12.097  22.208  0.00  0.00    +0.035 HD
BRANCH  38  40
ATOM     40  C   UNL     1      -1.208  11.032  23.193  0.00  0.00    -0.058 C 
ATOM     41  H   UNL     1      -2.164  11.427  23.553  0.00  0.00    +0.024 HD
ATOM     42  H   UNL     1      -0.493  11.098  24.021  0.00  0.00    +0.024 HD
ATOM     43  H   UNL     1      -1.358   9.974  22.960  0.00  0.00    +0.024 HD
ENDBRANCH  38  40
BRANCH  38  44
ATOM     44  C   UNL     1      -1.533  13.114  21.752  0.00  0.00    +0.014 C 
ATOM     45  H   UNL     1      -0.990  13.814  21.106  0.00  0.00    +0.035 HD
ATOM     46  H   UNL     1      -2.460  12.877  21.216  0.00  0.00    +0.035 HD
BRANCH  44  47
ATOM     47  C   UNL     1      -1.871  13.802  23.030  0.00  0.00    +0.134 A 
ATOM     48  N   UNL     1      -1.041  14.493  23.785  0.00  0.00    -0.135 NA
ATOM     49  N   UNL     1      -1.739  14.954  24.875  0.00  0.00    -0.138 NA
ATOM     50  C   UNL     1      -2.977  14.532  24.764  0.00  0.00    +0.120 A 
ATOM     51  N   UNL     1      -3.109  13.809  23.619  0.00  0.00    -0.320 N 
ATOM     52  H   UNL     1      -3.781  14.722  25.462  0.00  0.00    +0.105 HD
BRANCH  51  53
ATOM     53  C   UNL     1      -4.320  13.196  23.137  0.00  0.00    +0.014 C 
ATOM     54  H   UNL     1      -4.873  12.787  23.986  0.00  0.00    +0.046 HD
ATOM     55  H   UNL     1      -4.053  12.406  22.433  0.00  0.00    +0.046 HD
ATOM     56  H   UNL     1      -4.932  13.948  22.633  0.00  0.00    +0.046 HD
ENDBRANCH  51  53
ENDBRANCH  44  47
ENDBRANCH  38  44
ENDBRANCH   1  38
TORSDOF 7
ENDMDL
MODEL 8
REMARK VINA RESULT:    -7.646      2.589      3.380
REMARK INTER + INTRA:         -10.424
REMARK INTER:                 -10.004
REMARK INTRA:                  -0.420
REMARK UNBOUND:                -0.097
REMARK  Name = 
REMARK  7 active torsions:
REMARK  status: ('A' for Active; 'I' for Inactive)
REMARK    1  A    between atoms: C_1  and  C_2
REMARK    2  A    between atoms: C_2  and  C_3
REMARK    3  A    between atoms: C_2  and  C_10
REMARK    4  A    between atoms: C_3  and  C_4
REMARK    5  A    between atoms: N_8  and  C_9
REMARK    6  A    between atoms: C_18  and  N_19
REMARK    7  A    between atoms: C_26  and  C_27
REMARK                            x       y       z     vdW  Elec       q    Type
REMARK                         _______ _______ _______ _____ _____    ______ ____
ROOT
ATOM      1  C   UNL     1       3.863   6.791  18.075  0.00  0.00    -0.002 A 
ATOM      2  C   UNL     1       3.635   5.538  18.646  0.00  0.00    -0.015 A 
ATOM      3  C   UNL     1       2.631   5.383  19.599  0.00  0.00    +0.124 A 
ATOM      4  N   UNL     1       2.383   4.123  20.166  0.00  0.00    -0.315 N 
ATOM      5  C   UNL     1       1.685   3.906  21.402  0.00  0.00    +0.015 C 
ATOM      6  C   UNL     1       2.299   2.501  21.400  0.00  0.00    -0.021 C 
ATOM      7  C   UNL     1       3.345   3.097  20.449  0.00  0.00    +0.015 C 
ATOM      8  N   UNL     1       1.861   6.425  19.985  0.00  0.00    -0.214 NA
ATOM      9  C   UNL     1       2.070   7.660  19.455  0.00  0.00    +0.166 A 
ATOM     10  C   UNL     1       3.072   7.865  18.507  0.00  0.00    +0.167 A 
ATOM     11  F   UNL     1       3.336   9.066  17.982  0.00  0.00    -0.202 F 
ATOM     12  H   UNL     1       4.228   4.678  18.355  0.00  0.00    +0.066 HD
ATOM     13  H   UNL     1       2.029   4.561  22.209  0.00  0.00    +0.046 HD
ATOM     14  H   UNL     1       0.598   3.951  21.302  0.00  0.00    +0.046 HD
ATOM     15  H   UNL     1       1.663   1.732  20.948  0.00  0.00    +0.030 HD
ATOM     16  H   UNL     1       2.676   2.146  22.363  0.00  0.00    +0.030 HD
ATOM     17  H   UNL     1       4.249   3.479  20.934  0.00  0.00    +0.046 HD
ATOM     18  H   UNL     1       3.598   2.482  19.583  0.00  0.00    +0.046 HD
ENDROOT
BRANCH   9  19
ATOM     19  N   UNL     1       1.209   8.670  19.943  0.00  0.00    -0.245 N 
ATOM     20  C   UNL     1       0.379   9.400  18.995  0.00  0.00    +0.048 C 
ATOM     21  C   UNL     1      -0.350  10.377  19.862  0.00  0.00    -0.006 A 
ATOM     22  C   UNL     1       0.040  10.199  21.185  0.00  0.00    +0.042 A 
ATOM     23  C   UNL     1      -0.466  10.969  22.217  0.00  0.00    -0.049 A 
ATOM     24  C   UNL     1      -1.399  11.953  21.892  0.00  0.00    -0.060 A 
ATOM     25  C   UNL     1      -1.803  12.143  20.557  0.00  0.00    -0.050 A 
ATOM     26  C   UNL     1      -1.280  11.353  19.515  0.00  0.00    +0.060 A 
ATOM     27  C   UNL     1       1.030   9.113  21.246  0.00  0.00    +0.253 C 
ATOM     28  O   UNL     1       1.522   8.767  22.302  0.00  0.00    -0.270 OA
ATOM     29  H   UNL     1      -0.321   8.714  18.507  0.00  0.00    +0.052 HD
ATOM     30  H   UNL     1       1.013   9.922  18.270  0.00  0.00    +0.052 HD
ATOM     31  H   UNL     1      -0.144  10.808  23.242  0.00  0.00    +0.063 HD
ATOM     32  H   UNL     1      -1.819  12.579  22.678  0.00  0.00    +0.062 HD
ATOM     33  H   UNL     1      -2.534  12.922  20.337  0.00  0.00    +0.062 HD
BRANCH  26  34
ATOM     34  C   UNL     1      -1.703  11.549  18.084  0.00  0.00    +0.418 C 
ATOM     35  F   UNL     1      -1.008  12.548  17.474  0.00  0.00    -0.166 F 
ATOM     36  F   UNL     1      -3.017  11.890  17.977  0.00  0.00    -0.166 F 
ATOM     37  F   UNL     1      -1.535  10.446  17.307  0.00  0.00    -0.166 F 
ENDBRANCH  26  34
ENDBRANCH   9  19
BRANCH   1  38
ATOM     38  C   UNL     1       4.959   7.049  17.051  0.00  0.00    -0.009 C 
ATOM     39  H   UNL     1       5.362   8.052  17.250  0.00  0.00    +0.035 HD
BRANCH  38  40
ATOM     40  C   UNL     1       4.444   7.099  15.605  0.00  0.00    -0.058 C 
ATOM     41  H   UNL     1       3.354   7.193  15.583  0.00  0.00    +0.024 HD
ATOM     42  H   UNL     1       4.704   6.182  15.064  0.00  0.00    +0.024 HD
ATOM     43  H   UNL     1       4.857   7.947  15.050  0.00  0.00    +0.024 HD
ENDBRANCH  38  40
BRANCH  38  44
ATOM     44  C   UNL     1       6.080   6.006  17.231  0.00  0.00    +0.014 C 
ATOM     45  H   UNL     1       7.025   6.494  17.499  0.00  0.00    +0.035 HD
ATOM     46  H   UNL     1       5.842   5.344  18.073  0.00  0.00    +0.035 HD
BRANCH  44  47
ATOM     47  C   UNL     1       6.293   5.184  16.008  0.00  0.00    +0.134 A 
ATOM     48  N   UNL     1       7.151   5.435  15.040  0.00  0.00    -0.135 NA
ATOM     49  N   UNL     1       7.031   4.446  14.094  0.00  0.00    -0.138 NA
ATOM     50  C   UNL     1       6.100   3.614  14.503  0.00  0.00    +0.120 A 
ATOM     51  N   UNL     1       5.612   4.033  15.702  0.00  0.00    -0.320 N 
ATOM     52  H   UNL     1       5.763   2.728  13.983  0.00  0.00    +0.105 HD
BRANCH  51  53
ATOM     53  C   UNL     1       4.594   3.376  16.481  0.00  0.00    +0.014 C 
ATOM     54  H   UNL     1       3.768   4.072  16.646  0.00  0.00    +0.046 HD
ATOM     55  H   UNL     1       5.032   3.063  17.431  0.00  0.00    +0.046 HD
ATOM     56  H   UNL     1       4.229   2.501  15.937  0.00  0.00    +0.046 HD
ENDBRANCH  51  53
ENDBRANCH  44  47
ENDBRANCH  38  44
ENDBRANCH   1  38
TORSDOF 7
ENDMDL
MODEL 9
REMARK VINA RESULT:    -7.627      3.832      8.922
REMARK INTER + INTRA:         -10.399
REMARK INTER:                  -9.373
REMARK INTRA:                  -1.026
REMARK UNBOUND:                -0.097
REMARK  Name = 
REMARK  7 active torsions:
REMARK  status: ('A' for Active; 'I' for Inactive)
REMARK    1  A    between atoms: C_1  and  C_2
REMARK    2  A    between atoms: C_2  and  C_3
REMARK    3  A    between atoms: C_2  and  C_10
REMARK    4  A    between atoms: C_3  and  C_4
REMARK    5  A    between atoms: N_8  and  C_9
REMARK    6  A    between atoms: C_18  and  N_19
REMARK    7  A    between atoms: C_26  and  C_27
REMARK                            x       y       z     vdW  Elec       q    Type
REMARK                         _______ _______ _______ _____ _____    ______ ____
ROOT
ATOM      1  C   UNL     1      -0.535  10.929  20.712  0.00  0.00    -0.002 A 
ATOM      2  C   UNL     1      -1.517  11.064  19.729  0.00  0.00    -0.015 A 
ATOM      3  C   UNL     1      -1.451  10.289  18.574  0.00  0.00    +0.124 A 
ATOM      4  N   UNL     1      -2.443  10.406  17.587  0.00  0.00    -0.315 N 
ATOM      5  C   UNL     1      -2.292   9.985  16.222  0.00  0.00    +0.015 C 
ATOM      6  C   UNL     1      -3.506  10.867  15.908  0.00  0.00    -0.021 C 
ATOM      7  C   UNL     1      -3.159  11.592  17.215  0.00  0.00    +0.015 C 
ATOM      8  N   UNL     1      -0.454   9.397  18.381  0.00  0.00    -0.214 NA
ATOM      9  C   UNL     1       0.523   9.254  19.316  0.00  0.00    +0.166 A 
ATOM     10  C   UNL     1       0.505  10.018  20.483  0.00  0.00    +0.167 A 
ATOM     11  F   UNL     1       1.461   9.936  21.416  0.00  0.00    -0.202 F 
ATOM     12  H   UNL     1      -2.335  11.765  19.853  0.00  0.00    +0.066 HD
ATOM     13  H   UNL     1      -1.350  10.318  15.774  0.00  0.00    +0.046 HD
ATOM     14  H   UNL     1      -2.433   8.911  16.079  0.00  0.00    +0.046 HD
ATOM     15  H   UNL     1      -4.465  10.337  15.927  0.00  0.00    +0.030 HD
ATOM     16  H   UNL     1      -3.436  11.466  14.997  0.00  0.00    +0.030 HD
ATOM     17  H   UNL     1      -2.509  12.466  17.102  0.00  0.00    +0.046 HD
ATOM     18  H   UNL     1      -4.004  11.817  17.868  0.00  0.00    +0.046 HD
ENDROOT
BRANCH   9  19
ATOM     19  N   UNL     1       1.515   8.298  18.998  0.00  0.00    -0.245 N 
ATOM     20  C   UNL     1       1.523   7.032  19.719  0.00  0.00    +0.048 C 
ATOM     21  C   UNL     1       2.702   6.318  19.141  0.00  0.00    -0.006 A 
ATOM     22  C   UNL     1       3.299   7.120  18.173  0.00  0.00    +0.042 A 
ATOM     23  C   UNL     1       4.420   6.723  17.468  0.00  0.00    -0.049 A 
ATOM     24  C   UNL     1       4.955   5.468  17.757  0.00  0.00    -0.060 A 
ATOM     25  C   UNL     1       4.361   4.645  18.734  0.00  0.00    -0.050 A 
ATOM     26  C   UNL     1       3.219   5.061  19.445  0.00  0.00    +0.060 A 
ATOM     27  C   UNL     1       2.547   8.382  18.075  0.00  0.00    +0.253 C 
ATOM     28  O   UNL     1       2.874   9.251  17.292  0.00  0.00    -0.270 OA
ATOM     29  H   UNL     1       0.597   6.483  19.517  0.00  0.00    +0.052 HD
ATOM     30  H   UNL     1       1.665   7.213  20.790  0.00  0.00    +0.052 HD
ATOM     31  H   UNL     1       4.864   7.370  16.718  0.00  0.00    +0.063 HD
ATOM     32  H   UNL     1       5.838   5.121  17.224  0.00  0.00    +0.062 HD
ATOM     33  H   UNL     1       4.805   3.669  18.936  0.00  0.00    +0.062 HD
BRANCH  26  34
ATOM     34  C   UNL     1       2.578   4.191  20.492  0.00  0.00    +0.418 C 
ATOM     35  F   UNL     1       1.310   3.827  20.152  0.00  0.00    -0.166 F 
ATOM     36  F   UNL     1       2.475   4.821  21.694  0.00  0.00    -0.166 F 
ATOM     37  F   UNL     1       3.249   3.032  20.729  0.00  0.00    -0.166 F 
ENDBRANCH  26  34
ENDBRANCH   9  19
BRANCH   1  38
ATOM     38  C   UNL     1      -0.518  11.761  21.986  0.00  0.00    -0.009 C 
ATOM     39  H   UNL     1       0.534  11.953  22.237  0.00  0.00    +0.035 HD
BRANCH  38  40
ATOM     40  C   UNL     1      -1.096  11.023  23.204  0.00  0.00    -0.058 C 
ATOM     41  H   UNL     1      -2.190  11.018  23.173  0.00  0.00    +0.024 HD
ATOM     42  H   UNL     1      -0.797  11.512  24.137  0.00  0.00    +0.024 HD
ATOM     43  H   UNL     1      -0.765   9.980  23.249  0.00  0.00    +0.024 HD
ENDBRANCH  38  40
BRANCH  38  44
ATOM     44  C   UNL     1      -1.233  13.102  21.730  0.00  0.00    +0.014 C 
ATOM     45  H   UNL     1      -0.563  13.945  21.937  0.00  0.00    +0.035 HD
ATOM     46  H   UNL     1      -1.494  13.188  20.667  0.00  0.00    +0.035 HD
BRANCH  44  47
ATOM     47  C   UNL     1      -2.467  13.254  22.550  0.00  0.00    +0.134 A 
ATOM     48  N   UNL     1      -3.643  12.718  22.296  0.00  0.00    -0.135 NA
ATOM     49  N   UNL     1      -4.514  13.108  23.284  0.00  0.00    -0.138 NA
ATOM     50  C   UNL     1      -3.853  13.877  24.117  0.00  0.00    +0.120 A 
ATOM     51  N   UNL     1      -2.562  13.994  23.701  0.00  0.00    -0.320 N 
ATOM     52  H   UNL     1      -4.253  14.351  25.004  0.00  0.00    +0.105 HD
BRANCH  51  53
ATOM     53  C   UNL     1      -1.522  14.739  24.361  0.00  0.00    +0.014 C 
ATOM     54  H   UNL     1      -1.008  15.360  23.624  0.00  0.00    +0.046 HD
ATOM     55  H   UNL     1      -0.828  14.033  24.822  0.00  0.00    +0.046 HD
ATOM     56  H   UNL     1      -1.963  15.377  25.131  0.00  0.00    +0.046 HD
ENDBRANCH  51  53
ENDBRANCH  44  47
ENDBRANCH  38  44
ENDBRANCH   1  38
TORSDOF 7
ENDMDL
MODEL 10
REMARK VINA RESULT:    -7.624      3.291      8.730
REMARK INTER + INTRA:         -10.395
REMARK INTER:                  -9.492
REMARK INTRA:                  -0.903
REMARK UNBOUND:                -0.097
REMARK  Name = 
REMARK  7 active torsions:
REMARK  status: ('A' for Active; 'I' for Inactive)
REMARK    1  A    between atoms: C_1  and  C_2
REMARK    2  A    between atoms: C_2  and  C_3
REMARK    3  A    between atoms: C_2  and  C_10
REMARK    4  A    between atoms: C_3  and  C_4
REMARK    5  A    between atoms: N_8  and  C_9
REMARK    6  A    between atoms: C_18  and  N_19
REMARK    7  A    between atoms: C_26  and  C_27
REMARK                            x       y       z     vdW  Elec       q    Type
REMARK                         _______ _______ _______ _____ _____    ______ ____
ROOT
ATOM      1  C   UNL     1      -0.073  12.107  19.439  0.00  0.00    -0.002 A 
ATOM      2  C   UNL     1      -1.118  11.945  18.528  0.00  0.00    -0.015 A 
ATOM      3  C   UNL     1      -1.286  10.727  17.875  0.00  0.00    +0.124 A 
ATOM      4  N   UNL     1      -2.345  10.549  16.970  0.00  0.00    -0.315 N 
ATOM      5  C   UNL     1      -2.397   9.526  15.963  0.00  0.00    +0.015 C 
ATOM      6  C   UNL     1      -3.492  10.364  15.294  0.00  0.00    -0.021 C 
ATOM      7  C   UNL     1      -2.910  11.536  16.096  0.00  0.00    +0.015 C 
ATOM      8  N   UNL     1      -0.458   9.684  18.108  0.00  0.00    -0.214 NA
ATOM      9  C   UNL     1       0.576   9.817  18.981  0.00  0.00    +0.166 A 
ATOM     10  C   UNL     1       0.791  11.023  19.648  0.00  0.00    +0.167 A 
ATOM     11  F   UNL     1       1.813  11.212  20.490  0.00  0.00    -0.202 F 
ATOM     12  H   UNL     1      -1.807  12.757  18.321  0.00  0.00    +0.066 HD
ATOM     13  H   UNL     1      -1.467   9.439  15.393  0.00  0.00    +0.046 HD
ATOM     14  H   UNL     1      -2.710   8.552  16.348  0.00  0.00    +0.046 HD
ATOM     15  H   UNL     1      -4.512  10.084  15.580  0.00  0.00    +0.030 HD
ATOM     16  H   UNL     1      -3.427  10.451  14.206  0.00  0.00    +0.030 HD
ATOM     17  H   UNL     1      -2.152  12.127  15.570  0.00  0.00    +0.046 HD
ATOM     18  H   UNL     1      -3.642  12.184  16.581  0.00  0.00    +0.046 HD
ENDROOT
BRANCH   9  19
ATOM     19  N   UNL     1       1.378   8.662  19.134  0.00  0.00    -0.245 N 
ATOM     20  C   UNL     1       2.374   8.362  18.114  0.00  0.00    +0.048 C 
ATOM     21  C   UNL     1       2.982   7.084  18.597  0.00  0.00    -0.006 A 
ATOM     22  C   UNL     1       2.377   6.707  19.791  0.00  0.00    +0.042 A 
ATOM     23  C   UNL     1       2.732   5.558  20.473  0.00  0.00    -0.049 A 
ATOM     24  C   UNL     1       3.736   4.763  19.921  0.00  0.00    -0.060 A 
ATOM     25  C   UNL     1       4.357   5.132  18.712  0.00  0.00    -0.050 A 
ATOM     26  C   UNL     1       3.987   6.306  18.028  0.00  0.00    +0.060 A 
ATOM     27  C   UNL     1       1.356   7.708  20.141  0.00  0.00    +0.253 C 
ATOM     28  O   UNL     1       0.687   7.600  21.150  0.00  0.00    -0.270 OA
ATOM     29  H   UNL     1       3.122   9.161  18.078  0.00  0.00    +0.052 HD
ATOM     30  H   UNL     1       1.884   8.217  17.145  0.00  0.00    +0.052 HD
ATOM     31  H   UNL     1       2.242   5.289  21.404  0.00  0.00    +0.063 HD
ATOM     32  H   UNL     1       4.042   3.850  20.428  0.00  0.00    +0.062 HD
ATOM     33  H   UNL     1       5.139   4.488  18.308  0.00  0.00    +0.062 HD
BRANCH  26  34
ATOM     34  C   UNL     1       4.644   6.710  16.736  0.00  0.00    +0.418 C 
ATOM     35  F   UNL     1       4.997   5.633  15.980  0.00  0.00    -0.166 F 
ATOM     36  F   UNL     1       5.790   7.414  16.938  0.00  0.00    -0.166 F 
ATOM     37  F   UNL     1       3.859   7.485  15.941  0.00  0.00    -0.166 F 
ENDBRANCH  26  34
ENDBRANCH   9  19
BRANCH   1  38
ATOM     38  C   UNL     1       0.197  13.415  20.168  0.00  0.00    -0.009 C 
ATOM     39  H   UNL     1      -0.641  14.091  19.947  0.00  0.00    +0.035 HD
BRANCH  38  40
ATOM     40  C   UNL     1       1.450  14.146  19.665  0.00  0.00    -0.058 C 
ATOM     41  H   UNL     1       1.247  15.213  19.524  0.00  0.00    +0.024 HD
ATOM     42  H   UNL     1       1.779  13.745  18.701  0.00  0.00    +0.024 HD
ATOM     43  H   UNL     1       2.285  14.063  20.368  0.00  0.00    +0.024 HD
ENDBRANCH  38  40
BRANCH  38  44
ATOM     44  C   UNL     1       0.250  13.151  21.686  0.00  0.00    +0.014 C 
ATOM     45  H   UNL     1       0.859  12.266  21.905  0.00  0.00    +0.035 HD
ATOM     46  H   UNL     1       0.751  13.985  22.192  0.00  0.00    +0.035 HD
BRANCH  44  47
ATOM     47  C   UNL     1      -1.104  12.961  22.278  0.00  0.00    +0.134 A 
ATOM     48  N   UNL     1      -2.060  13.865  22.339  0.00  0.00    -0.135 NA
ATOM     49  N   UNL     1      -3.144  13.299  22.967  0.00  0.00    -0.138 NA
ATOM     50  C   UNL     1      -2.824  12.064  23.279  0.00  0.00    +0.120 A 
ATOM     51  N   UNL     1      -1.555  11.805  22.862  0.00  0.00    -0.320 N 
ATOM     52  H   UNL     1      -3.457  11.349  23.786  0.00  0.00    +0.105 HD
BRANCH  51  53
ATOM     53  C   UNL     1      -0.853  10.555  23.003  0.00  0.00    +0.014 C 
ATOM     54  H   UNL     1      -1.581   9.756  23.161  0.00  0.00    +0.046 HD
ATOM     55  H   UNL     1      -0.173  10.633  23.854  0.00  0.00    +0.046 HD
ATOM     56  H   UNL     1      -0.283  10.353  22.093  0.00  0.00    +0.046 HD
ENDBRANCH  51  53
ENDBRANCH  44  47
ENDBRANCH  38  44
ENDBRANCH   1  38
TORSDOF 7
ENDMDL
MODEL 11
REMARK VINA RESULT:    -7.622      3.401      9.045
REMARK INTER + INTRA:         -10.392
REMARK INTER:                 -10.324
REMARK INTRA:                  -0.067
REMARK UNBOUND:                -0.097
REMARK  Name = 
REMARK  7 active torsions:
REMARK  status: ('A' for Active; 'I' for Inactive)
REMARK    1  A    between atoms: C_1  and  C_2
REMARK    2  A    between atoms: C_2  and  C_3
REMARK    3  A    between atoms: C_2  and  C_10
REMARK    4  A    between atoms: C_3  and  C_4
REMARK    5  A    between atoms: N_8  and  C_9
REMARK    6  A    between atoms: C_18  and  N_19
REMARK    7  A    between atoms: C_26  and  C_27
REMARK                            x       y       z     vdW  Elec       q    Type
REMARK                         _______ _______ _______ _____ _____    ______ ____
ROOT
ATOM      1  C   UNL     1      -0.582  11.615  18.723  0.00  0.00    -0.002 A 
ATOM      2  C   UNL     1       0.313  12.652  18.455  0.00  0.00    -0.015 A 
ATOM      3  C   UNL     1       1.673  12.380  18.333  0.00  0.00    +0.124 A 
ATOM      4  N   UNL     1       2.578  13.414  18.046  0.00  0.00    -0.315 N 
ATOM      5  C   UNL     1       3.993  13.352  18.285  0.00  0.00    +0.015 C 
ATOM      6  C   UNL     1       3.993  14.879  18.156  0.00  0.00    -0.021 C 
ATOM      7  C   UNL     1       2.496  14.780  18.476  0.00  0.00    +0.015 C 
ATOM      8  N   UNL     1       2.153  11.123  18.463  0.00  0.00    -0.214 NA
ATOM      9  C   UNL     1       1.306  10.095  18.738  0.00  0.00    +0.166 A 
ATOM     10  C   UNL     1      -0.062  10.322  18.882  0.00  0.00    +0.167 A 
ATOM     11  F   UNL     1      -0.929   9.349  19.184  0.00  0.00    -0.202 F 
ATOM     12  H   UNL     1      -0.037  13.672  18.337  0.00  0.00    +0.066 HD
ATOM     13  H   UNL     1       4.243  12.971  19.280  0.00  0.00    +0.046 HD
ATOM     14  H   UNL     1       4.542  12.808  17.512  0.00  0.00    +0.046 HD
ATOM     15  H   UNL     1       4.216  15.246  17.148  0.00  0.00    +0.030 HD
ATOM     16  H   UNL     1       4.602  15.418  18.886  0.00  0.00    +0.030 HD
ATOM     17  H   UNL     1       2.240  14.880  19.536  0.00  0.00    +0.046 HD
ATOM     18  H   UNL     1       1.840  15.396  17.857  0.00  0.00    +0.046 HD
ENDROOT
BRANCH   9  19
ATOM     19  N   UNL     1       1.927   8.830  18.861  0.00  0.00    -0.245 N 
ATOM     20  C   UNL     1       2.870   8.411  17.833  0.00  0.00    +0.048 C 
ATOM     21  C   UNL     1       3.281   7.046  18.284  0.00  0.00    -0.006 A 
ATOM     22  C   UNL     1       2.623   6.733  19.469  0.00  0.00    +0.042 A 
ATOM     23  C   UNL     1       2.802   5.527  20.121  0.00  0.00    -0.049 A 
ATOM     24  C   UNL     1       3.678   4.606  19.549  0.00  0.00    -0.060 A 
ATOM     25  C   UNL     1       4.351   4.909  18.349  0.00  0.00    -0.050 A 
ATOM     26  C   UNL     1       4.161   6.141  17.695  0.00  0.00    +0.060 A 
ATOM     27  C   UNL     1       1.761   7.865  19.845  0.00  0.00    +0.253 C 
ATOM     28  O   UNL     1       1.081   7.833  20.851  0.00  0.00    -0.270 OA
ATOM     29  H   UNL     1       3.729   9.091  17.817  0.00  0.00    +0.052 HD
ATOM     30  H   UNL     1       2.367   8.364  16.862  0.00  0.00    +0.052 HD
ATOM     31  H   UNL     1       2.275   5.311  21.046  0.00  0.00    +0.063 HD
ATOM     32  H   UNL     1       3.844   3.645  20.033  0.00  0.00    +0.062 HD
ATOM     33  H   UNL     1       5.030   4.166  17.928  0.00  0.00    +0.062 HD
BRANCH  26  34
ATOM     34  C   UNL     1       4.874   6.475  16.413  0.00  0.00    +0.418 C 
ATOM     35  F   UNL     1       5.090   5.373  15.642  0.00  0.00    -0.166 F 
ATOM     36  F   UNL     1       6.101   7.023  16.632  0.00  0.00    -0.166 F 
ATOM     37  F   UNL     1       4.202   7.357  15.625  0.00  0.00    -0.166 F 
ENDBRANCH  26  34
ENDBRANCH   9  19
BRANCH   1  38
ATOM     38  C   UNL     1      -2.077  11.834  18.902  0.00  0.00    -0.009 C 
ATOM     39  H   UNL     1      -2.367  12.662  18.240  0.00  0.00    +0.035 HD
BRANCH  38  40
ATOM     40  C   UNL     1      -2.461  12.295  20.317  0.00  0.00    -0.058 C 
ATOM     41  H   UNL     1      -1.663  12.900  20.759  0.00  0.00    +0.024 HD
ATOM     42  H   UNL     1      -2.625  11.437  20.978  0.00  0.00    +0.024 HD
ATOM     43  H   UNL     1      -3.371  12.902  20.319  0.00  0.00    +0.024 HD
ENDBRANCH  38  40
BRANCH  38  44
ATOM     44  C   UNL     1      -2.833  10.559  18.483  0.00  0.00    +0.014 C 
ATOM     45  H   UNL     1      -2.285   9.662  18.796  0.00  0.00    +0.035 HD
ATOM     46  H   UNL     1      -3.798  10.510  19.003  0.00  0.00    +0.035 HD
BRANCH  44  47
ATOM     47  C   UNL     1      -3.066  10.492  17.014  0.00  0.00    +0.134 A 
ATOM     48  N   UNL     1      -2.327   9.843  16.137  0.00  0.00    -0.135 NA
ATOM     49  N   UNL     1      -2.871  10.040  14.890  0.00  0.00    -0.138 NA
ATOM     50  C   UNL     1      -3.926  10.809  15.032  0.00  0.00    +0.120 A 
ATOM     51  N   UNL     1      -4.091  11.114  16.348  0.00  0.00    -0.320 N 
ATOM     52  H   UNL     1      -4.576  11.153  14.239  0.00  0.00    +0.105 HD
BRANCH  51  53
ATOM     53  C   UNL     1      -5.147  11.918  16.906  0.00  0.00    +0.014 C 
ATOM     54  H   UNL     1      -4.747  12.903  17.161  0.00  0.00    +0.046 HD
ATOM     55  H   UNL     1      -5.533  11.416  17.795  0.00  0.00    +0.046 HD
ATOM     56  H   UNL     1      -5.947  12.031  16.170  0.00  0.00    +0.046 HD
ENDBRANCH  51  53
ENDBRANCH  44  47
ENDBRANCH  38  44
ENDBRANCH   1  38
TORSDOF 7
ENDMDL
MODEL 12
REMARK VINA RESULT:    -7.424      3.457      8.093
REMARK INTER + INTRA:         -10.124
REMARK INTER:                  -9.013
REMARK INTRA:                  -1.111
REMARK UNBOUND:                -0.097
REMARK  Name = 
REMARK  7 active torsions:
REMARK  status: ('A' for Active; 'I' for Inactive)
REMARK    1  A    between atoms: C_1  and  C_2
REMARK    2  A    between atoms: C_2  and  C_3
REMARK    3  A    between atoms: C_2  and  C_10
REMARK    4  A    between atoms: C_3  and  C_4
REMARK    5  A    between atoms: N_8  and  C_9
REMARK    6  A    between atoms: C_18  and  N_19
REMARK    7  A    between atoms: C_26  and  C_27
REMARK                            x       y       z     vdW  Elec       q    Type
REMARK                         _______ _______ _______ _____ _____    ______ ____
ROOT
ATOM      1  C   UNL     1       0.012  12.158  19.304  0.00  0.00    -0.002 A 
ATOM      2  C   UNL     1      -1.066  11.981  18.434  0.00  0.00    -0.015 A 
ATOM      3  C   UNL     1      -1.277  10.742  17.836  0.00  0.00    +0.124 A 
ATOM      4  N   UNL     1      -2.368  10.550  16.973  0.00  0.00    -0.315 N 
ATOM      5  C   UNL     1      -2.472   9.489  16.010  0.00  0.00    +0.015 C 
ATOM      6  C   UNL     1      -3.573  10.322  15.343  0.00  0.00    -0.021 C 
ATOM      7  C   UNL     1      -2.943  11.512  16.079  0.00  0.00    +0.015 C 
ATOM      8  N   UNL     1      -0.461   9.693  18.084  0.00  0.00    -0.214 NA
ATOM      9  C   UNL     1       0.604   9.840  18.917  0.00  0.00    +0.166 A 
ATOM     10  C   UNL     1       0.862  11.066  19.528  0.00  0.00    +0.167 A 
ATOM     11  F   UNL     1       1.915  11.268  20.329  0.00  0.00    -0.202 F 
ATOM     12  H   UNL     1      -1.745  12.798  18.218  0.00  0.00    +0.066 HD
ATOM     13  H   UNL     1      -1.563   9.362  15.414  0.00  0.00    +0.046 HD
ATOM     14  H   UNL     1      -2.790   8.537  16.442  0.00  0.00    +0.046 HD
ATOM     15  H   UNL     1      -4.587  10.073  15.672  0.00  0.00    +0.030 HD
ATOM     16  H   UNL     1      -3.541  10.365  14.251  0.00  0.00    +0.030 HD
ATOM     17  H   UNL     1      -2.192  12.067  15.506  0.00  0.00    +0.046 HD
ATOM     18  H   UNL     1      -3.647  12.193  16.561  0.00  0.00    +0.046 HD
ENDROOT
BRANCH   9  19
ATOM     19  N   UNL     1       1.389   8.676  19.089  0.00  0.00    -0.245 N 
ATOM     20  C   UNL     1       2.389   8.351  18.081  0.00  0.00    +0.048 C 
ATOM     21  C   UNL     1       2.976   7.071  18.584  0.00  0.00    -0.006 A 
ATOM     22  C   UNL     1       2.357   6.716  19.778  0.00  0.00    +0.042 A 
ATOM     23  C   UNL     1       2.691   5.570  20.475  0.00  0.00    -0.049 A 
ATOM     24  C   UNL     1       3.688   4.755  19.941  0.00  0.00    -0.060 A 
ATOM     25  C   UNL     1       4.324   5.103  18.733  0.00  0.00    -0.050 A 
ATOM     26  C   UNL     1       3.975   6.273  18.033  0.00  0.00    +0.060 A 
ATOM     27  C   UNL     1       1.346   7.734  20.108  0.00  0.00    +0.253 C 
ATOM     28  O   UNL     1       0.668   7.647  21.112  0.00  0.00    -0.270 OA
ATOM     29  H   UNL     1       3.148   9.140  18.042  0.00  0.00    +0.052 HD
ATOM     30  H   UNL     1       1.904   8.201  17.110  0.00  0.00    +0.052 HD
ATOM     31  H   UNL     1       2.190   5.318  21.406  0.00  0.00    +0.063 HD
ATOM     32  H   UNL     1       3.978   3.844  20.461  0.00  0.00    +0.062 HD
ATOM     33  H   UNL     1       5.101   4.443  18.343  0.00  0.00    +0.062 HD
BRANCH  26  34
ATOM     34  C   UNL     1       4.647   6.653  16.741  0.00  0.00    +0.418 C 
ATOM     35  F   UNL     1       5.014   5.562  16.012  0.00  0.00    -0.166 F 
ATOM     36  F   UNL     1       5.789   7.366  16.944  0.00  0.00    -0.166 F 
ATOM     37  F   UNL     1       3.871   7.409  15.920  0.00  0.00    -0.166 F 
ENDBRANCH  26  34
ENDBRANCH   9  19
BRANCH   1  38
ATOM     38  C   UNL     1       0.329  13.487  19.972  0.00  0.00    -0.009 C 
ATOM     39  H   UNL     1       0.795  13.264  20.942  0.00  0.00    +0.035 HD
BRANCH  38  40
ATOM     40  C   UNL     1      -0.921  14.316  20.306  0.00  0.00    -0.058 C 
ATOM     41  H   UNL     1      -1.633  13.727  20.893  0.00  0.00    +0.024 HD
ATOM     42  H   UNL     1      -1.435  14.637  19.393  0.00  0.00    +0.024 HD
ATOM     43  H   UNL     1      -0.678  15.210  20.889  0.00  0.00    +0.024 HD
ENDBRANCH  38  40
BRANCH  38  44
ATOM     44  C   UNL     1       1.327  14.272  19.098  0.00  0.00    +0.014 C 
ATOM     45  H   UNL     1       1.477  13.769  18.134  0.00  0.00    +0.035 HD
ATOM     46  H   UNL     1       0.913  15.258  18.853  0.00  0.00    +0.035 HD
BRANCH  44  47
ATOM     47  C   UNL     1       2.649  14.446  19.761  0.00  0.00    +0.134 A 
ATOM     48  N   UNL     1       2.923  14.205  21.027  0.00  0.00    -0.135 NA
ATOM     49  N   UNL     1       4.248  14.502  21.241  0.00  0.00    -0.138 NA
ATOM     50  C   UNL     1       4.752  14.921  20.104  0.00  0.00    +0.120 A 
ATOM     51  N   UNL     1       3.787  14.899  19.144  0.00  0.00    -0.320 N 
ATOM     52  H   UNL     1       5.773  15.236  19.936  0.00  0.00    +0.105 HD
BRANCH  51  53
ATOM     53  C   UNL     1       3.956  15.267  17.762  0.00  0.00    +0.014 C 
ATOM     54  H   UNL     1       5.010  15.493  17.581  0.00  0.00    +0.046 HD
ATOM     55  H   UNL     1       3.333  16.139  17.557  0.00  0.00    +0.046 HD
ATOM     56  H   UNL     1       3.648  14.435  17.124  0.00  0.00    +0.046 HD
ENDBRANCH  51  53
ENDBRANCH  44  47
ENDBRANCH  38  44
ENDBRANCH   1  38
TORSDOF 7
ENDMDL
MODEL 13
REMARK VINA RESULT:    -7.399      1.876      4.394
REMARK INTER + INTRA:         -10.091
REMARK INTER:                  -9.858
REMARK INTRA:                  -0.233
REMARK UNBOUND:                -0.097
REMARK  Name = 
REMARK  7 active torsions:
REMARK  status: ('A' for Active; 'I' for Inactive)
REMARK    1  A    between atoms: C_1  and  C_2
REMARK    2  A    between atoms: C_2  and  C_3
REMARK    3  A    between atoms: C_2  and  C_10
REMARK    4  A    between atoms: C_3  and  C_4
REMARK    5  A    between atoms: N_8  and  C_9
REMARK    6  A    between atoms: C_18  and  N_19
REMARK    7  A    between atoms: C_26  and  C_27
REMARK                            x       y       z     vdW  Elec       q    Type
REMARK                         _______ _______ _______ _____ _____    ______ ____
ROOT
ATOM      1  C   UNL     1       2.705   4.244  20.379  0.00  0.00    -0.002 A 
ATOM      2  C   UNL     1       3.975   4.300  19.803  0.00  0.00    -0.015 A 
ATOM      3  C   UNL     1       4.458   5.507  19.305  0.00  0.00    +0.124 A 
ATOM      4  N   UNL     1       5.741   5.576  18.740  0.00  0.00    -0.315 N 
ATOM      5  C   UNL     1       6.191   6.616  17.857  0.00  0.00    +0.015 C 
ATOM      6  C   UNL     1       7.327   5.666  17.461  0.00  0.00    -0.021 C 
ATOM      7  C   UNL     1       6.413   4.554  17.991  0.00  0.00    +0.015 C 
ATOM      8  N   UNL     1       3.722   6.639  19.370  0.00  0.00    -0.214 NA
ATOM      9  C   UNL     1       2.475   6.611  19.913  0.00  0.00    +0.166 A 
ATOM     10  C   UNL     1       1.946   5.422  20.413  0.00  0.00    +0.167 A 
ATOM     11  F   UNL     1       0.713   5.339  20.927  0.00  0.00    -0.202 F 
ATOM     12  H   UNL     1       4.597   3.413  19.741  0.00  0.00    +0.066 HD
ATOM     13  H   UNL     1       5.475   6.840  17.060  0.00  0.00    +0.046 HD
ATOM     14  H   UNL     1       6.492   7.529  18.377  0.00  0.00    +0.046 HD
ATOM     15  H   UNL     1       8.250   5.804  18.034  0.00  0.00    +0.030 HD
ATOM     16  H   UNL     1       7.561   5.624  16.394  0.00  0.00    +0.030 HD
ATOM     17  H   UNL     1       5.772   4.082  17.239  0.00  0.00    +0.046 HD
ATOM     18  H   UNL     1       6.900   3.802  18.615  0.00  0.00    +0.046 HD
ENDROOT
BRANCH   9  19
ATOM     19  N   UNL     1       1.801   7.854  19.916  0.00  0.00    -0.245 N 
ATOM     20  C   UNL     1       1.114   8.275  21.130  0.00  0.00    +0.048 C 
ATOM     21  C   UNL     1       0.512   9.588  20.744  0.00  0.00    -0.006 A 
ATOM     22  C   UNL     1       0.842   9.876  19.423  0.00  0.00    +0.042 A 
ATOM     23  C   UNL     1       0.418  11.028  18.787  0.00  0.00    -0.049 A 
ATOM     24  C   UNL     1      -0.370  11.918  19.518  0.00  0.00    -0.060 A 
ATOM     25  C   UNL     1      -0.711  11.639  20.855  0.00  0.00    -0.050 A 
ATOM     26  C   UNL     1      -0.272  10.462  21.492  0.00  0.00    +0.060 A 
ATOM     27  C   UNL     1       1.664   8.778  18.889  0.00  0.00    +0.253 C 
ATOM     28  O   UNL     1       2.081   8.800  17.749  0.00  0.00    -0.270 OA
ATOM     29  H   UNL     1       1.838   8.401  21.942  0.00  0.00    +0.052 HD
ATOM     30  H   UNL     1       0.334   7.550  21.387  0.00  0.00    +0.052 HD
ATOM     31  H   UNL     1       0.691  11.228  17.755  0.00  0.00    +0.063 HD
ATOM     32  H   UNL     1      -0.723  12.835  19.051  0.00  0.00    +0.062 HD
ATOM     33  H   UNL     1      -1.328  12.356  21.398  0.00  0.00    +0.062 HD
BRANCH  26  34
ATOM     34  C   UNL     1      -0.632  10.153  22.920  0.00  0.00    +0.418 C 
ATOM     35  F   UNL     1      -1.397   9.031  23.027  0.00  0.00    -0.166 F 
ATOM     36  F   UNL     1      -1.353  11.152  23.498  0.00  0.00    -0.166 F 
ATOM     37  F   UNL     1       0.445   9.950  23.725  0.00  0.00    -0.166 F 
ENDBRANCH  26  34
ENDBRANCH   9  19
BRANCH   1  38
ATOM     38  C   UNL     1       2.094   2.959  20.917  0.00  0.00    -0.009 C 
ATOM     39  H   UNL     1       1.303   3.244  21.624  0.00  0.00    +0.035 HD
BRANCH  38  40
ATOM     40  C   UNL     1       3.080   2.109  21.734  0.00  0.00    -0.058 C 
ATOM     41  H   UNL     1       2.910   2.243  22.807  0.00  0.00    +0.024 HD
ATOM     42  H   UNL     1       4.114   2.401  21.526  0.00  0.00    +0.024 HD
ATOM     43  H   UNL     1       2.980   1.041  21.517  0.00  0.00    +0.024 HD
ENDBRANCH  38  40
BRANCH  38  44
ATOM     44  C   UNL     1       1.472   2.164  19.752  0.00  0.00    +0.014 C 
ATOM     45  H   UNL     1       1.292   1.122  20.045  0.00  0.00    +0.035 HD
ATOM     46  H   UNL     1       0.484   2.574  19.506  0.00  0.00    +0.035 HD
BRANCH  44  47
ATOM     47  C   UNL     1       2.326   2.179  18.532  0.00  0.00    +0.134 A 
ATOM     48  N   UNL     1       3.356   1.393  18.292  0.00  0.00    -0.135 NA
ATOM     49  N   UNL     1       3.877   1.733  17.067  0.00  0.00    -0.138 NA
ATOM     50  C   UNL     1       3.158   2.722  16.588  0.00  0.00    +0.120 A 
ATOM     51  N   UNL     1       2.169   3.033  17.470  0.00  0.00    -0.320 N 
ATOM     52  H   UNL     1       3.310   3.222  15.641  0.00  0.00    +0.105 HD
BRANCH  51  53
ATOM     53  C   UNL     1       1.164   4.049  17.295  0.00  0.00    +0.014 C 
ATOM     54  H   UNL     1       0.178   3.602  17.442  0.00  0.00    +0.046 HD
ATOM     55  H   UNL     1       1.257   4.459  16.287  0.00  0.00    +0.046 HD
ATOM     56  H   UNL     1       1.317   4.843  18.031  0.00  0.00    +0.046 HD
ENDBRANCH  51  53
ENDBRANCH  44  47
ENDBRANCH  38  44
ENDBRANCH   1  38
TORSDOF 7
ENDMDL
MODEL 14
REMARK VINA RESULT:    -7.377      3.061      8.123
REMARK INTER + INTRA:         -10.061
REMARK INTER:                  -8.657
REMARK INTRA:                  -1.405
REMARK UNBOUND:                -0.097
REMARK  Name = 
REMARK  7 active torsions:
REMARK  status: ('A' for Active; 'I' for Inactive)
REMARK    1  A    between atoms: C_1  and  C_2
REMARK    2  A    between atoms: C_2  and  C_3
REMARK    3  A    between atoms: C_2  and  C_10
REMARK    4  A    between atoms: C_3  and  C_4
REMARK    5  A    between atoms: N_8  and  C_9
REMARK    6  A    between atoms: C_18  and  N_19
REMARK    7  A    between atoms: C_26  and  C_27
REMARK                            x       y       z     vdW  Elec       q    Type
REMARK                         _______ _______ _______ _____ _____    ______ ____
ROOT
ATOM      1  C   UNL     1       0.001  11.249  20.473  0.00  0.00    -0.002 A 
ATOM      2  C   UNL     1      -0.965  11.299  19.466  0.00  0.00    -0.015 A 
ATOM      3  C   UNL     1      -1.017  10.293  18.505  0.00  0.00    +0.124 A 
ATOM      4  N   UNL     1      -1.996  10.326  17.499  0.00  0.00    -0.315 N 
ATOM      5  C   UNL     1      -1.919   9.605  16.259  0.00  0.00    +0.015 C 
ATOM      6  C   UNL     1      -3.007  10.553  15.742  0.00  0.00    -0.021 C 
ATOM      7  C   UNL     1      -2.550  11.489  16.869  0.00  0.00    +0.015 C 
ATOM      8  N   UNL     1      -0.152   9.255  18.526  0.00  0.00    -0.214 NA
ATOM      9  C   UNL     1       0.808   9.187  19.488  0.00  0.00    +0.166 A 
ATOM     10  C   UNL     1       0.906  10.179  20.463  0.00  0.00    +0.167 A 
ATOM     11  F   UNL     1       1.853  10.173  21.408  0.00  0.00    -0.202 F 
ATOM     12  H   UNL     1      -1.681  12.113  19.422  0.00  0.00    +0.066 HD
ATOM     13  H   UNL     1      -0.946   9.705  15.767  0.00  0.00    +0.046 HD
ATOM     14  H   UNL     1      -2.204   8.554  16.347  0.00  0.00    +0.046 HD
ATOM     15  H   UNL     1      -4.028  10.172  15.858  0.00  0.00    +0.030 HD
ATOM     16  H   UNL     1      -2.868  10.927  14.725  0.00  0.00    +0.030 HD
ATOM     17  H   UNL     1      -1.790  12.224  16.583  0.00  0.00    +0.046 HD
ATOM     18  H   UNL     1      -3.350  11.960  17.443  0.00  0.00    +0.046 HD
ENDROOT
BRANCH   9  19
ATOM     19  N   UNL     1       1.659   8.061  19.400  0.00  0.00    -0.245 N 
ATOM     20  C   UNL     1       2.646   8.012  18.329  0.00  0.00    +0.048 C 
ATOM     21  C   UNL     1       3.316   6.693  18.543  0.00  0.00    -0.006 A 
ATOM     22  C   UNL     1       2.751   6.062  19.647  0.00  0.00    +0.042 A 
ATOM     23  C   UNL     1       3.166   4.818  20.084  0.00  0.00    -0.049 A 
ATOM     24  C   UNL     1       4.191   4.192  19.374  0.00  0.00    -0.060 A 
ATOM     25  C   UNL     1       4.772   4.819  18.255  0.00  0.00    -0.050 A 
ATOM     26  C   UNL     1       4.340   6.087  17.821  0.00  0.00    +0.060 A 
ATOM     27  C   UNL     1       1.697   6.928  20.200  0.00  0.00    +0.253 C 
ATOM     28  O   UNL     1       1.054   6.594  21.175  0.00  0.00    -0.270 OA
ATOM     29  H   UNL     1       3.360   8.835  18.443  0.00  0.00    +0.052 HD
ATOM     30  H   UNL     1       2.142   8.039  17.357  0.00  0.00    +0.052 HD
ATOM     31  H   UNL     1       2.707   4.349  20.949  0.00  0.00    +0.063 HD
ATOM     32  H   UNL     1       4.544   3.211  19.687  0.00  0.00    +0.062 HD
ATOM     33  H   UNL     1       5.571   4.302  17.722  0.00  0.00    +0.062 HD
BRANCH  26  34
ATOM     34  C   UNL     1       4.953   6.766  16.626  0.00  0.00    +0.418 C 
ATOM     35  F   UNL     1       5.580   5.884  15.798  0.00  0.00    -0.166 F 
ATOM     36  F   UNL     1       5.898   7.679  16.980  0.00  0.00    -0.166 F 
ATOM     37  F   UNL     1       4.055   7.432  15.853  0.00  0.00    -0.166 F 
ENDBRANCH  26  34
ENDBRANCH   9  19
BRANCH   1  38
ATOM     38  C   UNL     1       0.144  12.325  21.539  0.00  0.00    -0.009 C 
ATOM     39  H   UNL     1       1.056  12.101  22.109  0.00  0.00    +0.035 HD
BRANCH  38  40
ATOM     40  C   UNL     1      -0.993  12.315  22.573  0.00  0.00    -0.058 C 
ATOM     41  H   UNL     1      -1.221  11.292  22.889  0.00  0.00    +0.024 HD
ATOM     42  H   UNL     1      -1.910  12.741  22.152  0.00  0.00    +0.024 HD
ATOM     43  H   UNL     1      -0.736  12.885  23.472  0.00  0.00    +0.024 HD
ENDBRANCH  38  40
BRANCH  38  44
ATOM     44  C   UNL     1       0.295  13.700  20.859  0.00  0.00    +0.014 C 
ATOM     45  H   UNL     1      -0.235  13.719  19.898  0.00  0.00    +0.035 HD
ATOM     46  H   UNL     1      -0.182  14.474  21.472  0.00  0.00    +0.035 HD
BRANCH  44  47
ATOM     47  C   UNL     1       1.720  14.067  20.629  0.00  0.00    +0.134 A 
ATOM     48  N   UNL     1       2.542  14.589  21.516  0.00  0.00    -0.135 NA
ATOM     49  N   UNL     1       3.758  14.789  20.907  0.00  0.00    -0.138 NA
ATOM     50  C   UNL     1       3.650  14.388  19.661  0.00  0.00    +0.120 A 
ATOM     51  N   UNL     1       2.390  13.923  19.441  0.00  0.00    -0.320 N 
ATOM     52  H   UNL     1       4.430  14.414  18.913  0.00  0.00    +0.105 HD
BRANCH  51  53
ATOM     53  C   UNL     1       1.890  13.379  18.205  0.00  0.00    +0.014 C 
ATOM     54  H   UNL     1       2.512  13.739  17.382  0.00  0.00    +0.046 HD
ATOM     55  H   UNL     1       0.855  13.702  18.078  0.00  0.00    +0.046 HD
ATOM     56  H   UNL     1       1.934  12.288  18.244  0.00  0.00    +0.046 HD
ENDBRANCH  51  53
ENDBRANCH  44  47
ENDBRANCH  38  44
ENDBRANCH   1  38
TORSDOF 7
ENDMDL
MODEL 15
REMARK VINA RESULT:    -7.063      3.648      8.876
REMARK INTER + INTRA:          -9.636
REMARK INTER:                 -10.332
REMARK INTRA:                   0.696
REMARK UNBOUND:                -0.097
REMARK  Name = 
REMARK  7 active torsions:
REMARK  status: ('A' for Active; 'I' for Inactive)
REMARK    1  A    between atoms: C_1  and  C_2
REMARK    2  A    between atoms: C_2  and  C_3
REMARK    3  A    between atoms: C_2  and  C_10
REMARK    4  A    between atoms: C_3  and  C_4
REMARK    5  A    between atoms: N_8  and  C_9
REMARK    6  A    between atoms: C_18  and  N_19
REMARK    7  A    between atoms: C_26  and  C_27
REMARK                            x       y       z     vdW  Elec       q    Type
REMARK                         _______ _______ _______ _____ _____    ______ ____
ROOT
ATOM      1  C   UNL     1       0.215  10.624  21.458  0.00  0.00    -0.002 A 
ATOM      2  C   UNL     1       0.561  11.732  20.682  0.00  0.00    -0.015 A 
ATOM      3  C   UNL     1       1.338  11.561  19.539  0.00  0.00    +0.124 A 
ATOM      4  N   UNL     1       1.676  12.667  18.742  0.00  0.00    -0.315 N 
ATOM      5  C   UNL     1       2.763  12.695  17.803  0.00  0.00    +0.015 C 
ATOM      6  C   UNL     1       2.638  14.223  17.840  0.00  0.00    -0.021 C 
ATOM      7  C   UNL     1       1.933  14.006  19.186  0.00  0.00    +0.015 C 
ATOM      8  N   UNL     1       1.764  10.337  19.155  0.00  0.00    -0.214 NA
ATOM      9  C   UNL     1       1.453   9.242  19.900  0.00  0.00    +0.166 A 
ATOM     10  C   UNL     1       0.688   9.367  21.059  0.00  0.00    +0.167 A 
ATOM     11  F   UNL     1       0.385   8.325  21.841  0.00  0.00    -0.202 F 
ATOM     12  H   UNL     1       0.230  12.728  20.955  0.00  0.00    +0.066 HD
ATOM     13  H   UNL     1       3.695  12.296  18.214  0.00  0.00    +0.046 HD
ATOM     14  H   UNL     1       2.525  12.221  16.847  0.00  0.00    +0.046 HD
ATOM     15  H   UNL     1       1.998  14.642  17.057  0.00  0.00    +0.030 HD
ATOM     16  H   UNL     1       3.580  14.775  17.879  0.00  0.00    +0.030 HD
ATOM     17  H   UNL     1       2.586  14.049  20.064  0.00  0.00    +0.046 HD
ATOM     18  H   UNL     1       1.029  14.597  19.344  0.00  0.00    +0.046 HD
ENDROOT
BRANCH   9  19
ATOM     19  N   UNL     1       1.964   8.021  19.403  0.00  0.00    -0.245 N 
ATOM     20  C   UNL     1       1.698   6.797  20.147  0.00  0.00    +0.048 C 
ATOM     21  C   UNL     1       2.405   5.751  19.347  0.00  0.00    -0.006 A 
ATOM     22  C   UNL     1       3.011   6.344  18.244  0.00  0.00    +0.042 A 
ATOM     23  C   UNL     1       3.745   5.621  17.322  0.00  0.00    -0.049 A 
ATOM     24  C   UNL     1       3.869   4.247  17.528  0.00  0.00    -0.060 A 
ATOM     25  C   UNL     1       3.261   3.633  18.641  0.00  0.00    -0.050 A 
ATOM     26  C   UNL     1       2.516   4.381  19.572  0.00  0.00    +0.060 A 
ATOM     27  C   UNL     1       2.733   7.789  18.271  0.00  0.00    +0.253 C 
ATOM     28  O   UNL     1       3.156   8.529  17.405  0.00  0.00    -0.270 OA
ATOM     29  H   UNL     1       0.620   6.605  20.174  0.00  0.00    +0.052 HD
ATOM     30  H   UNL     1       2.126   6.872  21.152  0.00  0.00    +0.052 HD
ATOM     31  H   UNL     1       4.207   6.111  16.469  0.00  0.00    +0.063 HD
ATOM     32  H   UNL     1       4.440   3.645  16.825  0.00  0.00    +0.062 HD
ATOM     33  H   UNL     1       3.378   2.557  18.773  0.00  0.00    +0.062 HD
BRANCH  26  34
ATOM     34  C   UNL     1       1.863   3.735  20.764  0.00  0.00    +0.418 C 
ATOM     35  F   UNL     1       0.518   3.952  20.794  0.00  0.00    -0.166 F 
ATOM     36  F   UNL     1       2.344   4.220  21.941  0.00  0.00    -0.166 F 
ATOM     37  F   UNL     1       2.027   2.387  20.816  0.00  0.00    -0.166 F 
ENDBRANCH  26  34
ENDBRANCH   9  19
BRANCH   1  38
ATOM     38  C   UNL     1      -0.603  10.731  22.737  0.00  0.00    -0.009 C 
ATOM     39  H   UNL     1       0.005  11.281  23.469  0.00  0.00    +0.035 HD
BRANCH  38  40
ATOM     40  C   UNL     1      -0.893   9.372  23.391  0.00  0.00    -0.058 C 
ATOM     41  H   UNL     1      -1.319   9.505  24.391  0.00  0.00    +0.024 HD
ATOM     42  H   UNL     1       0.025   8.785  23.501  0.00  0.00    +0.024 HD
ATOM     43  H   UNL     1      -1.605   8.779  22.809  0.00  0.00    +0.024 HD
ENDBRANCH  38  40
BRANCH  38  44
ATOM     44  C   UNL     1      -1.894  11.524  22.452  0.00  0.00    +0.014 C 
ATOM     45  H   UNL     1      -1.981  11.753  21.383  0.00  0.00    +0.035 HD
ATOM     46  H   UNL     1      -2.770  10.908  22.692  0.00  0.00    +0.035 HD
BRANCH  44  47
ATOM     47  C   UNL     1      -1.963  12.795  23.224  0.00  0.00    +0.134 A 
ATOM     48  N   UNL     1      -1.012  13.702  23.318  0.00  0.00    -0.135 NA
ATOM     49  N   UNL     1      -1.465  14.715  24.128  0.00  0.00    -0.138 NA
ATOM     50  C   UNL     1      -2.681  14.403  24.514  0.00  0.00    +0.120 A 
ATOM     51  N   UNL     1      -3.039  13.209  23.968  0.00  0.00    -0.320 N 
ATOM     52  H   UNL     1      -3.316  14.992  25.162  0.00  0.00    +0.105 HD
BRANCH  51  53
ATOM     53  C   UNL     1      -4.303  12.542  24.139  0.00  0.00    +0.014 C 
ATOM     54  H   UNL     1      -5.031  13.256  24.533  0.00  0.00    +0.046 HD
ATOM     55  H   UNL     1      -4.165  11.709  24.831  0.00  0.00    +0.046 HD
ATOM     56  H   UNL     1      -4.649  12.166  23.173  0.00  0.00    +0.046 HD
ENDBRANCH  51  53
ENDBRANCH  44  47
ENDBRANCH  38  44
ENDBRANCH   1  38
TORSDOF 7
ENDMDL
MODEL 16
REMARK VINA RESULT:    -7.019      3.987      9.239
REMARK INTER + INTRA:          -9.577
REMARK INTER:                  -8.957
REMARK INTRA:                  -0.620
REMARK UNBOUND:                -0.097
REMARK  Name = 
REMARK  7 active torsions:
REMARK  status: ('A' for Active; 'I' for Inactive)
REMARK    1  A    between atoms: C_1  and  C_2
REMARK    2  A    between atoms: C_2  and  C_3
REMARK    3  A    between atoms: C_2  and  C_10
REMARK    4  A    between atoms: C_3  and  C_4
REMARK    5  A    between atoms: N_8  and  C_9
REMARK    6  A    between atoms: C_18  and  N_19
REMARK    7  A    between atoms: C_26  and  C_27
REMARK                            x       y       z     vdW  Elec       q    Type
REMARK                         _______ _______ _______ _____ _____    ______ ____
ROOT
ATOM      1  C   UNL     1      -1.257  12.069  20.157  0.00  0.00    -0.002 A 
ATOM      2  C   UNL     1      -0.411  13.117  20.522  0.00  0.00    -0.015 A 
ATOM      3  C   UNL     1       0.969  12.957  20.431  0.00  0.00    +0.124 A 
ATOM      4  N   UNL     1       1.828  14.012  20.780  0.00  0.00    -0.315 N 
ATOM      5  C   UNL     1       3.218  13.860  21.110  0.00  0.00    +0.015 C 
ATOM      6  C   UNL     1       3.131  15.256  21.736  0.00  0.00    -0.021 C 
ATOM      7  C   UNL     1       1.621  14.994  21.804  0.00  0.00    +0.015 C 
ATOM      8  N   UNL     1       1.516  11.802  19.989  0.00  0.00    -0.214 NA
ATOM      9  C   UNL     1       0.716  10.760  19.640  0.00  0.00    +0.166 A 
ATOM     10  C   UNL     1      -0.672  10.870  19.726  0.00  0.00    +0.167 A 
ATOM     11  F   UNL     1      -1.498   9.862  19.425  0.00  0.00    -0.202 F 
ATOM     12  H   UNL     1      -0.814  14.060  20.874  0.00  0.00    +0.066 HD
ATOM     13  H   UNL     1       3.403  13.046  21.817  0.00  0.00    +0.046 HD
ATOM     14  H   UNL     1       3.866  13.769  20.234  0.00  0.00    +0.046 HD
ATOM     15  H   UNL     1       3.417  16.071  21.062  0.00  0.00    +0.030 HD
ATOM     16  H   UNL     1       3.638  15.379  22.696  0.00  0.00    +0.030 HD
ATOM     17  H   UNL     1       1.267  14.561  22.746  0.00  0.00    +0.046 HD
ATOM     18  H   UNL     1       0.984  15.824  21.494  0.00  0.00    +0.046 HD
ENDROOT
BRANCH   9  19
ATOM     19  N   UNL     1       1.403   9.604  19.202  0.00  0.00    -0.245 N 
ATOM     20  C   UNL     1       1.222   8.361  19.940  0.00  0.00    +0.048 C 
ATOM     21  C   UNL     1       2.108   7.400  19.214  0.00  0.00    -0.006 A 
ATOM     22  C   UNL     1       2.728   8.055  18.154  0.00  0.00    +0.042 A 
ATOM     23  C   UNL     1       3.613   7.418  17.304  0.00  0.00    -0.049 A 
ATOM     24  C   UNL     1       3.878   6.069  17.540  0.00  0.00    -0.060 A 
ATOM     25  C   UNL     1       3.258   5.394  18.609  0.00  0.00    -0.050 A 
ATOM     26  C   UNL     1       2.358   6.054  19.467  0.00  0.00    +0.060 A 
ATOM     27  C   UNL     1       2.282   9.458  18.139  0.00  0.00    +0.253 C 
ATOM     28  O   UNL     1       2.685  10.238  17.299  0.00  0.00    -0.270 OA
ATOM     29  H   UNL     1       0.174   8.044  19.885  0.00  0.00    +0.052 HD
ATOM     30  H   UNL     1       1.555   8.490  20.976  0.00  0.00    +0.052 HD
ATOM     31  H   UNL     1       4.082   7.955  16.485  0.00  0.00    +0.063 HD
ATOM     32  H   UNL     1       4.571   5.534  16.892  0.00  0.00    +0.062 HD
ATOM     33  H   UNL     1       3.488   4.339  18.765  0.00  0.00    +0.062 HD
BRANCH  26  34
ATOM     34  C   UNL     1       1.690   5.343  20.612  0.00  0.00    +0.418 C 
ATOM     35  F   UNL     1       2.592   4.798  21.476  0.00  0.00    -0.166 F 
ATOM     36  F   UNL     1       0.907   4.312  20.193  0.00  0.00    -0.166 F 
ATOM     37  F   UNL     1       0.889   6.144  21.364  0.00  0.00    -0.166 F 
ENDBRANCH  26  34
ENDBRANCH   9  19
BRANCH   1  38
ATOM     38  C   UNL     1      -2.773  12.153  20.257  0.00  0.00    -0.009 C 
ATOM     39  H   UNL     1      -3.109  11.297  20.859  0.00  0.00    +0.035 HD
BRANCH  38  40
ATOM     40  C   UNL     1      -3.484  12.000  18.904  0.00  0.00    -0.058 C 
ATOM     41  H   UNL     1      -3.463  10.957  18.570  0.00  0.00    +0.024 HD
ATOM     42  H   UNL     1      -2.992  12.601  18.132  0.00  0.00    +0.024 HD
ATOM     43  H   UNL     1      -4.533  12.307  18.953  0.00  0.00    +0.024 HD
ENDBRANCH  38  40
BRANCH  38  44
ATOM     44  C   UNL     1      -3.164  13.462  20.972  0.00  0.00    +0.014 C 
ATOM     45  H   UNL     1      -2.300  14.131  21.058  0.00  0.00    +0.035 HD
ATOM     46  H   UNL     1      -3.901  14.009  20.371  0.00  0.00    +0.035 HD
BRANCH  44  47
ATOM     47  C   UNL     1      -3.724  13.222  22.331  0.00  0.00    +0.134 A 
ATOM     48  N   UNL     1      -4.916  12.734  22.608  0.00  0.00    -0.135 NA
ATOM     49  N   UNL     1      -5.049  12.679  23.975  0.00  0.00    -0.138 NA
ATOM     50  C   UNL     1      -3.937  13.138  24.502  0.00  0.00    +0.120 A 
ATOM     51  N   UNL     1      -3.074  13.487  23.510  0.00  0.00    -0.320 N 
ATOM     52  H   UNL     1      -3.722  13.230  25.558  0.00  0.00    +0.105 HD
BRANCH  51  53
ATOM     53  C   UNL     1      -1.745  14.012  23.687  0.00  0.00    +0.014 C 
ATOM     54  H   UNL     1      -1.029  13.188  23.642  0.00  0.00    +0.046 HD
ATOM     55  H   UNL     1      -1.696  14.515  24.655  0.00  0.00    +0.046 HD
ATOM     56  H   UNL     1      -1.527  14.726  22.889  0.00  0.00    +0.046 HD
ENDBRANCH  51  53
ENDBRANCH  44  47
ENDBRANCH  38  44
ENDBRANCH   1  38
TORSDOF 7
ENDMDL
MODEL 17
REMARK VINA RESULT:    -6.995      3.480      6.383
REMARK INTER + INTRA:          -9.545
REMARK INTER:                  -8.576
REMARK INTRA:                  -0.969
REMARK UNBOUND:                -0.097
REMARK  Name = 
REMARK  7 active torsions:
REMARK  status: ('A' for Active; 'I' for Inactive)
REMARK    1  A    between atoms: C_1  and  C_2
REMARK    2  A    between atoms: C_2  and  C_3
REMARK    3  A    between atoms: C_2  and  C_10
REMARK    4  A    between atoms: C_3  and  C_4
REMARK    5  A    between atoms: N_8  and  C_9
REMARK    6  A    between atoms: C_18  and  N_19
REMARK    7  A    between atoms: C_26  and  C_27
REMARK                            x       y       z     vdW  Elec       q    Type
REMARK                         _______ _______ _______ _____ _____    ______ ____
ROOT
ATOM      1  C   UNL     1       0.764   9.634  18.677  0.00  0.00    -0.002 A 
ATOM      2  C   UNL     1      -0.180   9.702  17.651  0.00  0.00    -0.015 A 
ATOM      3  C   UNL     1      -1.259  10.575  17.760  0.00  0.00    +0.124 A 
ATOM      4  N   UNL     1      -2.204  10.663  16.726  0.00  0.00    -0.315 N 
ATOM      5  C   UNL     1      -3.530  11.196  16.872  0.00  0.00    +0.015 C 
ATOM      6  C   UNL     1      -3.866  10.485  15.557  0.00  0.00    -0.021 C 
ATOM      7  C   UNL     1      -2.651   9.603  15.869  0.00  0.00    +0.015 C 
ATOM      8  N   UNL     1      -1.415  11.370  18.842  0.00  0.00    -0.214 NA
ATOM      9  C   UNL     1      -0.518  11.314  19.863  0.00  0.00    +0.166 A 
ATOM     10  C   UNL     1       0.572  10.446  19.804  0.00  0.00    +0.167 A 
ATOM     11  F   UNL     1       1.462  10.333  20.796  0.00  0.00    -0.202 F 
ATOM     12  H   UNL     1      -0.083   9.085  16.765  0.00  0.00    +0.066 HD
ATOM     13  H   UNL     1      -4.051  10.810  17.754  0.00  0.00    +0.046 HD
ATOM     14  H   UNL     1      -3.565  12.288  16.847  0.00  0.00    +0.046 HD
ATOM     15  H   UNL     1      -3.752  11.111  14.665  0.00  0.00    +0.030 HD
ATOM     16  H   UNL     1      -4.832   9.974  15.526  0.00  0.00    +0.030 HD
ATOM     17  H   UNL     1      -2.875   8.679  16.413  0.00  0.00    +0.046 HD
ATOM     18  H   UNL     1      -1.982   9.407  15.029  0.00  0.00    +0.046 HD
ENDROOT
BRANCH   9  19
ATOM     19  N   UNL     1      -0.792  12.185  20.943  0.00  0.00    -0.245 N 
ATOM     20  C   UNL     1      -2.041  12.020  21.675  0.00  0.00    +0.048 C 
ATOM     21  C   UNL     1      -1.985  13.112  22.695  0.00  0.00    -0.006 A 
ATOM     22  C   UNL     1      -0.799  13.823  22.546  0.00  0.00    +0.042 A 
ATOM     23  C   UNL     1      -0.473  14.900  23.350  0.00  0.00    -0.049 A 
ATOM     24  C   UNL     1      -1.385  15.267  24.339  0.00  0.00    -0.060 A 
ATOM     25  C   UNL     1      -2.589  14.556  24.502  0.00  0.00    -0.050 A 
ATOM     26  C   UNL     1      -2.909  13.461  23.676  0.00  0.00    +0.060 A 
ATOM     27  C   UNL     1      -0.032  13.238  21.434  0.00  0.00    +0.253 C 
ATOM     28  O   UNL     1       1.048  13.687  21.108  0.00  0.00    -0.270 OA
ATOM     29  H   UNL     1      -2.063  11.036  22.157  0.00  0.00    +0.052 HD
ATOM     30  H   UNL     1      -2.890  12.163  20.999  0.00  0.00    +0.052 HD
ATOM     31  H   UNL     1       0.461  15.436  23.211  0.00  0.00    +0.063 HD
ATOM     32  H   UNL     1      -1.163  16.110  24.991  0.00  0.00    +0.062 HD
ATOM     33  H   UNL     1      -3.280  14.869  25.285  0.00  0.00    +0.062 HD
BRANCH  26  34
ATOM     34  C   UNL     1      -4.194  12.695  23.841  0.00  0.00    +0.418 C 
ATOM     35  F   UNL     1      -5.129  13.400  24.535  0.00  0.00    -0.166 F 
ATOM     36  F   UNL     1      -4.017  11.533  24.528  0.00  0.00    -0.166 F 
ATOM     37  F   UNL     1      -4.782  12.351  22.664  0.00  0.00    -0.166 F 
ENDBRANCH  26  34
ENDBRANCH   9  19
BRANCH   1  38
ATOM     38  C   UNL     1       1.953   8.685  18.649  0.00  0.00    -0.009 C 
ATOM     39  H   UNL     1       2.363   8.642  19.667  0.00  0.00    +0.035 HD
BRANCH  38  40
ATOM     40  C   UNL     1       3.110   9.182  17.769  0.00  0.00    -0.058 C 
ATOM     41  H   UNL     1       3.997   8.553  17.899  0.00  0.00    +0.024 HD
ATOM     42  H   UNL     1       3.393  10.206  18.035  0.00  0.00    +0.024 HD
ATOM     43  H   UNL     1       2.853   9.168  16.705  0.00  0.00    +0.024 HD
ENDBRANCH  38  40
BRANCH  38  44
ATOM     44  C   UNL     1       1.474   7.280  18.234  0.00  0.00    +0.014 C 
ATOM     45  H   UNL     1       0.545   7.017  18.755  0.00  0.00    +0.035 HD
ATOM     46  H   UNL     1       1.225   7.270  17.166  0.00  0.00    +0.035 HD
BRANCH  44  47
ATOM     47  C   UNL     1       2.492   6.228  18.509  0.00  0.00    +0.134 A 
ATOM     48  N   UNL     1       3.496   5.892  17.724  0.00  0.00    -0.135 NA
ATOM     49  N   UNL     1       4.193   4.876  18.333  0.00  0.00    -0.138 NA
ATOM     50  C   UNL     1       3.598   4.611  19.473  0.00  0.00    +0.120 A 
ATOM     51  N   UNL     1       2.528   5.437  19.629  0.00  0.00    -0.320 N 
ATOM     52  H   UNL     1       3.898   3.859  20.190  0.00  0.00    +0.105 HD
BRANCH  51  53
ATOM     53  C   UNL     1       1.636   5.467  20.759  0.00  0.00    +0.014 C 
ATOM     54  H   UNL     1       1.350   6.502  20.959  0.00  0.00    +0.046 HD
ATOM     55  H   UNL     1       2.152   5.036  21.620  0.00  0.00    +0.046 HD
ATOM     56  H   UNL     1       0.743   4.879  20.533  0.00  0.00    +0.046 HD
ENDBRANCH  51  53
ENDBRANCH  44  47
ENDBRANCH  38  44
ENDBRANCH   1  38
TORSDOF 7
ENDMDL
MODEL 18
REMARK VINA RESULT:    -6.993      2.891      3.707
REMARK INTER + INTRA:          -9.542
REMARK INTER:                  -8.918
REMARK INTRA:                  -0.624
REMARK UNBOUND:                -0.097
REMARK  Name = 
REMARK  7 active torsions:
REMARK  status: ('A' for Active; 'I' for Inactive)
REMARK    1  A    between atoms: C_1  and  C_2
REMARK    2  A    between atoms: C_2  and  C_3
REMARK    3  A    between atoms: C_2  and  C_10
REMARK    4  A    between atoms: C_3  and  C_4
REMARK    5  A    between atoms: N_8  and  C_9
REMARK    6  A    between atoms: C_18  and  N_19
REMARK    7  A    between atoms: C_26  and  C_27
REMARK                            x       y       z     vdW  Elec       q    Type
REMARK                         _______ _______ _______ _____ _____    ______ ____
ROOT
ATOM      1  C   UNL     1       4.422   5.947  16.958  0.00  0.00    -0.002 A 
ATOM      2  C   UNL     1       4.015   4.624  17.135  0.00  0.00    -0.015 A 
ATOM      3  C   UNL     1       2.990   4.329  18.031  0.00  0.00    +0.124 A 
ATOM      4  N   UNL     1       2.561   3.003  18.203  0.00  0.00    -0.315 N 
ATOM      5  C   UNL     1       1.826   2.522  19.340  0.00  0.00    +0.015 C 
ATOM      6  C   UNL     1       2.237   1.113  18.898  0.00  0.00    -0.021 C 
ATOM      7  C   UNL     1       3.366   1.818  18.135  0.00  0.00    +0.015 C 
ATOM      8  N   UNL     1       2.370   5.302  18.735  0.00  0.00    -0.214 NA
ATOM      9  C   UNL     1       2.755   6.598  18.592  0.00  0.00    +0.166 A 
ATOM     10  C   UNL     1       3.786   6.939  17.717  0.00  0.00    +0.167 A 
ATOM     11  F   UNL     1       4.222   8.195  17.567  0.00  0.00    -0.202 F 
ATOM     12  H   UNL     1       4.484   3.818  16.582  0.00  0.00    +0.066 HD
ATOM     13  H   UNL     1       2.251   2.851  20.294  0.00  0.00    +0.046 HD
ATOM     14  H   UNL     1       0.758   2.744  19.293  0.00  0.00    +0.046 HD
ATOM     15  H   UNL     1       1.504   0.610  18.258  0.00  0.00    +0.030 HD
ATOM     16  H   UNL     1       2.551   0.437  19.697  0.00  0.00    +0.030 HD
ATOM     17  H   UNL     1       4.310   1.909  18.682  0.00  0.00    +0.046 HD
ATOM     18  H   UNL     1       3.539   1.463  17.117  0.00  0.00    +0.046 HD
ENDROOT
BRANCH   9  19
ATOM     19  N   UNL     1       2.040   7.522  19.388  0.00  0.00    -0.245 N 
ATOM     20  C   UNL     1       1.680   8.811  18.811  0.00  0.00    +0.048 C 
ATOM     21  C   UNL     1       0.978   9.504  19.935  0.00  0.00    -0.006 A 
ATOM     22  C   UNL     1       0.946   8.666  21.045  0.00  0.00    +0.042 A 
ATOM     23  C   UNL     1       0.364   9.042  22.242  0.00  0.00    -0.049 A 
ATOM     24  C   UNL     1      -0.205  10.313  22.313  0.00  0.00    -0.060 A 
ATOM     25  C   UNL     1      -0.180  11.171  21.197  0.00  0.00    -0.050 A 
ATOM     26  C   UNL     1       0.416  10.777  19.984  0.00  0.00    +0.060 A 
ATOM     27  C   UNL     1       1.618   7.402  20.705  0.00  0.00    +0.253 C 
ATOM     28  O   UNL     1       1.717   6.503  21.515  0.00  0.00    -0.270 OA
ATOM     29  H   UNL     1       1.004   8.663  17.962  0.00  0.00    +0.052 HD
ATOM     30  H   UNL     1       2.585   9.356  18.523  0.00  0.00    +0.052 HD
ATOM     31  H   UNL     1       0.353   8.367  23.093  0.00  0.00    +0.063 HD
ATOM     32  H   UNL     1      -0.672  10.645  23.238  0.00  0.00    +0.062 HD
ATOM     33  H   UNL     1      -0.634  12.159  21.286  0.00  0.00    +0.062 HD
BRANCH  26  34
ATOM     34  C   UNL     1       0.450  11.686  18.785  0.00  0.00    +0.418 C 
ATOM     35  F   UNL     1       0.016  12.943  19.081  0.00  0.00    -0.166 F 
ATOM     36  F   UNL     1      -0.352  11.242  17.779  0.00  0.00    -0.166 F 
ATOM     37  F   UNL     1       1.688  11.834  18.243  0.00  0.00    -0.166 F 
ENDBRANCH  26  34
ENDBRANCH   9  19
BRANCH   1  38
ATOM     38  C   UNL     1       5.555   6.348  16.024  0.00  0.00    -0.009 C 
ATOM     39  H   UNL     1       6.116   7.154  16.517  0.00  0.00    +0.035 HD
BRANCH  38  40
ATOM     40  C   UNL     1       5.067   6.948  14.696  0.00  0.00    -0.058 C 
ATOM     41  H   UNL     1       4.191   7.586  14.856  0.00  0.00    +0.024 HD
ATOM     42  H   UNL     1       4.775   6.161  13.993  0.00  0.00    +0.024 HD
ATOM     43  H   UNL     1       5.835   7.562  14.216  0.00  0.00    +0.024 HD
ENDBRANCH  38  40
BRANCH  38  44
ATOM     44  C   UNL     1       6.487   5.140  15.805  0.00  0.00    +0.014 C 
ATOM     45  H   UNL     1       7.534   5.423  15.965  0.00  0.00    +0.035 HD
ATOM     46  H   UNL     1       6.274   4.365  16.552  0.00  0.00    +0.035 HD
BRANCH  44  47
ATOM     47  C   UNL     1       6.349   4.555  14.442  0.00  0.00    +0.134 A 
ATOM     48  N   UNL     1       5.410   3.722  14.042  0.00  0.00    -0.135 NA
ATOM     49  N   UNL     1       5.645   3.414  12.724  0.00  0.00    -0.138 NA
ATOM     50  C   UNL     1       6.724   4.061  12.349  0.00  0.00    +0.120 A 
ATOM     51  N   UNL     1       7.199   4.795  13.392  0.00  0.00    -0.320 N 
ATOM     52  H   UNL     1       7.177   4.031  11.367  0.00  0.00    +0.105 HD
BRANCH  51  53
ATOM     53  C   UNL     1       8.354   5.654  13.368  0.00  0.00    +0.014 C 
ATOM     54  H   UNL     1       8.387   6.229  14.297  0.00  0.00    +0.046 HD
ATOM     55  H   UNL     1       8.276   6.318  12.505  0.00  0.00    +0.046 HD
ATOM     56  H   UNL     1       9.258   5.046  13.284  0.00  0.00    +0.046 HD
ENDBRANCH  51  53
ENDBRANCH  44  47
ENDBRANCH  38  44
ENDBRANCH   1  38
TORSDOF 7
ENDMDL
MODEL 19
REMARK VINA RESULT:    -6.952      3.234      7.798
REMARK INTER + INTRA:          -9.487
REMARK INTER:                  -8.944
REMARK INTRA:                  -0.543
REMARK UNBOUND:                -0.097
REMARK  Name = 
REMARK  7 active torsions:
REMARK  status: ('A' for Active; 'I' for Inactive)
REMARK    1  A    between atoms: C_1  and  C_2
REMARK    2  A    between atoms: C_2  and  C_3
REMARK    3  A    between atoms: C_2  and  C_10
REMARK    4  A    between atoms: C_3  and  C_4
REMARK    5  A    between atoms: N_8  and  C_9
REMARK    6  A    between atoms: C_18  and  N_19
REMARK    7  A    between atoms: C_26  and  C_27
REMARK                            x       y       z     vdW  Elec       q    Type
REMARK                         _______ _______ _______ _____ _____    ______ ____
ROOT
ATOM      1  C   UNL     1       1.244  10.945  18.825  0.00  0.00    -0.002 A 
ATOM      2  C   UNL     1       0.803  10.955  20.150  0.00  0.00    -0.015 A 
ATOM      3  C   UNL     1       0.881   9.794  20.914  0.00  0.00    +0.124 A 
ATOM      4  N   UNL     1       0.455   9.799  22.252  0.00  0.00    -0.315 N 
ATOM      5  C   UNL     1       0.113   8.625  23.006  0.00  0.00    +0.015 C 
ATOM      6  C   UNL     1      -0.595   9.568  23.985  0.00  0.00    -0.021 C 
ATOM      7  C   UNL     1      -0.623  10.559  22.814  0.00  0.00    +0.015 C 
ATOM      8  N   UNL     1       1.383   8.648  20.403  0.00  0.00    -0.214 NA
ATOM      9  C   UNL     1       1.808   8.606  19.112  0.00  0.00    +0.166 A 
ATOM     10  C   UNL     1       1.737   9.740  18.305  0.00  0.00    +0.167 A 
ATOM     11  F   UNL     1       2.112   9.739  17.021  0.00  0.00    -0.202 F 
ATOM     12  H   UNL     1       0.401  11.858  20.595  0.00  0.00    +0.066 HD
ATOM     13  H   UNL     1      -0.547   7.944  22.460  0.00  0.00    +0.046 HD
ATOM     14  H   UNL     1       0.982   8.092  23.400  0.00  0.00    +0.046 HD
ATOM     15  H   UNL     1       0.024   9.886  24.831  0.00  0.00    +0.030 HD
ATOM     16  H   UNL     1      -1.569   9.231  24.349  0.00  0.00    +0.030 HD
ATOM     17  H   UNL     1      -1.532  10.530  22.203  0.00  0.00    +0.046 HD
ATOM     18  H   UNL     1      -0.353  11.587  23.062  0.00  0.00    +0.046 HD
ENDROOT
BRANCH   9  19
ATOM     19  N   UNL     1       2.303   7.350  18.690  0.00  0.00    -0.245 N 
ATOM     20  C   UNL     1       1.642   6.142  19.165  0.00  0.00    +0.048 C 
ATOM     21  C   UNL     1       2.448   5.046  18.545  0.00  0.00    -0.006 A 
ATOM     22  C   UNL     1       3.471   5.600  17.782  0.00  0.00    +0.042 A 
ATOM     23  C   UNL     1       4.385   4.826  17.091  0.00  0.00    -0.049 A 
ATOM     24  C   UNL     1       4.256   3.440  17.180  0.00  0.00    -0.060 A 
ATOM     25  C   UNL     1       3.226   2.865  17.949  0.00  0.00    -0.050 A 
ATOM     26  C   UNL     1       2.301   3.665  18.647  0.00  0.00    +0.060 A 
ATOM     27  C   UNL     1       3.384   7.067  17.867  0.00  0.00    +0.253 C 
ATOM     28  O   UNL     1       4.173   7.780  17.280  0.00  0.00    -0.270 OA
ATOM     29  H   UNL     1       0.608   6.117  18.806  0.00  0.00    +0.052 HD
ATOM     30  H   UNL     1       1.697   6.093  20.258  0.00  0.00    +0.052 HD
ATOM     31  H   UNL     1       5.173   5.286  16.503  0.00  0.00    +0.063 HD
ATOM     32  H   UNL     1       4.958   2.798  16.651  0.00  0.00    +0.062 HD
ATOM     33  H   UNL     1       3.153   1.778  17.997  0.00  0.00    +0.062 HD
BRANCH  26  34
ATOM     34  C   UNL     1       1.196   3.062  19.472  0.00  0.00    +0.418 C 
ATOM     35  F   UNL     1       1.656   2.106  20.326  0.00  0.00    -0.166 F 
ATOM     36  F   UNL     1       0.253   2.452  18.703  0.00  0.00    -0.166 F 
ATOM     37  F   UNL     1       0.531   3.964  20.241  0.00  0.00    -0.166 F 
ENDBRANCH  26  34
ENDBRANCH   9  19
BRANCH   1  38
ATOM     38  C   UNL     1       1.163  12.162  17.915  0.00  0.00    -0.009 C 
ATOM     39  H   UNL     1       1.039  11.794  16.887  0.00  0.00    +0.035 HD
BRANCH  38  40
ATOM     40  C   UNL     1       2.454  12.994  17.893  0.00  0.00    -0.058 C 
ATOM     41  H   UNL     1       2.268  13.990  17.477  0.00  0.00    +0.024 HD
ATOM     42  H   UNL     1       3.218  12.517  17.270  0.00  0.00    +0.024 HD
ATOM     43  H   UNL     1       2.873  13.132  18.895  0.00  0.00    +0.024 HD
ENDBRANCH  38  40
BRANCH  38  44
ATOM     44  C   UNL     1      -0.065  13.009  18.304  0.00  0.00    +0.014 C 
ATOM     45  H   UNL     1      -0.007  13.317  19.355  0.00  0.00    +0.035 HD
ATOM     46  H   UNL     1      -0.074  13.940  17.724  0.00  0.00    +0.035 HD
BRANCH  44  47
ATOM     47  C   UNL     1      -1.347  12.284  18.085  0.00  0.00    +0.134 A 
ATOM     48  N   UNL     1      -1.694  11.624  16.998  0.00  0.00    -0.135 NA
ATOM     49  N   UNL     1      -2.953  11.110  17.193  0.00  0.00    -0.138 NA
ATOM     50  C   UNL     1      -3.350  11.471  18.392  0.00  0.00    +0.120 A 
ATOM     51  N   UNL     1      -2.373  12.205  18.992  0.00  0.00    -0.320 N 
ATOM     52  H   UNL     1      -4.300  11.229  18.849  0.00  0.00    +0.105 HD
BRANCH  51  53
ATOM     53  C   UNL     1      -2.425  12.762  20.318  0.00  0.00    +0.014 C 
ATOM     54  H   UNL     1      -3.162  13.569  20.336  0.00  0.00    +0.046 HD
ATOM     55  H   UNL     1      -1.433  13.139  20.575  0.00  0.00    +0.046 HD
ATOM     56  H   UNL     1      -2.719  11.985  21.028  0.00  0.00    +0.046 HD
ENDBRANCH  51  53
ENDBRANCH  44  47
ENDBRANCH  38  44
ENDBRANCH   1  38
TORSDOF 7
ENDMDL
MODEL 20
REMARK VINA RESULT:    -6.837      3.339      8.243
REMARK INTER + INTRA:          -9.332
REMARK INTER:                  -8.711
REMARK INTRA:                  -0.621
REMARK UNBOUND:                -0.097
REMARK  Name = 
REMARK  7 active torsions:
REMARK  status: ('A' for Active; 'I' for Inactive)
REMARK    1  A    between atoms: C_1  and  C_2
REMARK    2  A    between atoms: C_2  and  C_3
REMARK    3  A    between atoms: C_2  and  C_10
REMARK    4  A    between atoms: C_3  and  C_4
REMARK    5  A    between atoms: N_8  and  C_9
REMARK    6  A    between atoms: C_18  and  N_19
REMARK    7  A    between atoms: C_26  and  C_27
REMARK                            x       y       z     vdW  Elec       q    Type
REMARK                         _______ _______ _______ _____ _____    ______ ____
ROOT
ATOM      1  C   UNL     1       1.238  10.960  18.820  0.00  0.00    -0.002 A 
ATOM      2  C   UNL     1       0.776  10.975  20.138  0.00  0.00    -0.015 A 
ATOM      3  C   UNL     1       0.886   9.831  20.923  0.00  0.00    +0.124 A 
ATOM      4  N   UNL     1       0.440   9.842  22.255  0.00  0.00    -0.315 N 
ATOM      5  C   UNL     1       0.130   8.668  23.023  0.00  0.00    +0.015 C 
ATOM      6  C   UNL     1      -0.629   9.599  23.975  0.00  0.00    -0.021 C 
ATOM      7  C   UNL     1      -0.676  10.569  22.787  0.00  0.00    +0.015 C 
ATOM      8  N   UNL     1       1.440   8.697  20.440  0.00  0.00    -0.214 NA
ATOM      9  C   UNL     1       1.887   8.650  19.156  0.00  0.00    +0.166 A 
ATOM     10  C   UNL     1       1.786   9.767  18.329  0.00  0.00    +0.167 A 
ATOM     11  F   UNL     1       2.181   9.759  17.051  0.00  0.00    -0.202 F 
ATOM     12  H   UNL     1       0.333  11.870  20.561  0.00  0.00    +0.066 HD
ATOM     13  H   UNL     1      -0.494   7.953  22.479  0.00  0.00    +0.046 HD
ATOM     14  H   UNL     1       1.012   8.176  23.440  0.00  0.00    +0.046 HD
ATOM     15  H   UNL     1      -0.036   9.955  24.825  0.00  0.00    +0.030 HD
ATOM     16  H   UNL     1      -1.595   9.232  24.330  0.00  0.00    +0.030 HD
ATOM     17  H   UNL     1      -1.573  10.495  22.163  0.00  0.00    +0.046 HD
ATOM     18  H   UNL     1      -0.449  11.611  23.020  0.00  0.00    +0.046 HD
ENDROOT
BRANCH   9  19
ATOM     19  N   UNL     1       2.436   7.407  18.764  0.00  0.00    -0.245 N 
ATOM     20  C   UNL     1       3.459   7.391  17.726  0.00  0.00    +0.048 C 
ATOM     21  C   UNL     1       3.763   5.936  17.569  0.00  0.00    -0.006 A 
ATOM     22  C   UNL     1       2.976   5.202  18.451  0.00  0.00    +0.042 A 
ATOM     23  C   UNL     1       3.036   3.823  18.528  0.00  0.00    -0.049 A 
ATOM     24  C   UNL     1       3.924   3.166  17.677  0.00  0.00    -0.060 A 
ATOM     25  C   UNL     1       4.727   3.896  16.779  0.00  0.00    -0.050 A 
ATOM     26  C   UNL     1       4.656   5.300  16.711  0.00  0.00    +0.060 A 
ATOM     27  C   UNL     1       2.130   6.132  19.217  0.00  0.00    +0.253 C 
ATOM     28  O   UNL     1       1.353   5.729  20.059  0.00  0.00    -0.270 OA
ATOM     29  H   UNL     1       4.344   7.940  18.067  0.00  0.00    +0.052 HD
ATOM     30  H   UNL     1       3.053   7.806  16.797  0.00  0.00    +0.052 HD
ATOM     31  H   UNL     1       2.410   3.276  19.227  0.00  0.00    +0.063 HD
ATOM     32  H   UNL     1       3.999   2.080  17.708  0.00  0.00    +0.062 HD
ATOM     33  H   UNL     1       5.411   3.351  16.127  0.00  0.00    +0.062 HD
BRANCH  26  34
ATOM     34  C   UNL     1       5.508   6.090  15.754  0.00  0.00    +0.418 C 
ATOM     35  F   UNL     1       6.161   5.291  14.866  0.00  0.00    -0.166 F 
ATOM     36  F   UNL     1       6.475   6.804  16.393  0.00  0.00    -0.166 F 
ATOM     37  F   UNL     1       4.808   6.986  15.008  0.00  0.00    -0.166 F 
ENDBRANCH  26  34
ENDBRANCH   9  19
BRANCH   1  38
ATOM     38  C   UNL     1       1.126  12.158  17.889  0.00  0.00    -0.009 C 
ATOM     39  H   UNL     1       1.011  11.768  16.868  0.00  0.00    +0.035 HD
BRANCH  38  40
ATOM     40  C   UNL     1       2.394  13.024  17.851  0.00  0.00    -0.058 C 
ATOM     41  H   UNL     1       3.047  12.721  17.026  0.00  0.00    +0.024 HD
ATOM     42  H   UNL     1       2.968  12.920  18.778  0.00  0.00    +0.024 HD
ATOM     43  H   UNL     1       2.164  14.085  17.713  0.00  0.00    +0.024 HD
ENDBRANCH  38  40
BRANCH  38  44
ATOM     44  C   UNL     1      -0.124  12.979  18.262  0.00  0.00    +0.014 C 
ATOM     45  H   UNL     1      -0.080  13.298  19.310  0.00  0.00    +0.035 HD
ATOM     46  H   UNL     1      -0.152  13.904  17.673  0.00  0.00    +0.035 HD
BRANCH  44  47
ATOM     47  C   UNL     1      -1.388  12.222  18.043  0.00  0.00    +0.134 A 
ATOM     48  N   UNL     1      -1.699  11.518  16.973  0.00  0.00    -0.135 NA
ATOM     49  N   UNL     1      -2.952  10.986  17.161  0.00  0.00    -0.138 NA
ATOM     50  C   UNL     1      -3.380  11.380  18.338  0.00  0.00    +0.120 A 
ATOM     51  N   UNL     1      -2.431  12.153  18.931  0.00  0.00    -0.320 N 
ATOM     52  H   UNL     1      -4.335  11.135  18.785  0.00  0.00    +0.105 HD
BRANCH  51  53
ATOM     53  C   UNL     1      -2.520  12.755  20.236  0.00  0.00    +0.014 C 
ATOM     54  H   UNL     1      -2.752  13.816  20.123  0.00  0.00    +0.046 HD
ATOM     55  H   UNL     1      -1.565  12.620  20.747  0.00  0.00    +0.046 HD
ATOM     56  H   UNL     1      -3.315  12.268  20.807  0.00  0.00    +0.046 HD
ENDBRANCH  51  53
ENDBRANCH  44  47
ENDBRANCH  38  44
ENDBRANCH   1  38
TORSDOF 7
ENDMDL
