MODEL 1
REMARK VINA RESULT:    -6.539      0.000      0.000
REMARK INTER + INTRA:          -7.550
REMARK INTER:                  -7.298
REMARK INTRA:                  -0.252
REMARK UNBOUND:                 0.136
REMARK  Name = 
REMARK  4 active torsions:
REMARK  status: ('A' for Active; 'I' for Inactive)
REMARK    1  A    between atoms: C_1  and  C_2
REMARK    2  A    between atoms: N_4  and  C_5
REMARK    3  A    between atoms: C_9  and  S_11
REMARK    4  A    between atoms: S_11  and  N_14
REMARK                            x       y       z     vdW  Elec       q    Type
REMARK                         _______ _______ _______ _____ _____    ______ ____
ROOT
ATOM      1  C   UNL     1       3.536   5.210  19.386  0.00  0.00    +0.035 A 
ATOM      2  C   UNL     1       2.934   6.000  18.401  0.00  0.00    -0.040 A 
ATOM      3  C   UNL     1       3.710   6.695  17.466  0.00  0.00    -0.058 A 
ATOM      4  C   UNL     1       5.099   6.603  17.501  0.00  0.00    -0.035 A 
ATOM      5  C   UNL     1       5.702   5.804  18.472  0.00  0.00    +0.107 A 
ATOM      6  C   UNL     1       4.931   5.117  19.418  0.00  0.00    -0.014 A 
ATOM      7  H   UNL     1       1.854   6.104  18.336  0.00  0.00    +0.064 HD
ATOM      8  H   UNL     1       3.221   7.311  16.714  0.00  0.00    +0.062 HD
ATOM      9  H   UNL     1       5.696   7.152  16.776  0.00  0.00    +0.064 HD
ATOM     10  H   UNL     1       5.427   4.514  20.174  0.00  0.00    +0.066 HD
ENDROOT
BRANCH   1  13
ATOM     11  C   UNL     1       2.431   3.164  20.320  0.00  0.00    +0.214 C 
ATOM     12  O   UNL     1       2.625   2.368  19.409  0.00  0.00    -0.276 OA
ATOM     13  N   UNL     1       2.822   4.491  20.367  0.00  0.00    -0.286 N 
ATOM     14  H   UNL     1       2.559   5.011  21.195  0.00  0.00    +0.155 HD
BRANCH  11  15
ATOM     15  C   UNL     1       1.668   2.752  21.556  0.00  0.00    +0.012 C 
ATOM     16  H   UNL     1       2.050   1.791  21.913  0.00  0.00    +0.032 HD
ATOM     17  H   UNL     1       0.599   2.669  21.345  0.00  0.00    +0.032 HD
ATOM     18  H   UNL     1       1.803   3.508  22.334  0.00  0.00    +0.032 HD
ENDBRANCH  11  15
ENDBRANCH   1  13
BRANCH   5  19
ATOM     19  S   UNL     1       7.465   5.704  18.542  0.00  0.00    +0.056 S 
ATOM     20  O   UNL     1       8.025   7.009  18.280  0.00  0.00    -0.153 OA
ATOM     21  O   UNL     1       7.902   4.518  17.844  0.00  0.00    -0.153 OA
BRANCH  19  22
ATOM     22  N   UNL     1       7.732   5.412  20.173  0.00  0.00    -0.204 NA
ATOM     23  H   UNL     1       8.487   6.006  20.514  0.00  0.00    +0.144 HD
ATOM     24  H   UNL     1       7.892   4.416  20.325  0.00  0.00    +0.144 HD
ENDBRANCH  19  22
ENDBRANCH   5  19
TORSDOF 4
ENDMDL
MODEL 2
REMARK VINA RESULT:    -6.271      1.555      1.794
REMARK INTER + INTRA:          -7.235
REMARK INTER:                  -6.997
REMARK INTRA:                  -0.238
REMARK UNBOUND:                 0.136
REMARK  Name = 
REMARK  4 active torsions:
REMARK  status: ('A' for Active; 'I' for Inactive)
REMARK    1  A    between atoms: C_1  and  C_2
REMARK    2  A    between atoms: N_4  and  C_5
REMARK    3  A    between atoms: C_9  and  S_11
REMARK    4  A    between atoms: S_11  and  N_14
REMARK                            x       y       z     vdW  Elec       q    Type
REMARK                         _______ _______ _______ _____ _____    ______ ____
ROOT
ATOM      1  C   UNL     1       3.534   5.079  19.219  0.00  0.00    +0.035 A 
ATOM      2  C   UNL     1       2.953   6.272  18.780  0.00  0.00    -0.040 A 
ATOM      3  C   UNL     1       3.546   7.026  17.761  0.00  0.00    -0.058 A 
ATOM      4  C   UNL     1       4.727   6.592  17.163  0.00  0.00    -0.035 A 
ATOM      5  C   UNL     1       5.302   5.394  17.589  0.00  0.00    +0.107 A 
ATOM      6  C   UNL     1       4.719   4.643  18.617  0.00  0.00    -0.014 A 
ATOM      7  H   UNL     1       2.033   6.653  19.217  0.00  0.00    +0.064 HD
ATOM      8  H   UNL     1       3.081   7.956  17.440  0.00  0.00    +0.062 HD
ATOM      9  H   UNL     1       5.187   7.187  16.377  0.00  0.00    +0.064 HD
ATOM     10  H   UNL     1       5.196   3.722  18.941  0.00  0.00    +0.066 HD
ENDROOT
BRANCH   1  13
ATOM     11  C   UNL     1       1.873   3.474  20.191  0.00  0.00    +0.214 C 
ATOM     12  O   UNL     1       1.118   3.327  19.237  0.00  0.00    -0.276 OA
ATOM     13  N   UNL     1       3.002   4.272  20.247  0.00  0.00    -0.286 N 
ATOM     14  H   UNL     1       3.500   4.290  21.127  0.00  0.00    +0.155 HD
BRANCH  11  15
ATOM     15  C   UNL     1       1.610   2.769  21.499  0.00  0.00    +0.012 C 
ATOM     16  H   UNL     1       0.913   1.943  21.331  0.00  0.00    +0.032 HD
ATOM     17  H   UNL     1       1.193   3.459  22.238  0.00  0.00    +0.032 HD
ATOM     18  H   UNL     1       2.550   2.375  21.895  0.00  0.00    +0.032 HD
ENDBRANCH  11  15
ENDBRANCH   1  13
BRANCH   5  19
ATOM     19  S   UNL     1       6.815   4.850  16.858  0.00  0.00    +0.056 S 
ATOM     20  O   UNL     1       6.517   3.989  15.737  0.00  0.00    -0.153 OA
ATOM     21  O   UNL     1       7.739   4.473  17.901  0.00  0.00    -0.153 OA
BRANCH  19  22
ATOM     22  N   UNL     1       7.412   6.271  16.195  0.00  0.00    -0.204 NA
ATOM     23  H   UNL     1       7.170   7.062  16.790  0.00  0.00    +0.144 HD
ATOM     24  H   UNL     1       7.088   6.367  15.232  0.00  0.00    +0.144 HD
ENDBRANCH  19  22
ENDBRANCH   5  19
TORSDOF 4
ENDMDL
MODEL 3
REMARK VINA RESULT:    -6.210      1.869      1.933
REMARK INTER + INTRA:          -7.163
REMARK INTER:                  -6.965
REMARK INTRA:                  -0.199
REMARK UNBOUND:                 0.136
REMARK  Name = 
REMARK  4 active torsions:
REMARK  status: ('A' for Active; 'I' for Inactive)
REMARK    1  A    between atoms: C_1  and  C_2
REMARK    2  A    between atoms: N_4  and  C_5
REMARK    3  A    between atoms: C_9  and  S_11
REMARK    4  A    between atoms: S_11  and  N_14
REMARK                            x       y       z     vdW  Elec       q    Type
REMARK                         _______ _______ _______ _____ _____    ______ ____
ROOT
ATOM      1  C   UNL     1       3.719   3.466  18.915  0.00  0.00    +0.035 A 
ATOM      2  C   UNL     1       3.172   3.432  17.628  0.00  0.00    -0.040 A 
ATOM      3  C   UNL     1       3.860   3.986  16.542  0.00  0.00    -0.058 A 
ATOM      4  C   UNL     1       5.107   4.576  16.729  0.00  0.00    -0.035 A 
ATOM      5  C   UNL     1       5.663   4.599  18.008  0.00  0.00    +0.107 A 
ATOM      6  C   UNL     1       4.973   4.058  19.101  0.00  0.00    -0.014 A 
ATOM      7  H   UNL     1       2.201   2.985  17.434  0.00  0.00    +0.064 HD
ATOM      8  H   UNL     1       3.412   3.956  15.551  0.00  0.00    +0.062 HD
ATOM      9  H   UNL     1       5.632   5.012  15.882  0.00  0.00    +0.064 HD
ATOM     10  H   UNL     1       5.421   4.103  20.090  0.00  0.00    +0.066 HD
ENDROOT
BRANCH   1  13
ATOM     11  C   UNL     1       1.896   3.364  20.632  0.00  0.00    +0.214 C 
ATOM     12  O   UNL     1       1.181   4.286  20.256  0.00  0.00    -0.276 OA
ATOM     13  N   UNL     1       3.082   2.940  20.058  0.00  0.00    -0.286 N 
ATOM     14  H   UNL     1       3.555   2.170  20.514  0.00  0.00    +0.155 HD
BRANCH  11  15
ATOM     15  C   UNL     1       1.539   2.562  21.860  0.00  0.00    +0.012 C 
ATOM     16  H   UNL     1       0.916   1.712  21.569  0.00  0.00    +0.032 HD
ATOM     17  H   UNL     1       1.005   3.180  22.587  0.00  0.00    +0.032 HD
ATOM     18  H   UNL     1       2.455   2.197  22.333  0.00  0.00    +0.032 HD
ENDBRANCH  11  15
ENDBRANCH   1  13
BRANCH   5  19
ATOM     19  S   UNL     1       7.231   5.371  18.261  0.00  0.00    +0.056 S 
ATOM     20  O   UNL     1       7.441   5.567  19.677  0.00  0.00    -0.153 OA
ATOM     21  O   UNL     1       7.400   6.433  17.297  0.00  0.00    -0.153 OA
BRANCH  19  22
ATOM     22  N   UNL     1       8.294   4.154  17.807  0.00  0.00    -0.204 NA
ATOM     23  H   UNL     1       8.512   3.565  18.609  0.00  0.00    +0.144 HD
ATOM     24  H   UNL     1       9.117   4.561  17.361  0.00  0.00    +0.144 HD
ENDBRANCH  19  22
ENDBRANCH   5  19
TORSDOF 4
ENDMDL
MODEL 4
REMARK VINA RESULT:    -6.154      2.984      5.488
REMARK INTER + INTRA:          -7.098
REMARK INTER:                  -6.936
REMARK INTRA:                  -0.162
REMARK UNBOUND:                 0.136
REMARK  Name = 
REMARK  4 active torsions:
REMARK  status: ('A' for Active; 'I' for Inactive)
REMARK    1  A    between atoms: C_1  and  C_2
REMARK    2  A    between atoms: N_4  and  C_5
REMARK    3  A    between atoms: C_9  and  S_11
REMARK    4  A    between atoms: S_11  and  N_14
REMARK                            x       y       z     vdW  Elec       q    Type
REMARK                         _______ _______ _______ _____ _____    ______ ____
ROOT
ATOM      1  C   UNL     1       6.486   6.153  16.648  0.00  0.00    +0.035 A 
ATOM      2  C   UNL     1       6.783   5.419  15.495  0.00  0.00    -0.040 A 
ATOM      3  C   UNL     1       6.206   4.163  15.275  0.00  0.00    -0.058 A 
ATOM      4  C   UNL     1       5.318   3.627  16.205  0.00  0.00    -0.035 A 
ATOM      5  C   UNL     1       5.007   4.363  17.349  0.00  0.00    +0.107 A 
ATOM      6  C   UNL     1       5.592   5.614  17.580  0.00  0.00    -0.014 A 
ATOM      7  H   UNL     1       7.472   5.795  14.743  0.00  0.00    +0.064 HD
ATOM      8  H   UNL     1       6.457   3.606  14.376  0.00  0.00    +0.062 HD
ATOM      9  H   UNL     1       4.878   2.648  16.032  0.00  0.00    +0.064 HD
ATOM     10  H   UNL     1       5.346   6.160  18.487  0.00  0.00    +0.066 HD
ENDROOT
BRANCH   1  13
ATOM     11  C   UNL     1       7.902   7.740  17.974  0.00  0.00    +0.214 C 
ATOM     12  O   UNL     1       8.344   6.984  18.830  0.00  0.00    -0.276 OA
ATOM     13  N   UNL     1       7.036   7.418  16.943  0.00  0.00    -0.286 N 
ATOM     14  H   UNL     1       6.755   8.176  16.334  0.00  0.00    +0.155 HD
BRANCH  11  15
ATOM     15  C   UNL     1       8.262   9.205  17.977  0.00  0.00    +0.012 C 
ATOM     16  H   UNL     1       7.855   9.676  18.876  0.00  0.00    +0.032 HD
ATOM     17  H   UNL     1       7.869   9.706  17.088  0.00  0.00    +0.032 HD
ATOM     18  H   UNL     1       9.350   9.312  17.973  0.00  0.00    +0.032 HD
ENDBRANCH  11  15
ENDBRANCH   1  13
BRANCH   5  19
ATOM     19  S   UNL     1       3.904   3.680  18.548  0.00  0.00    +0.056 S 
ATOM     20  O   UNL     1       2.969   2.800  17.885  0.00  0.00    -0.153 OA
ATOM     21  O   UNL     1       3.480   4.721  19.453  0.00  0.00    -0.153 OA
BRANCH  19  22
ATOM     22  N   UNL     1       4.924   2.680  19.429  0.00  0.00    -0.204 NA
ATOM     23  H   UNL     1       5.349   1.987  18.814  0.00  0.00    +0.144 HD
ATOM     24  H   UNL     1       4.417   2.275  20.216  0.00  0.00    +0.144 HD
ENDBRANCH  19  22
ENDBRANCH   5  19
TORSDOF 4
ENDMDL
MODEL 5
REMARK VINA RESULT:    -6.123      2.284      2.729
REMARK INTER + INTRA:          -7.061
REMARK INTER:                  -6.810
REMARK INTRA:                  -0.251
REMARK UNBOUND:                 0.136
REMARK  Name = 
REMARK  4 active torsions:
REMARK  status: ('A' for Active; 'I' for Inactive)
REMARK    1  A    between atoms: C_1  and  C_2
REMARK    2  A    between atoms: N_4  and  C_5
REMARK    3  A    between atoms: C_9  and  S_11
REMARK    4  A    between atoms: S_11  and  N_14
REMARK                            x       y       z     vdW  Elec       q    Type
REMARK                         _______ _______ _______ _____ _____    ______ ____
ROOT
ATOM      1  C   UNL     1       3.315   5.595  19.198  0.00  0.00    +0.035 A 
ATOM      2  C   UNL     1       2.800   4.660  18.295  0.00  0.00    -0.040 A 
ATOM      3  C   UNL     1       3.643   3.982  17.406  0.00  0.00    -0.058 A 
ATOM      4  C   UNL     1       5.013   4.227  17.414  0.00  0.00    -0.035 A 
ATOM      5  C   UNL     1       5.533   5.149  18.324  0.00  0.00    +0.107 A 
ATOM      6  C   UNL     1       4.693   5.839  19.207  0.00  0.00    -0.014 A 
ATOM      7  H   UNL     1       1.738   4.437  18.250  0.00  0.00    +0.064 HD
ATOM      8  H   UNL     1       3.220   3.265  16.706  0.00  0.00    +0.062 HD
ATOM      9  H   UNL     1       5.662   3.703  16.716  0.00  0.00    +0.064 HD
ATOM     10  H   UNL     1       5.120   6.563  19.895  0.00  0.00    +0.066 HD
ENDROOT
BRANCH   1  13
ATOM     11  C   UNL     1       1.973   7.579  19.936  0.00  0.00    +0.214 C 
ATOM     12  O   UNL     1       2.071   8.297  18.948  0.00  0.00    -0.276 OA
ATOM     13  N   UNL     1       2.529   6.324  20.115  0.00  0.00    -0.286 N 
ATOM     14  H   UNL     1       2.362   5.879  21.008  0.00  0.00    +0.155 HD
BRANCH  11  15
ATOM     15  C   UNL     1       1.206   8.040  21.151  0.00  0.00    +0.012 C 
ATOM     16  H   UNL     1       1.637   7.583  22.046  0.00  0.00    +0.032 HD
ATOM     17  H   UNL     1       0.149   7.769  21.071  0.00  0.00    +0.032 HD
ATOM     18  H   UNL     1       1.273   9.128  21.232  0.00  0.00    +0.032 HD
ENDBRANCH  11  15
ENDBRANCH   1  13
BRANCH   5  19
ATOM     19  S   UNL     1       7.266   5.488  18.323  0.00  0.00    +0.056 S 
ATOM     20  O   UNL     1       7.484   6.847  17.884  0.00  0.00    -0.153 OA
ATOM     21  O   UNL     1       7.971   4.366  17.749  0.00  0.00    -0.153 OA
BRANCH  19  22
ATOM     22  N   UNL     1       7.624   5.476  19.963  0.00  0.00    -0.204 NA
ATOM     23  H   UNL     1       6.765   5.397  20.506  0.00  0.00    +0.144 HD
ATOM     24  H   UNL     1       8.186   6.294  20.200  0.00  0.00    +0.144 HD
ENDBRANCH  19  22
ENDBRANCH   5  19
TORSDOF 4
ENDMDL
MODEL 6
REMARK VINA RESULT:    -6.102      3.397      5.483
REMARK INTER + INTRA:          -7.036
REMARK INTER:                  -6.892
REMARK INTRA:                  -0.145
REMARK UNBOUND:                 0.136
REMARK  Name = 
REMARK  4 active torsions:
REMARK  status: ('A' for Active; 'I' for Inactive)
REMARK    1  A    between atoms: C_1  and  C_2
REMARK    2  A    between atoms: N_4  and  C_5
REMARK    3  A    between atoms: C_9  and  S_11
REMARK    4  A    between atoms: S_11  and  N_14
REMARK                            x       y       z     vdW  Elec       q    Type
REMARK                         _______ _______ _______ _____ _____    ______ ____
ROOT
ATOM      1  C   UNL     1       4.956   4.585  16.020  0.00  0.00    +0.035 A 
ATOM      2  C   UNL     1       5.031   5.917  16.437  0.00  0.00    -0.040 A 
ATOM      3  C   UNL     1       4.694   6.280  17.746  0.00  0.00    -0.058 A 
ATOM      4  C   UNL     1       4.284   5.311  18.658  0.00  0.00    -0.035 A 
ATOM      5  C   UNL     1       4.222   3.978  18.251  0.00  0.00    +0.107 A 
ATOM      6  C   UNL     1       4.546   3.612  16.938  0.00  0.00    -0.014 A 
ATOM      7  H   UNL     1       5.344   6.709  15.761  0.00  0.00    +0.064 HD
ATOM      8  H   UNL     1       4.751   7.323  18.047  0.00  0.00    +0.062 HD
ATOM      9  H   UNL     1       4.016   5.600  19.672  0.00  0.00    +0.064 HD
ATOM     10  H   UNL     1       4.474   2.569  16.641  0.00  0.00    +0.066 HD
ENDROOT
BRANCH   1  13
ATOM     11  C   UNL     1       6.448   4.346  14.020  0.00  0.00    +0.214 C 
ATOM     12  O   UNL     1       7.440   4.953  14.406  0.00  0.00    -0.276 OA
ATOM     13  N   UNL     1       5.268   4.146  14.716  0.00  0.00    -0.286 N 
ATOM     14  H   UNL     1       4.540   3.635  14.234  0.00  0.00    +0.155 HD
BRANCH  11  15
ATOM     15  C   UNL     1       6.403   3.738  12.640  0.00  0.00    +0.012 C 
ATOM     16  H   UNL     1       6.144   4.512  11.912  0.00  0.00    +0.032 HD
ATOM     17  H   UNL     1       5.671   2.928  12.594  0.00  0.00    +0.032 HD
ATOM     18  H   UNL     1       7.385   3.323  12.394  0.00  0.00    +0.032 HD
ENDBRANCH  11  15
ENDBRANCH   1  13
BRANCH   5  19
ATOM     19  S   UNL     1       3.675   2.745  19.392  0.00  0.00    +0.056 S 
ATOM     20  O   UNL     1       3.077   1.653  18.659  0.00  0.00    -0.153 OA
ATOM     21  O   UNL     1       3.016   3.385  20.505  0.00  0.00    -0.153 OA
BRANCH  19  22
ATOM     22  N   UNL     1       5.128   2.153  19.987  0.00  0.00    -0.204 NA
ATOM     23  H   UNL     1       5.121   2.172  21.006  0.00  0.00    +0.144 HD
ATOM     24  H   UNL     1       5.907   2.665  19.571  0.00  0.00    +0.144 HD
ENDBRANCH  19  22
ENDBRANCH   5  19
TORSDOF 4
ENDMDL
MODEL 7
REMARK VINA RESULT:    -6.099      2.445      2.902
REMARK INTER + INTRA:          -7.033
REMARK INTER:                  -6.782
REMARK INTRA:                  -0.251
REMARK UNBOUND:                 0.136
REMARK  Name = 
REMARK  4 active torsions:
REMARK  status: ('A' for Active; 'I' for Inactive)
REMARK    1  A    between atoms: C_1  and  C_2
REMARK    2  A    between atoms: N_4  and  C_5
REMARK    3  A    between atoms: C_9  and  S_11
REMARK    4  A    between atoms: S_11  and  N_14
REMARK                            x       y       z     vdW  Elec       q    Type
REMARK                         _______ _______ _______ _____ _____    ______ ____
ROOT
ATOM      1  C   UNL     1       3.400   5.507  19.160  0.00  0.00    +0.035 A 
ATOM      2  C   UNL     1       2.903   4.522  18.301  0.00  0.00    -0.040 A 
ATOM      3  C   UNL     1       3.750   3.856  17.407  0.00  0.00    -0.058 A 
ATOM      4  C   UNL     1       5.108   4.163  17.366  0.00  0.00    -0.035 A 
ATOM      5  C   UNL     1       5.610   5.134  18.232  0.00  0.00    +0.107 A 
ATOM      6  C   UNL     1       4.765   5.813  19.119  0.00  0.00    -0.014 A 
ATOM      7  H   UNL     1       1.851   4.250  18.295  0.00  0.00    +0.064 HD
ATOM      8  H   UNL     1       3.341   3.098  16.742  0.00  0.00    +0.062 HD
ATOM      9  H   UNL     1       5.759   3.647  16.664  0.00  0.00    +0.064 HD
ATOM     10  H   UNL     1       5.179   6.577  19.771  0.00  0.00    +0.066 HD
ENDROOT
BRANCH   1  13
ATOM     11  C   UNL     1       2.039   7.477  19.900  0.00  0.00    +0.214 C 
ATOM     12  O   UNL     1       2.127   8.195  18.911  0.00  0.00    -0.276 OA
ATOM     13  N   UNL     1       2.608   6.228  20.078  0.00  0.00    -0.286 N 
ATOM     14  H   UNL     1       2.448   5.781  20.971  0.00  0.00    +0.155 HD
BRANCH  11  15
ATOM     15  C   UNL     1       1.270   7.929  21.116  0.00  0.00    +0.012 C 
ATOM     16  H   UNL     1       1.187   7.098  21.822  0.00  0.00    +0.032 HD
ATOM     17  H   UNL     1       0.271   8.279  20.839  0.00  0.00    +0.032 HD
ATOM     18  H   UNL     1       1.799   8.759  21.593  0.00  0.00    +0.032 HD
ENDBRANCH  11  15
ENDBRANCH   1  13
BRANCH   5  19
ATOM     19  S   UNL     1       7.325   5.552  18.168  0.00  0.00    +0.056 S 
ATOM     20  O   UNL     1       7.829   5.697  19.514  0.00  0.00    -0.153 OA
ATOM     21  O   UNL     1       7.534   6.554  17.150  0.00  0.00    -0.153 OA
BRANCH  19  22
ATOM     22  N   UNL     1       8.006   4.136  17.577  0.00  0.00    -0.204 NA
ATOM     23  H   UNL     1       7.729   3.995  16.606  0.00  0.00    +0.144 HD
ATOM     24  H   UNL     1       7.767   3.355  18.189  0.00  0.00    +0.144 HD
ENDBRANCH  19  22
ENDBRANCH   5  19
TORSDOF 4
ENDMDL
MODEL 8
REMARK VINA RESULT:    -6.024      2.742      5.272
REMARK INTER + INTRA:          -6.945
REMARK INTER:                  -6.699
REMARK INTRA:                  -0.246
REMARK UNBOUND:                 0.136
REMARK  Name = 
REMARK  4 active torsions:
REMARK  status: ('A' for Active; 'I' for Inactive)
REMARK    1  A    between atoms: C_1  and  C_2
REMARK    2  A    between atoms: N_4  and  C_5
REMARK    3  A    between atoms: C_9  and  S_11
REMARK    4  A    between atoms: S_11  and  N_14
REMARK                            x       y       z     vdW  Elec       q    Type
REMARK                         _______ _______ _______ _____ _____    ______ ____
ROOT
ATOM      1  C   UNL     1       4.049   5.147  17.385  0.00  0.00    +0.035 A 
ATOM      2  C   UNL     1       3.702   6.428  17.827  0.00  0.00    -0.040 A 
ATOM      3  C   UNL     1       2.875   6.602  18.943  0.00  0.00    -0.058 A 
ATOM      4  C   UNL     1       2.390   5.496  19.635  0.00  0.00    -0.035 A 
ATOM      5  C   UNL     1       2.746   4.217  19.207  0.00  0.00    +0.107 A 
ATOM      6  C   UNL     1       3.563   4.037  18.084  0.00  0.00    -0.014 A 
ATOM      7  H   UNL     1       4.054   7.321  17.317  0.00  0.00    +0.064 HD
ATOM      8  H   UNL     1       2.611   7.607  19.264  0.00  0.00    +0.062 HD
ATOM      9  H   UNL     1       1.741   5.638  20.497  0.00  0.00    +0.064 HD
ATOM     10  H   UNL     1       3.812   3.030  17.761  0.00  0.00    +0.066 HD
ENDROOT
BRANCH   1  13
ATOM     11  C   UNL     1       6.219   4.593  16.259  0.00  0.00    +0.214 C 
ATOM     12  O   UNL     1       6.959   4.503  17.231  0.00  0.00    -0.276 OA
ATOM     13  N   UNL     1       4.867   4.893  16.265  0.00  0.00    -0.286 N 
ATOM     14  H   UNL     1       4.412   4.946  15.362  0.00  0.00    +0.155 HD
BRANCH  11  15
ATOM     15  C   UNL     1       6.752   4.399  14.861  0.00  0.00    +0.012 C 
ATOM     16  H   UNL     1       7.327   5.282  14.567  0.00  0.00    +0.032 HD
ATOM     17  H   UNL     1       5.936   4.237  14.151  0.00  0.00    +0.032 HD
ATOM     18  H   UNL     1       7.401   3.519  14.839  0.00  0.00    +0.032 HD
ENDBRANCH  11  15
ENDBRANCH   1  13
BRANCH   5  19
ATOM     19  S   UNL     1       2.113   2.807  20.062  0.00  0.00    +0.056 S 
ATOM     20  O   UNL     1       2.772   2.692  21.342  0.00  0.00    -0.153 OA
ATOM     21  O   UNL     1       2.008   1.700  19.141  0.00  0.00    -0.153 OA
BRANCH  19  22
ATOM     22  N   UNL     1       0.540   3.284  20.401  0.00  0.00    -0.204 NA
ATOM     23  H   UNL     1       0.480   3.632  21.357  0.00  0.00    +0.144 HD
ATOM     24  H   UNL     1      -0.105   2.518  20.202  0.00  0.00    +0.144 HD
ENDBRANCH  19  22
ENDBRANCH   5  19
TORSDOF 4
ENDMDL
MODEL 9
REMARK VINA RESULT:    -5.992      3.562      5.732
REMARK INTER + INTRA:          -6.906
REMARK INTER:                  -6.851
REMARK INTRA:                  -0.056
REMARK UNBOUND:                 0.136
REMARK  Name = 
REMARK  4 active torsions:
REMARK  status: ('A' for Active; 'I' for Inactive)
REMARK    1  A    between atoms: C_1  and  C_2
REMARK    2  A    between atoms: N_4  and  C_5
REMARK    3  A    between atoms: C_9  and  S_11
REMARK    4  A    between atoms: S_11  and  N_14
REMARK                            x       y       z     vdW  Elec       q    Type
REMARK                         _______ _______ _______ _____ _____    ______ ____
ROOT
ATOM      1  C   UNL     1       6.065   4.016  16.041  0.00  0.00    +0.035 A 
ATOM      2  C   UNL     1       7.229   4.472  16.667  0.00  0.00    -0.040 A 
ATOM      3  C   UNL     1       7.202   4.914  17.995  0.00  0.00    -0.058 A 
ATOM      4  C   UNL     1       6.011   4.898  18.717  0.00  0.00    -0.035 A 
ATOM      5  C   UNL     1       4.851   4.428  18.100  0.00  0.00    +0.107 A 
ATOM      6  C   UNL     1       4.869   3.998  16.767  0.00  0.00    -0.014 A 
ATOM      7  H   UNL     1       8.181   4.506  16.145  0.00  0.00    +0.064 HD
ATOM      8  H   UNL     1       8.118   5.273  18.461  0.00  0.00    +0.062 HD
ATOM      9  H   UNL     1       5.996   5.249  19.746  0.00  0.00    +0.064 HD
ATOM     10  H   UNL     1       3.948   3.653  16.305  0.00  0.00    +0.066 HD
ENDROOT
BRANCH   1  13
ATOM     11  C   UNL     1       6.613   4.141  13.599  0.00  0.00    +0.214 C 
ATOM     12  O   UNL     1       7.299   5.156  13.574  0.00  0.00    -0.276 OA
ATOM     13  N   UNL     1       6.011   3.567  14.705  0.00  0.00    -0.286 N 
ATOM     14  H   UNL     1       5.460   2.735  14.539  0.00  0.00    +0.155 HD
BRANCH  11  15
ATOM     15  C   UNL     1       6.314   3.381  12.330  0.00  0.00    +0.012 C 
ATOM     16  H   UNL     1       6.565   4.004  11.467  0.00  0.00    +0.032 HD
ATOM     17  H   UNL     1       5.260   3.095  12.285  0.00  0.00    +0.032 HD
ATOM     18  H   UNL     1       6.915   2.467  12.304  0.00  0.00    +0.032 HD
ENDBRANCH  11  15
ENDBRANCH   1  13
BRANCH   5  19
ATOM     19  S   UNL     1       3.329   4.431  18.996  0.00  0.00    +0.056 S 
ATOM     20  O   UNL     1       3.326   3.328  19.930  0.00  0.00    -0.153 OA
ATOM     21  O   UNL     1       2.238   4.675  18.083  0.00  0.00    -0.153 OA
BRANCH  19  22
ATOM     22  N   UNL     1       3.477   5.817  19.930  0.00  0.00    -0.204 NA
ATOM     23  H   UNL     1       2.795   6.513  19.631  0.00  0.00    +0.144 HD
ATOM     24  H   UNL     1       4.442   6.151  19.904  0.00  0.00    +0.144 HD
ENDBRANCH  19  22
ENDBRANCH   5  19
TORSDOF 4
ENDMDL
MODEL 10
REMARK VINA RESULT:    -5.939      2.801      5.419
REMARK INTER + INTRA:          -6.844
REMARK INTER:                  -6.621
REMARK INTRA:                  -0.224
REMARK UNBOUND:                 0.136
REMARK  Name = 
REMARK  4 active torsions:
REMARK  status: ('A' for Active; 'I' for Inactive)
REMARK    1  A    between atoms: C_1  and  C_2
REMARK    2  A    between atoms: N_4  and  C_5
REMARK    3  A    between atoms: C_9  and  S_11
REMARK    4  A    between atoms: S_11  and  N_14
REMARK                            x       y       z     vdW  Elec       q    Type
REMARK                         _______ _______ _______ _____ _____    ______ ____
ROOT
ATOM      1  C   UNL     1       4.684   5.081  17.979  0.00  0.00    +0.035 A 
ATOM      2  C   UNL     1       4.585   3.965  17.142  0.00  0.00    -0.040 A 
ATOM      3  C   UNL     1       3.651   2.956  17.400  0.00  0.00    -0.058 A 
ATOM      4  C   UNL     1       2.798   3.053  18.497  0.00  0.00    -0.035 A 
ATOM      5  C   UNL     1       2.883   4.172  19.325  0.00  0.00    +0.107 A 
ATOM      6  C   UNL     1       3.825   5.179  19.079  0.00  0.00    -0.014 A 
ATOM      7  H   UNL     1       5.231   3.844  16.276  0.00  0.00    +0.064 HD
ATOM      8  H   UNL     1       3.597   2.092  16.741  0.00  0.00    +0.062 HD
ATOM      9  H   UNL     1       2.079   2.261  18.696  0.00  0.00    +0.064 HD
ATOM     10  H   UNL     1       3.882   6.033  19.749  0.00  0.00    +0.066 HD
ENDROOT
BRANCH   1  13
ATOM     11  C   UNL     1       6.984   6.076  17.917  0.00  0.00    +0.214 C 
ATOM     12  O   UNL     1       7.658   5.102  18.230  0.00  0.00    -0.276 OA
ATOM     13  N   UNL     1       5.606   6.131  17.790  0.00  0.00    -0.286 N 
ATOM     14  H   UNL     1       5.211   7.029  17.542  0.00  0.00    +0.155 HD
BRANCH  11  15
ATOM     15  C   UNL     1       7.634   7.411  17.650  0.00  0.00    +0.012 C 
ATOM     16  H   UNL     1       8.475   7.548  18.334  0.00  0.00    +0.032 HD
ATOM     17  H   UNL     1       6.917   8.227  17.779  0.00  0.00    +0.032 HD
ATOM     18  H   UNL     1       7.996   7.438  16.618  0.00  0.00    +0.032 HD
ENDBRANCH  11  15
ENDBRANCH   1  13
BRANCH   5  19
ATOM     19  S   UNL     1       1.825   4.291  20.735  0.00  0.00    +0.056 S 
ATOM     20  O   UNL     1       1.329   5.644  20.843  0.00  0.00    -0.153 OA
ATOM     21  O   UNL     1       2.433   3.598  21.846  0.00  0.00    -0.153 OA
BRANCH  19  22
ATOM     22  N   UNL     1       0.511   3.360  20.264  0.00  0.00    -0.204 NA
ATOM     23  H   UNL     1      -0.174   3.318  21.017  0.00  0.00    +0.144 HD
ATOM     24  H   UNL     1       0.831   2.444  19.948  0.00  0.00    +0.144 HD
ENDBRANCH  19  22
ENDBRANCH   5  19
TORSDOF 4
ENDMDL
MODEL 11
REMARK VINA RESULT:    -5.837      3.949      5.367
REMARK INTER + INTRA:          -6.725
REMARK INTER:                  -6.532
REMARK INTRA:                  -0.193
REMARK UNBOUND:                 0.136
REMARK  Name = 
REMARK  4 active torsions:
REMARK  status: ('A' for Active; 'I' for Inactive)
REMARK    1  A    between atoms: C_1  and  C_2
REMARK    2  A    between atoms: N_4  and  C_5
REMARK    3  A    between atoms: C_9  and  S_11
REMARK    4  A    between atoms: S_11  and  N_14
REMARK                            x       y       z     vdW  Elec       q    Type
REMARK                         _______ _______ _______ _____ _____    ______ ____
ROOT
ATOM      1  C   UNL     1       1.930   6.870  20.276  0.00  0.00    +0.035 A 
ATOM      2  C   UNL     1       2.441   7.318  19.054  0.00  0.00    -0.040 A 
ATOM      3  C   UNL     1       2.704   6.419  18.014  0.00  0.00    -0.058 A 
ATOM      4  C   UNL     1       2.454   5.059  18.182  0.00  0.00    -0.035 A 
ATOM      5  C   UNL     1       1.929   4.611  19.394  0.00  0.00    +0.107 A 
ATOM      6  C   UNL     1       1.676   5.504  20.442  0.00  0.00    -0.014 A 
ATOM      7  H   UNL     1       2.655   8.369  18.876  0.00  0.00    +0.064 HD
ATOM      8  H   UNL     1       3.110   6.788  17.074  0.00  0.00    +0.062 HD
ATOM      9  H   UNL     1       2.668   4.365  17.373  0.00  0.00    +0.064 HD
ATOM     10  H   UNL     1       1.284   5.127  21.383  0.00  0.00    +0.066 HD
ENDROOT
BRANCH   1  13
ATOM     11  C   UNL     1       0.728   8.744  21.427  0.00  0.00    +0.214 C 
ATOM     12  O   UNL     1      -0.013   9.122  20.528  0.00  0.00    -0.276 OA
ATOM     13  N   UNL     1       1.650   7.713  21.372  0.00  0.00    -0.286 N 
ATOM     14  H   UNL     1       2.196   7.549  22.208  0.00  0.00    +0.155 HD
BRANCH  11  15
ATOM     15  C   UNL     1       0.724   9.432  22.770  0.00  0.00    +0.012 C 
ATOM     16  H   UNL     1       0.219  10.397  22.681  0.00  0.00    +0.032 HD
ATOM     17  H   UNL     1       1.745   9.582  23.135  0.00  0.00    +0.032 HD
ATOM     18  H   UNL     1       0.193   8.809  23.496  0.00  0.00    +0.032 HD
ENDBRANCH  11  15
ENDBRANCH   1  13
BRANCH   5  19
ATOM     19  S   UNL     1       1.635   2.885  19.628  0.00  0.00    +0.056 S 
ATOM     20  O   UNL     1       2.901   2.196  19.725  0.00  0.00    -0.153 OA
ATOM     21  O   UNL     1       0.586   2.455  18.733  0.00  0.00    -0.153 OA
BRANCH  19  22
ATOM     22  N   UNL     1       0.977   2.850  21.171  0.00  0.00    -0.204 NA
ATOM     23  H   UNL     1       1.721   2.851  21.867  0.00  0.00    +0.144 HD
ATOM     24  H   UNL     1       0.336   2.060  21.257  0.00  0.00    +0.144 HD
ENDBRANCH  19  22
ENDBRANCH   5  19
TORSDOF 4
ENDMDL
MODEL 12
REMARK VINA RESULT:    -5.836      2.501      3.072
REMARK INTER + INTRA:          -6.724
REMARK INTER:                  -6.576
REMARK INTRA:                  -0.148
REMARK UNBOUND:                 0.136
REMARK  Name = 
REMARK  4 active torsions:
REMARK  status: ('A' for Active; 'I' for Inactive)
REMARK    1  A    between atoms: C_1  and  C_2
REMARK    2  A    between atoms: N_4  and  C_5
REMARK    3  A    between atoms: C_9  and  S_11
REMARK    4  A    between atoms: S_11  and  N_14
REMARK                            x       y       z     vdW  Elec       q    Type
REMARK                         _______ _______ _______ _____ _____    ______ ____
ROOT
ATOM      1  C   UNL     1       3.223   5.755  18.188  0.00  0.00    +0.035 A 
ATOM      2  C   UNL     1       2.501   4.615  17.822  0.00  0.00    -0.040 A 
ATOM      3  C   UNL     1       3.111   3.577  17.108  0.00  0.00    -0.058 A 
ATOM      4  C   UNL     1       4.456   3.664  16.757  0.00  0.00    -0.035 A 
ATOM      5  C   UNL     1       5.185   4.792  17.134  0.00  0.00    +0.107 A 
ATOM      6  C   UNL     1       4.575   5.840  17.837  0.00  0.00    -0.014 A 
ATOM      7  H   UNL     1       1.449   4.504  18.070  0.00  0.00    +0.064 HD
ATOM      8  H   UNL     1       2.528   2.704  16.825  0.00  0.00    +0.062 HD
ATOM      9  H   UNL     1       4.923   2.858  16.196  0.00  0.00    +0.064 HD
ATOM     10  H   UNL     1       5.161   6.715  18.104  0.00  0.00    +0.066 HD
ENDROOT
BRANCH   1  13
ATOM     11  C   UNL     1       2.018   6.812  20.114  0.00  0.00    +0.214 C 
ATOM     12  O   UNL     1       1.782   5.825  20.801  0.00  0.00    -0.276 OA
ATOM     13  N   UNL     1       2.675   6.844  18.896  0.00  0.00    -0.286 N 
ATOM     14  H   UNL     1       2.766   7.751  18.455  0.00  0.00    +0.155 HD
BRANCH  11  15
ATOM     15  C   UNL     1       1.559   8.182  20.549  0.00  0.00    +0.012 C 
ATOM     16  H   UNL     1       0.596   8.096  21.060  0.00  0.00    +0.032 HD
ATOM     17  H   UNL     1       1.462   8.852  19.690  0.00  0.00    +0.032 HD
ATOM     18  H   UNL     1       2.295   8.612  21.234  0.00  0.00    +0.032 HD
ENDBRANCH  11  15
ENDBRANCH   1  13
BRANCH   5  19
ATOM     19  S   UNL     1       6.884   4.925  16.669  0.00  0.00    +0.056 S 
ATOM     20  O   UNL     1       7.043   4.447  15.315  0.00  0.00    -0.153 OA
ATOM     21  O   UNL     1       7.712   4.463  17.757  0.00  0.00    -0.153 OA
BRANCH  19  22
ATOM     22  N   UNL     1       7.094   6.588  16.593  0.00  0.00    -0.204 NA
ATOM     23  H   UNL     1       7.956   6.808  16.094  0.00  0.00    +0.144 HD
ATOM     24  H   UNL     1       7.051   6.986  17.532  0.00  0.00    +0.144 HD
ENDBRANCH  19  22
ENDBRANCH   5  19
TORSDOF 4
ENDMDL
MODEL 13
REMARK VINA RESULT:    -5.732      3.546      4.705
REMARK INTER + INTRA:          -6.601
REMARK INTER:                  -6.713
REMARK INTRA:                   0.112
REMARK UNBOUND:                 0.136
REMARK  Name = 
REMARK  4 active torsions:
REMARK  status: ('A' for Active; 'I' for Inactive)
REMARK    1  A    between atoms: C_1  and  C_2
REMARK    2  A    between atoms: N_4  and  C_5
REMARK    3  A    between atoms: C_9  and  S_11
REMARK    4  A    between atoms: S_11  and  N_14
REMARK                            x       y       z     vdW  Elec       q    Type
REMARK                         _______ _______ _______ _____ _____    ______ ____
ROOT
ATOM      1  C   UNL     1       2.307   6.570  20.001  0.00  0.00    +0.035 A 
ATOM      2  C   UNL     1       2.659   6.979  18.711  0.00  0.00    -0.040 A 
ATOM      3  C   UNL     1       3.180   6.067  17.786  0.00  0.00    -0.058 A 
ATOM      4  C   UNL     1       3.350   4.730  18.139  0.00  0.00    -0.035 A 
ATOM      5  C   UNL     1       2.985   4.315  19.420  0.00  0.00    +0.107 A 
ATOM      6  C   UNL     1       2.476   5.226  20.353  0.00  0.00    -0.014 A 
ATOM      7  H   UNL     1       2.548   8.012  18.391  0.00  0.00    +0.064 HD
ATOM      8  H   UNL     1       3.456   6.408  16.791  0.00  0.00    +0.062 HD
ATOM      9  H   UNL     1       3.762   4.028  17.418  0.00  0.00    +0.064 HD
ATOM     10  H   UNL     1       2.214   4.880  21.350  0.00  0.00    +0.066 HD
ENDROOT
BRANCH   1  13
ATOM     11  C   UNL     1       1.156   8.648  20.798  0.00  0.00    +0.214 C 
ATOM     12  O   UNL     1       0.940   9.209  19.730  0.00  0.00    -0.276 OA
ATOM     13  N   UNL     1       1.788   7.432  20.989  0.00  0.00    -0.286 N 
ATOM     14  H   UNL     1       1.900   7.126  21.948  0.00  0.00    +0.155 HD
BRANCH  11  15
ATOM     15  C   UNL     1       0.750   9.290  22.102  0.00  0.00    +0.012 C 
ATOM     16  H   UNL     1      -0.202   9.811  21.969  0.00  0.00    +0.032 HD
ATOM     17  H   UNL     1       1.512   9.996  22.444  0.00  0.00    +0.032 HD
ATOM     18  H   UNL     1       0.637   8.516  22.867  0.00  0.00    +0.032 HD
ENDBRANCH  11  15
ENDBRANCH   1  13
BRANCH   5  19
ATOM     19  S   UNL     1       3.223   2.627  19.886  0.00  0.00    +0.056 S 
ATOM     20  O   UNL     1       2.588   1.772  18.910  0.00  0.00    -0.153 OA
ATOM     21  O   UNL     1       2.994   2.489  21.304  0.00  0.00    -0.153 OA
BRANCH  19  22
ATOM     22  N   UNL     1       4.874   2.433  19.657  0.00  0.00    -0.204 NA
ATOM     23  H   UNL     1       5.301   3.328  19.423  0.00  0.00    +0.144 HD
ATOM     24  H   UNL     1       5.044   1.704  18.963  0.00  0.00    +0.144 HD
ENDBRANCH  19  22
ENDBRANCH   5  19
TORSDOF 4
ENDMDL
MODEL 14
REMARK VINA RESULT:    -5.703      3.030      3.826
REMARK INTER + INTRA:          -6.567
REMARK INTER:                  -6.476
REMARK INTRA:                  -0.091
REMARK UNBOUND:                 0.136
REMARK  Name = 
REMARK  4 active torsions:
REMARK  status: ('A' for Active; 'I' for Inactive)
REMARK    1  A    between atoms: C_1  and  C_2
REMARK    2  A    between atoms: N_4  and  C_5
REMARK    3  A    between atoms: C_9  and  S_11
REMARK    4  A    between atoms: S_11  and  N_14
REMARK                            x       y       z     vdW  Elec       q    Type
REMARK                         _______ _______ _______ _____ _____    ______ ____
ROOT
ATOM      1  C   UNL     1       1.966   5.571  20.332  0.00  0.00    +0.035 A 
ATOM      2  C   UNL     1       1.152   4.435  20.278  0.00  0.00    -0.040 A 
ATOM      3  C   UNL     1       1.482   3.356  19.450  0.00  0.00    -0.058 A 
ATOM      4  C   UNL     1       2.635   3.397  18.669  0.00  0.00    -0.035 A 
ATOM      5  C   UNL     1       3.457   4.523  18.732  0.00  0.00    +0.107 A 
ATOM      6  C   UNL     1       3.125   5.610  19.549  0.00  0.00    -0.014 A 
ATOM      7  H   UNL     1       0.242   4.357  20.867  0.00  0.00    +0.064 HD
ATOM      8  H   UNL     1       0.831   2.485  19.416  0.00  0.00    +0.062 HD
ATOM      9  H   UNL     1       2.881   2.559  18.022  0.00  0.00    +0.064 HD
ATOM     10  H   UNL     1       3.773   6.482  19.568  0.00  0.00    +0.066 HD
ENDROOT
BRANCH   1  13
ATOM     11  C   UNL     1       1.526   8.009  20.714  0.00  0.00    +0.214 C 
ATOM     12  O   UNL     1       1.594   8.431  19.566  0.00  0.00    -0.276 OA
ATOM     13  N   UNL     1       1.693   6.700  21.133  0.00  0.00    -0.286 N 
ATOM     14  H   UNL     1       1.623   6.531  22.128  0.00  0.00    +0.155 HD
BRANCH  11  15
ATOM     15  C   UNL     1       1.262   8.945  21.868  0.00  0.00    +0.012 C 
ATOM     16  H   UNL     1       2.171   9.046  22.467  0.00  0.00    +0.032 HD
ATOM     17  H   UNL     1       0.447   8.573  22.494  0.00  0.00    +0.032 HD
ATOM     18  H   UNL     1       0.972   9.926  21.480  0.00  0.00    +0.032 HD
ENDBRANCH  11  15
ENDBRANCH   1  13
BRANCH   5  19
ATOM     19  S   UNL     1       4.906   4.597  17.724  0.00  0.00    +0.056 S 
ATOM     20  O   UNL     1       5.283   5.979  17.537  0.00  0.00    -0.153 OA
ATOM     21  O   UNL     1       4.767   3.675  16.622  0.00  0.00    -0.153 OA
BRANCH  19  22
ATOM     22  N   UNL     1       6.070   3.941  18.740  0.00  0.00    -0.204 NA
ATOM     23  H   UNL     1       6.991   4.021  18.311  0.00  0.00    +0.144 HD
ATOM     24  H   UNL     1       5.814   2.985  18.988  0.00  0.00    +0.144 HD
ENDBRANCH  19  22
ENDBRANCH   5  19
TORSDOF 4
ENDMDL
MODEL 15
REMARK VINA RESULT:    -5.635      3.644      5.228
REMARK INTER + INTRA:          -6.487
REMARK INTER:                  -6.366
REMARK INTRA:                  -0.121
REMARK UNBOUND:                 0.136
REMARK  Name = 
REMARK  4 active torsions:
REMARK  status: ('A' for Active; 'I' for Inactive)
REMARK    1  A    between atoms: C_1  and  C_2
REMARK    2  A    between atoms: N_4  and  C_5
REMARK    3  A    between atoms: C_9  and  S_11
REMARK    4  A    between atoms: S_11  and  N_14
REMARK                            x       y       z     vdW  Elec       q    Type
REMARK                         _______ _______ _______ _____ _____    ______ ____
ROOT
ATOM      1  C   UNL     1       3.366   6.108  18.372  0.00  0.00    +0.035 A 
ATOM      2  C   UNL     1       4.730   5.828  18.244  0.00  0.00    -0.040 A 
ATOM      3  C   UNL     1       5.261   4.621  18.714  0.00  0.00    -0.058 A 
ATOM      4  C   UNL     1       4.433   3.676  19.314  0.00  0.00    -0.035 A 
ATOM      5  C   UNL     1       3.069   3.946  19.429  0.00  0.00    +0.107 A 
ATOM      6  C   UNL     1       2.534   5.157  18.972  0.00  0.00    -0.014 A 
ATOM      7  H   UNL     1       5.416   6.535  17.786  0.00  0.00    +0.064 HD
ATOM      8  H   UNL     1       6.327   4.427  18.612  0.00  0.00    +0.062 HD
ATOM      9  H   UNL     1       4.853   2.744  19.684  0.00  0.00    +0.064 HD
ATOM     10  H   UNL     1       1.471   5.349  19.089  0.00  0.00    +0.066 HD
ENDROOT
BRANCH   1  13
ATOM     11  C   UNL     1       2.083   8.236  18.701  0.00  0.00    +0.214 C 
ATOM     12  O   UNL     1       1.874   8.188  19.907  0.00  0.00    -0.276 OA
ATOM     13  N   UNL     1       2.760   7.304  17.933  0.00  0.00    -0.286 N 
ATOM     14  H   UNL     1       2.822   7.495  16.941  0.00  0.00    +0.155 HD
BRANCH  11  15
ATOM     15  C   UNL     1       1.560   9.383  17.872  0.00  0.00    +0.012 C 
ATOM     16  H   UNL     1       0.697   9.829  18.374  0.00  0.00    +0.032 HD
ATOM     17  H   UNL     1       1.271   9.043  16.873  0.00  0.00    +0.032 HD
ATOM     18  H   UNL     1       2.344  10.137  17.759  0.00  0.00    +0.032 HD
ENDBRANCH  11  15
ENDBRANCH   1  13
BRANCH   5  19
ATOM     19  S   UNL     1       2.014   2.765  20.214  0.00  0.00    +0.056 S 
ATOM     20  O   UNL     1       2.485   2.528  21.559  0.00  0.00    -0.153 OA
ATOM     21  O   UNL     1       1.731   1.692  19.291  0.00  0.00    -0.153 OA
BRANCH  19  22
ATOM     22  N   UNL     1       0.585   3.631  20.377  0.00  0.00    -0.204 NA
ATOM     23  H   UNL     1      -0.208   2.991  20.409  0.00  0.00    +0.144 HD
ATOM     24  H   UNL     1       0.518   4.332  19.639  0.00  0.00    +0.144 HD
ENDBRANCH  19  22
ENDBRANCH   5  19
TORSDOF 4
ENDMDL
MODEL 16
REMARK VINA RESULT:    -5.612      2.934      3.095
REMARK INTER + INTRA:          -6.460
REMARK INTER:                  -6.325
REMARK INTRA:                  -0.135
REMARK UNBOUND:                 0.136
REMARK  Name = 
REMARK  4 active torsions:
REMARK  status: ('A' for Active; 'I' for Inactive)
REMARK    1  A    between atoms: C_1  and  C_2
REMARK    2  A    between atoms: N_4  and  C_5
REMARK    3  A    between atoms: C_9  and  S_11
REMARK    4  A    between atoms: S_11  and  N_14
REMARK                            x       y       z     vdW  Elec       q    Type
REMARK                         _______ _______ _______ _____ _____    ______ ____
ROOT
ATOM      1  C   UNL     1       4.074   3.840  18.557  0.00  0.00    +0.035 A 
ATOM      2  C   UNL     1       4.870   4.419  19.550  0.00  0.00    -0.040 A 
ATOM      3  C   UNL     1       6.015   5.151  19.214  0.00  0.00    -0.058 A 
ATOM      4  C   UNL     1       6.375   5.318  17.879  0.00  0.00    -0.035 A 
ATOM      5  C   UNL     1       5.574   4.755  16.885  0.00  0.00    +0.107 A 
ATOM      6  C   UNL     1       4.434   4.011  17.216  0.00  0.00    -0.014 A 
ATOM      7  H   UNL     1       4.632   4.314  20.605  0.00  0.00    +0.064 HD
ATOM      8  H   UNL     1       6.626   5.586  20.003  0.00  0.00    +0.062 HD
ATOM      9  H   UNL     1       7.270   5.881  17.625  0.00  0.00    +0.064 HD
ATOM     10  H   UNL     1       3.836   3.569  16.424  0.00  0.00    +0.066 HD
ENDROOT
BRANCH   1  13
ATOM     11  C   UNL     1       1.618   3.359  18.418  0.00  0.00    +0.214 C 
ATOM     12  O   UNL     1       1.236   4.324  17.767  0.00  0.00    -0.276 OA
ATOM     13  N   UNL     1       2.914   3.081  18.818  0.00  0.00    -0.286 N 
ATOM     14  H   UNL     1       3.047   2.244  19.371  0.00  0.00    +0.155 HD
BRANCH  11  15
ATOM     15  C   UNL     1       0.638   2.318  18.902  0.00  0.00    +0.012 C 
ATOM     16  H   UNL     1       0.013   2.748  19.689  0.00  0.00    +0.032 HD
ATOM     17  H   UNL     1       1.162   1.438  19.286  0.00  0.00    +0.032 HD
ATOM     18  H   UNL     1       0.005   2.000  18.069  0.00  0.00    +0.032 HD
ENDBRANCH  11  15
ENDBRANCH   1  13
BRANCH   5  19
ATOM     19  S   UNL     1       6.036   4.937  15.190  0.00  0.00    +0.056 S 
ATOM     20  O   UNL     1       5.264   6.006  14.600  0.00  0.00    -0.153 OA
ATOM     21  O   UNL     1       6.143   3.632  14.583  0.00  0.00    -0.153 OA
BRANCH  19  22
ATOM     22  N   UNL     1       7.603   5.524  15.318  0.00  0.00    -0.204 NA
ATOM     23  H   UNL     1       7.949   5.389  16.268  0.00  0.00    +0.144 HD
ATOM     24  H   UNL     1       7.637   6.493  15.002  0.00  0.00    +0.144 HD
ENDBRANCH  19  22
ENDBRANCH   5  19
TORSDOF 4
ENDMDL
MODEL 17
REMARK VINA RESULT:    -5.599      3.393      5.640
REMARK INTER + INTRA:          -6.445
REMARK INTER:                  -6.488
REMARK INTRA:                   0.043
REMARK UNBOUND:                 0.136
REMARK  Name = 
REMARK  4 active torsions:
REMARK  status: ('A' for Active; 'I' for Inactive)
REMARK    1  A    between atoms: C_1  and  C_2
REMARK    2  A    between atoms: N_4  and  C_5
REMARK    3  A    between atoms: C_9  and  S_11
REMARK    4  A    between atoms: S_11  and  N_14
REMARK                            x       y       z     vdW  Elec       q    Type
REMARK                         _______ _______ _______ _____ _____    ______ ____
ROOT
ATOM      1  C   UNL     1       6.758   5.479  16.658  0.00  0.00    +0.035 A 
ATOM      2  C   UNL     1       7.554   5.713  17.783  0.00  0.00    -0.040 A 
ATOM      3  C   UNL     1       7.021   5.609  19.073  0.00  0.00    -0.058 A 
ATOM      4  C   UNL     1       5.684   5.263  19.254  0.00  0.00    -0.035 A 
ATOM      5  C   UNL     1       4.891   5.012  18.135  0.00  0.00    +0.107 A 
ATOM      6  C   UNL     1       5.415   5.128  16.841  0.00  0.00    -0.014 A 
ATOM      7  H   UNL     1       8.601   5.989  17.693  0.00  0.00    +0.064 HD
ATOM      8  H   UNL     1       7.656   5.805  19.935  0.00  0.00    +0.062 HD
ATOM      9  H   UNL     1       5.274   5.191  20.259  0.00  0.00    +0.064 HD
ATOM     10  H   UNL     1       4.772   4.944  15.985  0.00  0.00    +0.066 HD
ENDROOT
BRANCH   1  13
ATOM     11  C   UNL     1       6.984   4.692  14.289  0.00  0.00    +0.214 C 
ATOM     12  O   UNL     1       6.335   3.654  14.334  0.00  0.00    -0.276 OA
ATOM     13  N   UNL     1       7.220   5.575  15.329  0.00  0.00    -0.286 N 
ATOM     14  H   UNL     1       7.799   6.378  15.118  0.00  0.00    +0.155 HD
BRANCH  11  15
ATOM     15  C   UNL     1       7.660   5.125  13.012  0.00  0.00    +0.012 C 
ATOM     16  H   UNL     1       7.141   4.680  12.159  0.00  0.00    +0.032 HD
ATOM     17  H   UNL     1       8.711   4.822  13.003  0.00  0.00    +0.032 HD
ATOM     18  H   UNL     1       7.620   6.215  12.931  0.00  0.00    +0.032 HD
ENDBRANCH  11  15
ENDBRANCH   1  13
BRANCH   5  19
ATOM     19  S   UNL     1       3.187   4.600  18.352  0.00  0.00    +0.056 S 
ATOM     20  O   UNL     1       2.373   5.734  17.981  0.00  0.00    -0.153 OA
ATOM     21  O   UNL     1       3.022   3.905  19.607  0.00  0.00    -0.153 OA
BRANCH  19  22
ATOM     22  N   UNL     1       2.950   3.455  17.149  0.00  0.00    -0.204 NA
ATOM     23  H   UNL     1       2.982   3.900  16.232  0.00  0.00    +0.144 HD
ATOM     24  H   UNL     1       2.087   2.940  17.325  0.00  0.00    +0.144 HD
ENDBRANCH  19  22
ENDBRANCH   5  19
TORSDOF 4
ENDMDL
MODEL 18
REMARK VINA RESULT:    -5.584      3.288      4.552
REMARK INTER + INTRA:          -6.428
REMARK INTER:                  -6.328
REMARK INTRA:                  -0.099
REMARK UNBOUND:                 0.136
REMARK  Name = 
REMARK  4 active torsions:
REMARK  status: ('A' for Active; 'I' for Inactive)
REMARK    1  A    between atoms: C_1  and  C_2
REMARK    2  A    between atoms: N_4  and  C_5
REMARK    3  A    between atoms: C_9  and  S_11
REMARK    4  A    between atoms: S_11  and  N_14
REMARK                            x       y       z     vdW  Elec       q    Type
REMARK                         _______ _______ _______ _____ _____    ______ ____
ROOT
ATOM      1  C   UNL     1       4.021   6.532  17.750  0.00  0.00    +0.035 A 
ATOM      2  C   UNL     1       5.397   6.636  17.523  0.00  0.00    -0.040 A 
ATOM      3  C   UNL     1       6.247   5.548  17.757  0.00  0.00    -0.058 A 
ATOM      4  C   UNL     1       5.729   4.340  18.216  0.00  0.00    -0.035 A 
ATOM      5  C   UNL     1       4.354   4.227  18.428  0.00  0.00    +0.107 A 
ATOM      6  C   UNL     1       3.502   5.316  18.208  0.00  0.00    -0.014 A 
ATOM      7  H   UNL     1       5.848   7.559  17.168  0.00  0.00    +0.064 HD
ATOM      8  H   UNL     1       7.315   5.654  17.583  0.00  0.00    +0.062 HD
ATOM      9  H   UNL     1       6.395   3.501  18.404  0.00  0.00    +0.064 HD
ATOM     10  H   UNL     1       2.437   5.207  18.397  0.00  0.00    +0.066 HD
ENDROOT
BRANCH   1  13
ATOM     11  C   UNL     1       2.256   8.154  18.481  0.00  0.00    +0.214 C 
ATOM     12  O   UNL     1       2.135   7.839  19.659  0.00  0.00    -0.276 OA
ATOM     13  N   UNL     1       3.105   7.585  17.547  0.00  0.00    -0.286 N 
ATOM     14  H   UNL     1       3.060   7.959  16.608  0.00  0.00    +0.155 HD
BRANCH  11  15
ATOM     15  C   UNL     1       1.410   9.252  17.885  0.00  0.00    +0.012 C 
ATOM     16  H   UNL     1       1.973  10.190  17.897  0.00  0.00    +0.032 HD
ATOM     17  H   UNL     1       0.479   9.375  18.445  0.00  0.00    +0.032 HD
ATOM     18  H   UNL     1       1.155   8.995  16.853  0.00  0.00    +0.032 HD
ENDBRANCH  11  15
ENDBRANCH   1  13
BRANCH   5  19
ATOM     19  S   UNL     1       3.691   2.707  19.037  0.00  0.00    +0.056 S 
ATOM     20  O   UNL     1       3.452   1.815  17.926  0.00  0.00    -0.153 OA
ATOM     21  O   UNL     1       2.686   2.992  20.033  0.00  0.00    -0.153 OA
BRANCH  19  22
ATOM     22  N   UNL     1       5.001   2.063  19.865  0.00  0.00    -0.204 NA
ATOM     23  H   UNL     1       4.880   1.058  19.982  0.00  0.00    +0.144 HD
ATOM     24  H   UNL     1       5.137   2.565  20.743  0.00  0.00    +0.144 HD
ENDBRANCH  19  22
ENDBRANCH   5  19
TORSDOF 4
ENDMDL
MODEL 19
REMARK VINA RESULT:    -5.541      2.499      4.982
REMARK INTER + INTRA:          -6.376
REMARK INTER:                  -6.151
REMARK INTRA:                  -0.225
REMARK UNBOUND:                 0.136
REMARK  Name = 
REMARK  4 active torsions:
REMARK  status: ('A' for Active; 'I' for Inactive)
REMARK    1  A    between atoms: C_1  and  C_2
REMARK    2  A    between atoms: N_4  and  C_5
REMARK    3  A    between atoms: C_9  and  S_11
REMARK    4  A    between atoms: S_11  and  N_14
REMARK                            x       y       z     vdW  Elec       q    Type
REMARK                         _______ _______ _______ _____ _____    ______ ____
ROOT
ATOM      1  C   UNL     1       4.398   5.972  18.170  0.00  0.00    +0.035 A 
ATOM      2  C   UNL     1       3.155   6.500  17.805  0.00  0.00    -0.040 A 
ATOM      3  C   UNL     1       1.997   5.716  17.865  0.00  0.00    -0.058 A 
ATOM      4  C   UNL     1       2.067   4.394  18.297  0.00  0.00    -0.035 A 
ATOM      5  C   UNL     1       3.302   3.868  18.677  0.00  0.00    +0.107 A 
ATOM      6  C   UNL     1       4.466   4.644  18.606  0.00  0.00    -0.014 A 
ATOM      7  H   UNL     1       3.051   7.524  17.458  0.00  0.00    +0.064 HD
ATOM      8  H   UNL     1       1.042   6.143  17.568  0.00  0.00    +0.062 HD
ATOM      9  H   UNL     1       1.165   3.787  18.334  0.00  0.00    +0.064 HD
ATOM     10  H   UNL     1       5.418   4.206  18.892  0.00  0.00    +0.066 HD
ENDROOT
BRANCH   1  13
ATOM     11  C   UNL     1       6.616   6.593  17.182  0.00  0.00    +0.214 C 
ATOM     12  O   UNL     1       6.648   5.845  16.214  0.00  0.00    -0.276 OA
ATOM     13  N   UNL     1       5.607   6.696  18.125  0.00  0.00    -0.286 N 
ATOM     14  H   UNL     1       5.756   7.358  18.876  0.00  0.00    +0.155 HD
BRANCH  11  15
ATOM     15  C   UNL     1       7.767   7.524  17.478  0.00  0.00    +0.012 C 
ATOM     16  H   UNL     1       7.678   7.894  18.503  0.00  0.00    +0.032 HD
ATOM     17  H   UNL     1       7.777   8.366  16.781  0.00  0.00    +0.032 HD
ATOM     18  H   UNL     1       8.710   6.981  17.368  0.00  0.00    +0.032 HD
ENDBRANCH  11  15
ENDBRANCH   1  13
BRANCH   5  19
ATOM     19  S   UNL     1       3.406   2.184  19.200  0.00  0.00    +0.056 S 
ATOM     20  O   UNL     1       3.522   1.333  18.038  0.00  0.00    -0.153 OA
ATOM     21  O   UNL     1       2.433   1.947  20.240  0.00  0.00    -0.153 OA
BRANCH  19  22
ATOM     22  N   UNL     1       4.908   2.144  19.947  0.00  0.00    -0.204 NA
ATOM     23  H   UNL     1       5.622   2.501  19.313  0.00  0.00    +0.144 HD
ATOM     24  H   UNL     1       5.099   1.202  20.291  0.00  0.00    +0.144 HD
ENDBRANCH  19  22
ENDBRANCH   5  19
TORSDOF 4
ENDMDL
MODEL 20
REMARK VINA RESULT:    -5.499      4.666      5.546
REMARK INTER + INTRA:          -6.327
REMARK INTER:                  -6.070
REMARK INTRA:                  -0.257
REMARK UNBOUND:                 0.136
REMARK  Name = 
REMARK  4 active torsions:
REMARK  status: ('A' for Active; 'I' for Inactive)
REMARK    1  A    between atoms: C_1  and  C_2
REMARK    2  A    between atoms: N_4  and  C_5
REMARK    3  A    between atoms: C_9  and  S_11
REMARK    4  A    between atoms: S_11  and  N_14
REMARK                            x       y       z     vdW  Elec       q    Type
REMARK                         _______ _______ _______ _____ _____    ______ ____
ROOT
ATOM      1  C   UNL     1       2.305   6.656  19.880  0.00  0.00    +0.035 A 
ATOM      2  C   UNL     1       2.861   6.774  18.603  0.00  0.00    -0.040 A 
ATOM      3  C   UNL     1       2.644   7.920  17.829  0.00  0.00    -0.058 A 
ATOM      4  C   UNL     1       1.871   8.967  18.327  0.00  0.00    -0.035 A 
ATOM      5  C   UNL     1       1.327   8.859  19.607  0.00  0.00    +0.107 A 
ATOM      6  C   UNL     1       1.531   7.709  20.380  0.00  0.00    -0.014 A 
ATOM      7  H   UNL     1       3.469   5.984  18.171  0.00  0.00    +0.064 HD
ATOM      8  H   UNL     1       3.079   7.988  16.834  0.00  0.00    +0.062 HD
ATOM      9  H   UNL     1       1.700   9.851  17.718  0.00  0.00    +0.064 HD
ATOM     10  H   UNL     1       1.082   7.643  21.368  0.00  0.00    +0.066 HD
ENDROOT
BRANCH   1  13
ATOM     11  C   UNL     1       1.701   4.379  20.735  0.00  0.00    +0.214 C 
ATOM     12  O   UNL     1       0.724   4.130  20.039  0.00  0.00    -0.276 OA
ATOM     13  N   UNL     1       2.470   5.529  20.712  0.00  0.00    -0.286 N 
ATOM     14  H   UNL     1       3.234   5.576  21.375  0.00  0.00    +0.155 HD
BRANCH  11  15
ATOM     15  C   UNL     1       2.178   3.397  21.777  0.00  0.00    +0.012 C 
ATOM     16  H   UNL     1       1.835   3.721  22.763  0.00  0.00    +0.032 HD
ATOM     17  H   UNL     1       3.269   3.321  21.772  0.00  0.00    +0.032 HD
ATOM     18  H   UNL     1       1.768   2.407  21.557  0.00  0.00    +0.032 HD
ENDBRANCH  11  15
ENDBRANCH   1  13
BRANCH   5  19
ATOM     19  S   UNL     1       0.322  10.168  20.236  0.00  0.00    +0.056 S 
ATOM     20  O   UNL     1      -0.793  10.382  19.343  0.00  0.00    -0.153 OA
ATOM     21  O   UNL     1       1.170  11.245  20.689  0.00  0.00    -0.153 OA
BRANCH  19  22
ATOM     22  N   UNL     1      -0.329   9.473  21.618  0.00  0.00    -0.204 NA
ATOM     23  H   UNL     1       0.351   9.504  22.377  0.00  0.00    +0.144 HD
ATOM     24  H   UNL     1      -0.666   8.533  21.408  0.00  0.00    +0.144 HD
ENDBRANCH  19  22
ENDBRANCH   5  19
TORSDOF 4
ENDMDL
MODEL 21
REMARK VINA RESULT:    -5.493      4.707      5.422
REMARK INTER + INTRA:          -6.320
REMARK INTER:                  -6.068
REMARK INTRA:                  -0.252
REMARK UNBOUND:                 0.136
REMARK  Name = 
REMARK  4 active torsions:
REMARK  status: ('A' for Active; 'I' for Inactive)
REMARK    1  A    between atoms: C_1  and  C_2
REMARK    2  A    between atoms: N_4  and  C_5
REMARK    3  A    between atoms: C_9  and  S_11
REMARK    4  A    between atoms: S_11  and  N_14
REMARK                            x       y       z     vdW  Elec       q    Type
REMARK                         _______ _______ _______ _____ _____    ______ ____
ROOT
ATOM      1  C   UNL     1       2.352   6.584  19.848  0.00  0.00    +0.035 A 
ATOM      2  C   UNL     1       2.892   6.643  18.560  0.00  0.00    -0.040 A 
ATOM      3  C   UNL     1       2.720   7.780  17.761  0.00  0.00    -0.058 A 
ATOM      4  C   UNL     1       2.008   8.875  18.244  0.00  0.00    -0.035 A 
ATOM      5  C   UNL     1       1.481   8.826  19.535  0.00  0.00    +0.107 A 
ATOM      6  C   UNL     1       1.639   7.687  20.333  0.00  0.00    -0.014 A 
ATOM      7  H   UNL     1       3.452   5.813  18.139  0.00  0.00    +0.064 HD
ATOM      8  H   UNL     1       3.141   7.801  16.758  0.00  0.00    +0.062 HD
ATOM      9  H   UNL     1       1.871   9.752  17.615  0.00  0.00    +0.064 HD
ATOM     10  H   UNL     1       1.204   7.667  21.329  0.00  0.00    +0.066 HD
ENDROOT
BRANCH   1  13
ATOM     11  C   UNL     1       1.739   4.299  20.675  0.00  0.00    +0.214 C 
ATOM     12  O   UNL     1       0.834   4.014  19.899  0.00  0.00    -0.276 OA
ATOM     13  N   UNL     1       2.474   5.471  20.706  0.00  0.00    -0.286 N 
ATOM     14  H   UNL     1       3.175   5.547  21.432  0.00  0.00    +0.155 HD
BRANCH  11  15
ATOM     15  C   UNL     1       2.149   3.342  21.767  0.00  0.00    +0.012 C 
ATOM     16  H   UNL     1       3.240   3.295  21.816  0.00  0.00    +0.032 HD
ATOM     17  H   UNL     1       1.744   2.343  21.582  0.00  0.00    +0.032 HD
ATOM     18  H   UNL     1       1.757   3.695  22.725  0.00  0.00    +0.032 HD
ENDBRANCH  11  15
ENDBRANCH   1  13
BRANCH   5  19
ATOM     19  S   UNL     1       0.553  10.199  20.146  0.00  0.00    +0.056 S 
ATOM     20  O   UNL     1       0.884  10.414  21.536  0.00  0.00    -0.153 OA
ATOM     21  O   UNL     1      -0.810  10.098  19.680  0.00  0.00    -0.153 OA
BRANCH  19  22
ATOM     22  N   UNL     1       1.239  11.482  19.310  0.00  0.00    -0.204 NA
ATOM     23  H   UNL     1       1.906  11.134  18.623  0.00  0.00    +0.144 HD
ATOM     24  H   UNL     1       1.640  12.151  19.969  0.00  0.00    +0.144 HD
ENDBRANCH  19  22
ENDBRANCH   5  19
TORSDOF 4
ENDMDL
MODEL 22
REMARK VINA RESULT:    -5.349      2.890      3.287
REMARK INTER + INTRA:          -6.151
REMARK INTER:                  -6.006
REMARK INTRA:                  -0.145
REMARK UNBOUND:                 0.136
REMARK  Name = 
REMARK  4 active torsions:
REMARK  status: ('A' for Active; 'I' for Inactive)
REMARK    1  A    between atoms: C_1  and  C_2
REMARK    2  A    between atoms: N_4  and  C_5
REMARK    3  A    between atoms: C_9  and  S_11
REMARK    4  A    between atoms: S_11  and  N_14
REMARK                            x       y       z     vdW  Elec       q    Type
REMARK                         _______ _______ _______ _____ _____    ______ ____
ROOT
ATOM      1  C   UNL     1       4.117   3.745  18.502  0.00  0.00    +0.035 A 
ATOM      2  C   UNL     1       4.923   4.292  19.505  0.00  0.00    -0.040 A 
ATOM      3  C   UNL     1       6.054   5.051  19.182  0.00  0.00    -0.058 A 
ATOM      4  C   UNL     1       6.389   5.278  17.849  0.00  0.00    -0.035 A 
ATOM      5  C   UNL     1       5.579   4.747  16.846  0.00  0.00    +0.107 A 
ATOM      6  C   UNL     1       4.454   3.976  17.163  0.00  0.00    -0.014 A 
ATOM      7  H   UNL     1       4.703   4.140  20.558  0.00  0.00    +0.064 HD
ATOM      8  H   UNL     1       6.672   5.461  19.978  0.00  0.00    +0.062 HD
ATOM      9  H   UNL     1       7.273   5.863  17.605  0.00  0.00    +0.064 HD
ATOM     10  H   UNL     1       3.848   3.560  16.362  0.00  0.00    +0.066 HD
ENDROOT
BRANCH   1  13
ATOM     11  C   UNL     1       1.660   3.259  18.418  0.00  0.00    +0.214 C 
ATOM     12  O   UNL     1       1.251   4.267  17.855  0.00  0.00    -0.276 OA
ATOM     13  N   UNL     1       2.971   2.961  18.749  0.00  0.00    -0.286 N 
ATOM     14  H   UNL     1       3.127   2.087  19.233  0.00  0.00    +0.155 HD
BRANCH  11  15
ATOM     15  C   UNL     1       0.703   2.179  18.860  0.00  0.00    +0.012 C 
ATOM     16  H   UNL     1      -0.261   2.631  19.112  0.00  0.00    +0.032 HD
ATOM     17  H   UNL     1       1.096   1.641  19.727  0.00  0.00    +0.032 HD
ATOM     18  H   UNL     1       0.565   1.460  18.048  0.00  0.00    +0.032 HD
ENDBRANCH  11  15
ENDBRANCH   1  13
BRANCH   5  19
ATOM     19  S   UNL     1       6.011   5.005  15.152  0.00  0.00    +0.056 S 
ATOM     20  O   UNL     1       5.233   4.114  14.323  0.00  0.00    -0.153 OA
ATOM     21  O   UNL     1       7.446   5.115  15.039  0.00  0.00    -0.153 OA
BRANCH  19  22
ATOM     22  N   UNL     1       5.401   6.542  14.868  0.00  0.00    -0.204 NA
ATOM     23  H   UNL     1       5.017   6.596  13.925  0.00  0.00    +0.144 HD
ATOM     24  H   UNL     1       6.120   7.241  15.059  0.00  0.00    +0.144 HD
ENDBRANCH  19  22
ENDBRANCH   5  19
TORSDOF 4
ENDMDL
MODEL 23
REMARK VINA RESULT:    -5.159      4.582      5.686
REMARK INTER + INTRA:          -5.928
REMARK INTER:                  -5.673
REMARK INTRA:                  -0.255
REMARK UNBOUND:                 0.136
REMARK  Name = 
REMARK  4 active torsions:
REMARK  status: ('A' for Active; 'I' for Inactive)
REMARK    1  A    between atoms: C_1  and  C_2
REMARK    2  A    between atoms: N_4  and  C_5
REMARK    3  A    between atoms: C_9  and  S_11
REMARK    4  A    between atoms: S_11  and  N_14
REMARK                            x       y       z     vdW  Elec       q    Type
REMARK                         _______ _______ _______ _____ _____    ______ ____
ROOT
ATOM      1  C   UNL     1       2.606   7.086  18.806  0.00  0.00    +0.035 A 
ATOM      2  C   UNL     1       2.583   7.991  17.740  0.00  0.00    -0.040 A 
ATOM      3  C   UNL     1       1.929   9.223  17.858  0.00  0.00    -0.058 A 
ATOM      4  C   UNL     1       1.293   9.568  19.048  0.00  0.00    -0.035 A 
ATOM      5  C   UNL     1       1.328   8.675  20.120  0.00  0.00    +0.107 A 
ATOM      6  C   UNL     1       1.970   7.436  20.002  0.00  0.00    -0.014 A 
ATOM      7  H   UNL     1       3.062   7.765  16.791  0.00  0.00    +0.064 HD
ATOM      8  H   UNL     1       1.915   9.908  17.013  0.00  0.00    +0.062 HD
ATOM      9  H   UNL     1       0.780  10.523  19.132  0.00  0.00    +0.064 HD
ATOM     10  H   UNL     1       1.968   6.751  20.846  0.00  0.00    +0.066 HD
ENDROOT
BRANCH   1  13
ATOM     11  C   UNL     1       2.733   4.654  18.215  0.00  0.00    +0.214 C 
ATOM     12  O   UNL     1       1.641   4.495  17.683  0.00  0.00    -0.276 OA
ATOM     13  N   UNL     1       3.234   5.825  18.758  0.00  0.00    -0.286 N 
ATOM     14  H   UNL     1       4.154   5.771  19.178  0.00  0.00    +0.155 HD
BRANCH  11  15
ATOM     15  C   UNL     1       3.693   3.500  18.366  0.00  0.00    +0.012 C 
ATOM     16  H   UNL     1       4.542   3.814  18.980  0.00  0.00    +0.032 HD
ATOM     17  H   UNL     1       4.050   3.159  17.390  0.00  0.00    +0.032 HD
ATOM     18  H   UNL     1       3.183   2.664  18.852  0.00  0.00    +0.032 HD
ENDBRANCH  11  15
ENDBRANCH   1  13
BRANCH   5  19
ATOM     19  S   UNL     1       0.501   9.091  21.624  0.00  0.00    +0.056 S 
ATOM     20  O   UNL     1       1.477   9.225  22.681  0.00  0.00    -0.153 OA
ATOM     21  O   UNL     1      -0.681   8.273  21.760  0.00  0.00    -0.153 OA
BRANCH  19  22
ATOM     22  N   UNL     1      -0.042  10.646  21.304  0.00  0.00    -0.204 NA
ATOM     23  H   UNL     1      -0.986  10.614  20.921  0.00  0.00    +0.144 HD
ATOM     24  H   UNL     1       0.628  11.130  20.705  0.00  0.00    +0.144 HD
ENDBRANCH  19  22
ENDBRANCH   5  19
TORSDOF 4
ENDMDL
MODEL 24
REMARK VINA RESULT:    -5.152      2.732      2.947
REMARK INTER + INTRA:          -5.920
REMARK INTER:                  -5.675
REMARK INTRA:                  -0.244
REMARK UNBOUND:                 0.136
REMARK  Name = 
REMARK  4 active torsions:
REMARK  status: ('A' for Active; 'I' for Inactive)
REMARK    1  A    between atoms: C_1  and  C_2
REMARK    2  A    between atoms: N_4  and  C_5
REMARK    3  A    between atoms: C_9  and  S_11
REMARK    4  A    between atoms: S_11  and  N_14
REMARK                            x       y       z     vdW  Elec       q    Type
REMARK                         _______ _______ _______ _____ _____    ______ ____
ROOT
ATOM      1  C   UNL     1       3.516   3.377  18.885  0.00  0.00    +0.035 A 
ATOM      2  C   UNL     1       3.671   2.429  17.869  0.00  0.00    -0.040 A 
ATOM      3  C   UNL     1       4.228   2.785  16.635  0.00  0.00    -0.058 A 
ATOM      4  C   UNL     1       4.643   4.094  16.404  0.00  0.00    -0.035 A 
ATOM      5  C   UNL     1       4.504   5.039  17.422  0.00  0.00    +0.107 A 
ATOM      6  C   UNL     1       3.936   4.691  18.653  0.00  0.00    -0.014 A 
ATOM      7  H   UNL     1       3.359   1.396  18.001  0.00  0.00    +0.064 HD
ATOM      8  H   UNL     1       4.331   2.034  15.855  0.00  0.00    +0.062 HD
ATOM      9  H   UNL     1       5.068   4.366  15.441  0.00  0.00    +0.064 HD
ATOM     10  H   UNL     1       3.824   5.450  19.423  0.00  0.00    +0.066 HD
ENDROOT
BRANCH   1  13
ATOM     11  C   UNL     1       1.621   2.875  20.446  0.00  0.00    +0.214 C 
ATOM     12  O   UNL     1       0.676   2.892  19.666  0.00  0.00    -0.276 OA
ATOM     13  N   UNL     1       2.954   3.096  20.148  0.00  0.00    -0.286 N 
ATOM     14  H   UNL     1       3.603   3.063  20.924  0.00  0.00    +0.155 HD
BRANCH  11  15
ATOM     15  C   UNL     1       1.402   2.619  21.917  0.00  0.00    +0.012 C 
ATOM     16  H   UNL     1       2.034   3.295  22.500  0.00  0.00    +0.032 HD
ATOM     17  H   UNL     1       1.637   1.582  22.173  0.00  0.00    +0.032 HD
ATOM     18  H   UNL     1       0.352   2.800  22.165  0.00  0.00    +0.032 HD
ENDBRANCH  11  15
ENDBRANCH   1  13
BRANCH   5  19
ATOM     19  S   UNL     1       5.001   6.709  17.130  0.00  0.00    +0.056 S 
ATOM     20  O   UNL     1       6.325   6.912  17.671  0.00  0.00    -0.153 OA
ATOM     21  O   UNL     1       3.899   7.593  17.426  0.00  0.00    -0.153 OA
BRANCH  19  22
ATOM     22  N   UNL     1       5.183   6.731  15.461  0.00  0.00    -0.204 NA
ATOM     23  H   UNL     1       6.069   6.300  15.202  0.00  0.00    +0.144 HD
ATOM     24  H   UNL     1       5.072   7.684  15.113  0.00  0.00    +0.144 HD
ENDBRANCH  19  22
ENDBRANCH   5  19
TORSDOF 4
ENDMDL
MODEL 25
REMARK VINA RESULT:    -5.138      4.397      5.259
REMARK INTER + INTRA:          -5.903
REMARK INTER:                  -5.864
REMARK INTRA:                  -0.039
REMARK UNBOUND:                 0.136
REMARK  Name = 
REMARK  4 active torsions:
REMARK  status: ('A' for Active; 'I' for Inactive)
REMARK    1  A    between atoms: C_1  and  C_2
REMARK    2  A    between atoms: N_4  and  C_5
REMARK    3  A    between atoms: C_9  and  S_11
REMARK    4  A    between atoms: S_11  and  N_14
REMARK                            x       y       z     vdW  Elec       q    Type
REMARK                         _______ _______ _______ _____ _____    ______ ____
ROOT
ATOM      1  C   UNL     1       1.030   8.943  19.952  0.00  0.00    +0.035 A 
ATOM      2  C   UNL     1       1.364   9.595  18.761  0.00  0.00    -0.040 A 
ATOM      3  C   UNL     1       2.196   8.983  17.817  0.00  0.00    -0.058 A 
ATOM      4  C   UNL     1       2.701   7.706  18.050  0.00  0.00    -0.035 A 
ATOM      5  C   UNL     1       2.357   7.045  19.230  0.00  0.00    +0.107 A 
ATOM      6  C   UNL     1       1.536   7.659  20.184  0.00  0.00    -0.014 A 
ATOM      7  H   UNL     1       0.997  10.593  18.536  0.00  0.00    +0.064 HD
ATOM      8  H   UNL     1       2.450   9.511  16.901  0.00  0.00    +0.062 HD
ATOM      9  H   UNL     1       3.353   7.238  17.316  0.00  0.00    +0.064 HD
ATOM     10  H   UNL     1       1.297   7.130  21.102  0.00  0.00    +0.066 HD
ENDROOT
BRANCH   1  13
ATOM     11  C   UNL     1       0.490   9.621  22.303  0.00  0.00    +0.214 C 
ATOM     12  O   UNL     1       1.507   9.257  22.881  0.00  0.00    -0.276 OA
ATOM     13  N   UNL     1       0.208   9.499  20.954  0.00  0.00    -0.286 N 
ATOM     14  H   UNL     1      -0.695   9.839  20.648  0.00  0.00    +0.155 HD
BRANCH  11  15
ATOM     15  C   UNL     1      -0.646  10.258  23.066  0.00  0.00    +0.012 C 
ATOM     16  H   UNL     1      -0.274  11.135  23.603  0.00  0.00    +0.032 HD
ATOM     17  H   UNL     1      -1.085   9.550  23.775  0.00  0.00    +0.032 HD
ATOM     18  H   UNL     1      -1.427  10.565  22.365  0.00  0.00    +0.032 HD
ENDBRANCH  11  15
ENDBRANCH   1  13
BRANCH   5  19
ATOM     19  S   UNL     1       3.015   5.437  19.548  0.00  0.00    +0.056 S 
ATOM     20  O   UNL     1       4.454   5.523  19.647  0.00  0.00    -0.153 OA
ATOM     21  O   UNL     1       2.353   4.475  18.700  0.00  0.00    -0.153 OA
BRANCH  19  22
ATOM     22  N   UNL     1       2.468   5.140  21.107  0.00  0.00    -0.204 NA
ATOM     23  H   UNL     1       1.903   5.923  21.433  0.00  0.00    +0.144 HD
ATOM     24  H   UNL     1       3.258   4.923  21.716  0.00  0.00    +0.144 HD
ENDBRANCH  19  22
ENDBRANCH   5  19
TORSDOF 4
ENDMDL
MODEL 26
REMARK VINA RESULT:    -5.123      4.010      6.269
REMARK INTER + INTRA:          -5.885
REMARK INTER:                  -6.054
REMARK INTRA:                   0.169
REMARK UNBOUND:                 0.136
REMARK  Name = 
REMARK  4 active torsions:
REMARK  status: ('A' for Active; 'I' for Inactive)
REMARK    1  A    between atoms: C_1  and  C_2
REMARK    2  A    between atoms: N_4  and  C_5
REMARK    3  A    between atoms: C_9  and  S_11
REMARK    4  A    between atoms: S_11  and  N_14
REMARK                            x       y       z     vdW  Elec       q    Type
REMARK                         _______ _______ _______ _____ _____    ______ ____
ROOT
ATOM      1  C   UNL     1       7.713   7.660  17.861  0.00  0.00    +0.035 A 
ATOM      2  C   UNL     1       8.266   6.911  18.904  0.00  0.00    -0.040 A 
ATOM      3  C   UNL     1       7.928   5.564  19.078  0.00  0.00    -0.058 A 
ATOM      4  C   UNL     1       7.037   4.946  18.204  0.00  0.00    -0.035 A 
ATOM      5  C   UNL     1       6.495   5.686  17.152  0.00  0.00    +0.107 A 
ATOM      6  C   UNL     1       6.820   7.037  16.982  0.00  0.00    -0.014 A 
ATOM      7  H   UNL     1       8.963   7.350  19.613  0.00  0.00    +0.064 HD
ATOM      8  H   UNL     1       8.363   5.002  19.902  0.00  0.00    +0.062 HD
ATOM      9  H   UNL     1       6.773   3.901  18.348  0.00  0.00    +0.064 HD
ATOM     10  H   UNL     1       6.371   7.595  16.164  0.00  0.00    +0.066 HD
ENDROOT
BRANCH   1  13
ATOM     11  C   UNL     1       8.724   9.880  18.437  0.00  0.00    +0.214 C 
ATOM     12  O   UNL     1       9.250   9.615  19.511  0.00  0.00    -0.276 OA
ATOM     13  N   UNL     1       7.996   9.022  17.630  0.00  0.00    -0.286 N 
ATOM     14  H   UNL     1       7.614   9.417  16.780  0.00  0.00    +0.155 HD
BRANCH  11  15
ATOM     15  C   UNL     1       8.800  11.273  17.862  0.00  0.00    +0.012 C 
ATOM     16  H   UNL     1       8.020  11.894  18.312  0.00  0.00    +0.032 HD
ATOM     17  H   UNL     1       8.676  11.255  16.776  0.00  0.00    +0.032 HD
ATOM     18  H   UNL     1       9.780  11.704  18.085  0.00  0.00    +0.032 HD
ENDBRANCH  11  15
ENDBRANCH   1  13
BRANCH   5  19
ATOM     19  S   UNL     1       5.342   4.919  16.055  0.00  0.00    +0.056 S 
ATOM     20  O   UNL     1       5.374   5.601  14.781  0.00  0.00    -0.153 OA
ATOM     21  O   UNL     1       4.112   4.658  16.763  0.00  0.00    -0.153 OA
BRANCH  19  22
ATOM     22  N   UNL     1       6.056   3.424  15.789  0.00  0.00    -0.204 NA
ATOM     23  H   UNL     1       5.648   2.985  14.965  0.00  0.00    +0.144 HD
ATOM     24  H   UNL     1       5.990   2.854  16.633  0.00  0.00    +0.144 HD
ENDBRANCH  19  22
ENDBRANCH   5  19
TORSDOF 4
ENDMDL
MODEL 27
REMARK VINA RESULT:    -5.109      2.272      2.501
REMARK INTER + INTRA:          -5.869
REMARK INTER:                  -5.629
REMARK INTRA:                  -0.240
REMARK UNBOUND:                 0.136
REMARK  Name = 
REMARK  4 active torsions:
REMARK  status: ('A' for Active; 'I' for Inactive)
REMARK    1  A    between atoms: C_1  and  C_2
REMARK    2  A    between atoms: N_4  and  C_5
REMARK    3  A    between atoms: C_9  and  S_11
REMARK    4  A    between atoms: S_11  and  N_14
REMARK                            x       y       z     vdW  Elec       q    Type
REMARK                         _______ _______ _______ _____ _____    ______ ____
ROOT
ATOM      1  C   UNL     1       4.299   4.002  16.827  0.00  0.00    +0.035 A 
ATOM      2  C   UNL     1       4.666   3.924  15.480  0.00  0.00    -0.040 A 
ATOM      3  C   UNL     1       5.942   4.319  15.061  0.00  0.00    -0.058 A 
ATOM      4  C   UNL     1       6.870   4.791  15.986  0.00  0.00    -0.035 A 
ATOM      5  C   UNL     1       6.512   4.856  17.333  0.00  0.00    +0.107 A 
ATOM      6  C   UNL     1       5.232   4.475  17.756  0.00  0.00    -0.014 A 
ATOM      7  H   UNL     1       3.976   3.565  14.721  0.00  0.00    +0.064 HD
ATOM      8  H   UNL     1       6.204   4.258  14.007  0.00  0.00    +0.062 HD
ATOM      9  H   UNL     1       7.857   5.104  15.653  0.00  0.00    +0.064 HD
ATOM     10  H   UNL     1       4.973   4.550  18.809  0.00  0.00    +0.066 HD
ENDROOT
BRANCH   1  13
ATOM     11  C   UNL     1       2.690   2.462  17.976  0.00  0.00    +0.214 C 
ATOM     12  O   UNL     1       3.428   1.520  18.237  0.00  0.00    -0.276 OA
ATOM     13  N   UNL     1       3.030   3.634  17.322  0.00  0.00    -0.286 N 
ATOM     14  H   UNL     1       2.285   4.301  17.172  0.00  0.00    +0.155 HD
BRANCH  11  15
ATOM     15  C   UNL     1       1.226   2.422  18.343  0.00  0.00    +0.012 C 
ATOM     16  H   UNL     1       0.911   1.381  18.461  0.00  0.00    +0.032 HD
ATOM     17  H   UNL     1       0.617   2.908  17.576  0.00  0.00    +0.032 HD
ATOM     18  H   UNL     1       1.074   2.955  19.286  0.00  0.00    +0.032 HD
ENDBRANCH  11  15
ENDBRANCH   1  13
BRANCH   5  19
ATOM     19  S   UNL     1       7.671   5.480  18.511  0.00  0.00    +0.056 S 
ATOM     20  O   UNL     1       7.855   6.896  18.290  0.00  0.00    -0.153 OA
ATOM     21  O   UNL     1       8.780   4.562  18.620  0.00  0.00    -0.153 OA
BRANCH  19  22
ATOM     22  N   UNL     1       6.812   5.350  19.947  0.00  0.00    -0.204 NA
ATOM     23  H   UNL     1       6.287   4.476  19.961  0.00  0.00    +0.144 HD
ATOM     24  H   UNL     1       6.233   6.180  20.080  0.00  0.00    +0.144 HD
ENDBRANCH  19  22
ENDBRANCH   5  19
TORSDOF 4
ENDMDL
MODEL 28
REMARK VINA RESULT:    -5.057      2.759      3.285
REMARK INTER + INTRA:          -5.807
REMARK INTER:                  -5.569
REMARK INTRA:                  -0.238
REMARK UNBOUND:                 0.136
REMARK  Name = 
REMARK  4 active torsions:
REMARK  status: ('A' for Active; 'I' for Inactive)
REMARK    1  A    between atoms: C_1  and  C_2
REMARK    2  A    between atoms: N_4  and  C_5
REMARK    3  A    between atoms: C_9  and  S_11
REMARK    4  A    between atoms: S_11  and  N_14
REMARK                            x       y       z     vdW  Elec       q    Type
REMARK                         _______ _______ _______ _____ _____    ______ ____
ROOT
ATOM      1  C   UNL     1       5.249   5.347  18.954  0.00  0.00    +0.035 A 
ATOM      2  C   UNL     1       6.508   5.457  19.554  0.00  0.00    -0.040 A 
ATOM      3  C   UNL     1       7.676   5.384  18.787  0.00  0.00    -0.058 A 
ATOM      4  C   UNL     1       7.601   5.207  17.408  0.00  0.00    -0.035 A 
ATOM      5  C   UNL     1       6.347   5.112  16.804  0.00  0.00    +0.107 A 
ATOM      6  C   UNL     1       5.175   5.171  17.568  0.00  0.00    -0.014 A 
ATOM      7  H   UNL     1       6.617   5.593  20.626  0.00  0.00    +0.064 HD
ATOM      8  H   UNL     1       8.645   5.464  19.275  0.00  0.00    +0.062 HD
ATOM      9  H   UNL     1       8.513   5.144  16.819  0.00  0.00    +0.064 HD
ATOM     10  H   UNL     1       4.211   5.078  17.075  0.00  0.00    +0.066 HD
ENDROOT
BRANCH   1  13
ATOM     11  C   UNL     1       3.239   4.333  20.056  0.00  0.00    +0.214 C 
ATOM     12  O   UNL     1       3.449   3.143  19.854  0.00  0.00    -0.276 OA
ATOM     13  N   UNL     1       4.030   5.399  19.661  0.00  0.00    -0.286 N 
ATOM     14  H   UNL     1       3.693   6.324  19.896  0.00  0.00    +0.155 HD
BRANCH  11  15
ATOM     15  C   UNL     1       1.996   4.786  20.781  0.00  0.00    +0.012 C 
ATOM     16  H   UNL     1       1.250   5.114  20.052  0.00  0.00    +0.032 HD
ATOM     17  H   UNL     1       2.223   5.605  21.470  0.00  0.00    +0.032 HD
ATOM     18  H   UNL     1       1.592   3.954  21.364  0.00  0.00    +0.032 HD
ENDBRANCH  11  15
ENDBRANCH   1  13
BRANCH   5  19
ATOM     19  S   UNL     1       6.241   4.858  15.059  0.00  0.00    +0.056 S 
ATOM     20  O   UNL     1       7.536   5.095  14.465  0.00  0.00    -0.153 OA
ATOM     21  O   UNL     1       5.035   5.477  14.560  0.00  0.00    -0.153 OA
BRANCH  19  22
ATOM     22  N   UNL     1       5.991   3.202  14.963  0.00  0.00    -0.204 NA
ATOM     23  H   UNL     1       6.280   2.858  14.048  0.00  0.00    +0.144 HD
ATOM     24  H   UNL     1       5.022   2.983  15.197  0.00  0.00    +0.144 HD
ENDBRANCH  19  22
ENDBRANCH   5  19
TORSDOF 4
ENDMDL
MODEL 29
REMARK VINA RESULT:    -5.041      4.595      5.965
REMARK INTER + INTRA:          -5.789
REMARK INTER:                  -5.554
REMARK INTRA:                  -0.235
REMARK UNBOUND:                 0.136
REMARK  Name = 
REMARK  4 active torsions:
REMARK  status: ('A' for Active; 'I' for Inactive)
REMARK    1  A    between atoms: C_1  and  C_2
REMARK    2  A    between atoms: N_4  and  C_5
REMARK    3  A    between atoms: C_9  and  S_11
REMARK    4  A    between atoms: S_11  and  N_14
REMARK                            x       y       z     vdW  Elec       q    Type
REMARK                         _______ _______ _______ _____ _____    ______ ____
ROOT
ATOM      1  C   UNL     1       2.901   6.581  18.408  0.00  0.00    +0.035 A 
ATOM      2  C   UNL     1       2.694   6.045  19.682  0.00  0.00    -0.040 A 
ATOM      3  C   UNL     1       1.971   6.753  20.650  0.00  0.00    -0.058 A 
ATOM      4  C   UNL     1       1.440   8.006  20.351  0.00  0.00    -0.035 A 
ATOM      5  C   UNL     1       1.631   8.537  19.075  0.00  0.00    +0.107 A 
ATOM      6  C   UNL     1       2.365   7.838  18.108  0.00  0.00    -0.014 A 
ATOM      7  H   UNL     1       3.091   5.073  19.963  0.00  0.00    +0.064 HD
ATOM      8  H   UNL     1       1.830   6.321  21.638  0.00  0.00    +0.062 HD
ATOM      9  H   UNL     1       0.886   8.554  21.110  0.00  0.00    +0.064 HD
ATOM     10  H   UNL     1       2.513   8.282  17.127  0.00  0.00    +0.066 HD
ENDROOT
BRANCH   1  13
ATOM     11  C   UNL     1       4.930   6.182  16.991  0.00  0.00    +0.214 C 
ATOM     12  O   UNL     1       5.694   7.022  17.451  0.00  0.00    -0.276 OA
ATOM     13  N   UNL     1       3.627   5.933  17.386  0.00  0.00    -0.286 N 
ATOM     14  H   UNL     1       3.131   5.211  16.880  0.00  0.00    +0.155 HD
BRANCH  11  15
ATOM     15  C   UNL     1       5.357   5.293  15.849  0.00  0.00    +0.012 C 
ATOM     16  H   UNL     1       4.925   5.668  14.917  0.00  0.00    +0.032 HD
ATOM     17  H   UNL     1       5.035   4.261  16.016  0.00  0.00    +0.032 HD
ATOM     18  H   UNL     1       6.448   5.300  15.773  0.00  0.00    +0.032 HD
ENDBRANCH  11  15
ENDBRANCH   1  13
BRANCH   5  19
ATOM     19  S   UNL     1       0.986  10.137  18.696  0.00  0.00    +0.056 S 
ATOM     20  O   UNL     1       1.173  11.006  19.834  0.00  0.00    -0.153 OA
ATOM     21  O   UNL     1      -0.288   9.992  18.032  0.00  0.00    -0.153 OA
BRANCH  19  22
ATOM     22  N   UNL     1       2.063  10.678  17.528  0.00  0.00    -0.204 NA
ATOM     23  H   UNL     1       2.516  11.535  17.842  0.00  0.00    +0.144 HD
ATOM     24  H   UNL     1       1.584  10.771  16.631  0.00  0.00    +0.144 HD
ENDBRANCH  19  22
ENDBRANCH   5  19
TORSDOF 4
ENDMDL
MODEL 30
REMARK VINA RESULT:    -4.972      7.733      8.930
REMARK INTER + INTRA:          -5.707
REMARK INTER:                  -5.470
REMARK INTRA:                  -0.237
REMARK UNBOUND:                 0.136
REMARK  Name = 
REMARK  4 active torsions:
REMARK  status: ('A' for Active; 'I' for Inactive)
REMARK    1  A    between atoms: C_1  and  C_2
REMARK    2  A    between atoms: N_4  and  C_5
REMARK    3  A    between atoms: C_9  and  S_11
REMARK    4  A    between atoms: S_11  and  N_14
REMARK                            x       y       z     vdW  Elec       q    Type
REMARK                         _______ _______ _______ _____ _____    ______ ____
ROOT
ATOM      1  C   UNL     1      -0.874  11.255  18.639  0.00  0.00    +0.035 A 
ATOM      2  C   UNL     1      -0.597  12.584  18.973  0.00  0.00    -0.040 A 
ATOM      3  C   UNL     1      -0.109  12.918  20.242  0.00  0.00    -0.058 A 
ATOM      4  C   UNL     1       0.114  11.924  21.191  0.00  0.00    -0.035 A 
ATOM      5  C   UNL     1      -0.147  10.595  20.857  0.00  0.00    +0.107 A 
ATOM      6  C   UNL     1      -0.648  10.257  19.593  0.00  0.00    -0.014 A 
ATOM      7  H   UNL     1      -0.757  13.394  18.267  0.00  0.00    +0.064 HD
ATOM      8  H   UNL     1       0.092  13.959  20.483  0.00  0.00    +0.062 HD
ATOM      9  H   UNL     1       0.486  12.191  22.178  0.00  0.00    +0.064 HD
ATOM     10  H   UNL     1      -0.858   9.216  19.363  0.00  0.00    +0.066 HD
ENDROOT
BRANCH   1  13
ATOM     11  C   UNL     1      -2.661  11.013  16.899  0.00  0.00    +0.214 C 
ATOM     12  O   UNL     1      -3.605  11.547  17.470  0.00  0.00    -0.276 OA
ATOM     13  N   UNL     1      -1.378  10.843  17.387  0.00  0.00    -0.286 N 
ATOM     14  H   UNL     1      -0.724  10.359  16.784  0.00  0.00    +0.155 HD
BRANCH  11  15
ATOM     15  C   UNL     1      -2.827  10.424  15.519  0.00  0.00    +0.012 C 
ATOM     16  H   UNL     1      -2.985  11.230  14.798  0.00  0.00    +0.032 HD
ATOM     17  H   UNL     1      -3.674   9.732  15.490  0.00  0.00    +0.032 HD
ATOM     18  H   UNL     1      -1.925   9.868  15.251  0.00  0.00    +0.032 HD
ENDBRANCH  11  15
ENDBRANCH   1  13
BRANCH   5  19
ATOM     19  S   UNL     1       0.106   9.330  22.064  0.00  0.00    +0.056 S 
ATOM     20  O   UNL     1       1.514   9.244  22.373  0.00  0.00    -0.153 OA
ATOM     21  O   UNL     1      -0.683   8.172  21.712  0.00  0.00    -0.153 OA
BRANCH  19  22
ATOM     22  N   UNL     1      -0.620   9.996  23.422  0.00  0.00    -0.204 NA
ATOM     23  H   UNL     1      -1.190   9.293  23.893  0.00  0.00    +0.144 HD
ATOM     24  H   UNL     1      -1.137  10.836  23.162  0.00  0.00    +0.144 HD
ENDBRANCH  19  22
ENDBRANCH   5  19
TORSDOF 4
ENDMDL
MODEL 31
REMARK VINA RESULT:    -4.954      3.198      4.963
REMARK INTER + INTRA:          -5.687
REMARK INTER:                  -5.823
REMARK INTRA:                   0.136
REMARK UNBOUND:                 0.136
REMARK  Name = 
REMARK  4 active torsions:
REMARK  status: ('A' for Active; 'I' for Inactive)
REMARK    1  A    between atoms: C_1  and  C_2
REMARK    2  A    between atoms: N_4  and  C_5
REMARK    3  A    between atoms: C_9  and  S_11
REMARK    4  A    between atoms: S_11  and  N_14
REMARK                            x       y       z     vdW  Elec       q    Type
REMARK                         _______ _______ _______ _____ _____    ______ ____
ROOT
ATOM      1  C   UNL     1       2.169   5.885  19.579  0.00  0.00    +0.035 A 
ATOM      2  C   UNL     1       1.902   5.526  20.904  0.00  0.00    -0.040 A 
ATOM      3  C   UNL     1       2.134   4.220  21.353  0.00  0.00    -0.058 A 
ATOM      4  C   UNL     1       2.641   3.258  20.483  0.00  0.00    -0.035 A 
ATOM      5  C   UNL     1       2.923   3.617  19.165  0.00  0.00    +0.107 A 
ATOM      6  C   UNL     1       2.681   4.918  18.707  0.00  0.00    -0.014 A 
ATOM      7  H   UNL     1       1.503   6.240  21.619  0.00  0.00    +0.064 HD
ATOM      8  H   UNL     1       1.911   3.960  22.386  0.00  0.00    +0.062 HD
ATOM      9  H   UNL     1       2.811   2.244  20.837  0.00  0.00    +0.064 HD
ATOM     10  H   UNL     1       2.894   5.168  17.671  0.00  0.00    +0.066 HD
ENDROOT
BRANCH   1  13
ATOM     11  C   UNL     1       2.721   7.842  18.114  0.00  0.00    +0.214 C 
ATOM     12  O   UNL     1       3.744   7.437  17.574  0.00  0.00    -0.276 OA
ATOM     13  N   UNL     1       1.952   7.175  19.051  0.00  0.00    -0.286 N 
ATOM     14  H   UNL     1       1.145   7.670  19.409  0.00  0.00    +0.155 HD
BRANCH  11  15
ATOM     15  C   UNL     1       2.179   9.216  17.807  0.00  0.00    +0.012 C 
ATOM     16  H   UNL     1       2.390   9.884  18.647  0.00  0.00    +0.032 HD
ATOM     17  H   UNL     1       1.101   9.179  17.626  0.00  0.00    +0.032 HD
ATOM     18  H   UNL     1       2.661   9.604  16.905  0.00  0.00    +0.032 HD
ENDBRANCH  11  15
ENDBRANCH   1  13
BRANCH   5  19
ATOM     19  S   UNL     1       3.540   2.397  18.046  0.00  0.00    +0.056 S 
ATOM     20  O   UNL     1       4.037   1.270  18.800  0.00  0.00    -0.153 OA
ATOM     21  O   UNL     1       4.317   3.045  17.016  0.00  0.00    -0.153 OA
BRANCH  19  22
ATOM     22  N   UNL     1       2.133   1.864  17.303  0.00  0.00    -0.204 NA
ATOM     23  H   UNL     1       1.767   1.048  17.794  0.00  0.00    +0.144 HD
ATOM     24  H   UNL     1       2.305   1.702  16.310  0.00  0.00    +0.144 HD
ENDBRANCH  19  22
ENDBRANCH   5  19
TORSDOF 4
ENDMDL
MODEL 32
REMARK VINA RESULT:    -4.942      3.178      4.599
REMARK INTER + INTRA:          -5.672
REMARK INTER:                  -5.426
REMARK INTRA:                  -0.246
REMARK UNBOUND:                 0.136
REMARK  Name = 
REMARK  4 active torsions:
REMARK  status: ('A' for Active; 'I' for Inactive)
REMARK    1  A    between atoms: C_1  and  C_2
REMARK    2  A    between atoms: N_4  and  C_5
REMARK    3  A    between atoms: C_9  and  S_11
REMARK    4  A    between atoms: S_11  and  N_14
REMARK                            x       y       z     vdW  Elec       q    Type
REMARK                         _______ _______ _______ _____ _____    ______ ____
ROOT
ATOM      1  C   UNL     1       2.368   6.866  19.450  0.00  0.00    +0.035 A 
ATOM      2  C   UNL     1       1.607   6.285  20.469  0.00  0.00    -0.040 A 
ATOM      3  C   UNL     1       1.647   4.904  20.696  0.00  0.00    -0.058 A 
ATOM      4  C   UNL     1       2.456   4.087  19.910  0.00  0.00    -0.035 A 
ATOM      5  C   UNL     1       3.228   4.665  18.902  0.00  0.00    +0.107 A 
ATOM      6  C   UNL     1       3.181   6.044  18.662  0.00  0.00    -0.014 A 
ATOM      7  H   UNL     1       0.959   6.881  21.106  0.00  0.00    +0.064 HD
ATOM      8  H   UNL     1       1.040   4.472  21.489  0.00  0.00    +0.062 HD
ATOM      9  H   UNL     1       2.477   3.015  20.087  0.00  0.00    +0.064 HD
ATOM     10  H   UNL     1       3.781   6.467  17.860  0.00  0.00    +0.066 HD
ENDROOT
BRANCH   1  13
ATOM     11  C   UNL     1       1.628   8.900  18.187  0.00  0.00    +0.214 C 
ATOM     12  O   UNL     1       0.834   8.400  17.400  0.00  0.00    -0.276 OA
ATOM     13  N   UNL     1       2.370   8.245  19.154  0.00  0.00    -0.286 N 
ATOM     14  H   UNL     1       2.996   8.816  19.708  0.00  0.00    +0.155 HD
BRANCH  11  15
ATOM     15  C   UNL     1       1.912  10.382  18.159  0.00  0.00    +0.012 C 
ATOM     16  H   UNL     1       1.996  10.754  19.184  0.00  0.00    +0.032 HD
ATOM     17  H   UNL     1       1.119  10.922  17.634  0.00  0.00    +0.032 HD
ATOM     18  H   UNL     1       2.852  10.561  17.630  0.00  0.00    +0.032 HD
ENDBRANCH  11  15
ENDBRANCH   1  13
BRANCH   5  19
ATOM     19  S   UNL     1       4.235   3.634  17.881  0.00  0.00    +0.056 S 
ATOM     20  O   UNL     1       4.477   4.303  16.623  0.00  0.00    -0.153 OA
ATOM     21  O   UNL     1       3.755   2.275  17.956  0.00  0.00    -0.153 OA
BRANCH  19  22
ATOM     22  N   UNL     1       5.700   3.659  18.699  0.00  0.00    -0.204 NA
ATOM     23  H   UNL     1       5.550   3.912  19.675  0.00  0.00    +0.144 HD
ATOM     24  H   UNL     1       6.358   4.270  18.213  0.00  0.00    +0.144 HD
ENDBRANCH  19  22
ENDBRANCH   5  19
TORSDOF 4
ENDMDL
MODEL 33
REMARK VINA RESULT:    -4.870      8.134      9.240
REMARK INTER + INTRA:          -5.588
REMARK INTER:                  -5.362
REMARK INTRA:                  -0.226
REMARK UNBOUND:                 0.136
REMARK  Name = 
REMARK  4 active torsions:
REMARK  status: ('A' for Active; 'I' for Inactive)
REMARK    1  A    between atoms: C_1  and  C_2
REMARK    2  A    between atoms: N_4  and  C_5
REMARK    3  A    between atoms: C_9  and  S_11
REMARK    4  A    between atoms: S_11  and  N_14
REMARK                            x       y       z     vdW  Elec       q    Type
REMARK                         _______ _______ _______ _____ _____    ______ ____
ROOT
ATOM      1  C   UNL     1      -0.716  10.512  18.314  0.00  0.00    +0.035 A 
ATOM      2  C   UNL     1       0.418   9.707  18.462  0.00  0.00    -0.040 A 
ATOM      3  C   UNL     1       1.073   9.610  19.695  0.00  0.00    -0.058 A 
ATOM      4  C   UNL     1       0.597  10.314  20.799  0.00  0.00    -0.035 A 
ATOM      5  C   UNL     1      -0.543  11.106  20.659  0.00  0.00    +0.107 A 
ATOM      6  C   UNL     1      -1.194  11.216  19.424  0.00  0.00    -0.014 A 
ATOM      7  H   UNL     1       0.827   9.141  17.629  0.00  0.00    +0.064 HD
ATOM      8  H   UNL     1       1.958   8.984  19.786  0.00  0.00    +0.062 HD
ATOM      9  H   UNL     1       1.115  10.240  21.752  0.00  0.00    +0.064 HD
ATOM     10  H   UNL     1      -2.070  11.853  19.338  0.00  0.00    +0.066 HD
ENDROOT
BRANCH   1  13
ATOM     11  C   UNL     1      -2.636  10.101  16.756  0.00  0.00    +0.214 C 
ATOM     12  O   UNL     1      -3.321   9.348  17.437  0.00  0.00    -0.276 OA
ATOM     13  N   UNL     1      -1.421  10.668  17.102  0.00  0.00    -0.286 N 
ATOM     14  H   UNL     1      -0.981  11.255  16.405  0.00  0.00    +0.155 HD
BRANCH  11  15
ATOM     15  C   UNL     1      -3.068  10.490  15.363  0.00  0.00    +0.012 C 
ATOM     16  H   UNL     1      -4.154  10.612  15.342  0.00  0.00    +0.032 HD
ATOM     17  H   UNL     1      -2.768   9.731  14.635  0.00  0.00    +0.032 HD
ATOM     18  H   UNL     1      -2.591  11.434  15.085  0.00  0.00    +0.032 HD
ENDBRANCH  11  15
ENDBRANCH   1  13
BRANCH   5  19
ATOM     19  S   UNL     1      -1.137  12.025  22.046  0.00  0.00    +0.056 S 
ATOM     20  O   UNL     1      -2.566  12.200  21.921  0.00  0.00    -0.153 OA
ATOM     21  O   UNL     1      -0.241  13.126  22.307  0.00  0.00    -0.153 OA
BRANCH  19  22
ATOM     22  N   UNL     1      -0.919  10.936  23.304  0.00  0.00    -0.204 NA
ATOM     23  H   UNL     1      -1.095  11.395  24.197  0.00  0.00    +0.144 HD
ATOM     24  H   UNL     1       0.006  10.509  23.236  0.00  0.00    +0.144 HD
ENDBRANCH  19  22
ENDBRANCH   5  19
TORSDOF 4
ENDMDL
