MODEL 1
REMARK VINA RESULT:    -6.178      0.000      0.000
REMARK INTER + INTRA:          -7.280
REMARK INTER:                  -7.057
REMARK INTRA:                  -0.224
REMARK UNBOUND:                -0.199
REMARK  Name = 
REMARK  3 active torsions:
REMARK  status: ('A' for Active; 'I' for Inactive)
REMARK    1  A    between atoms: N_6  and  C_7
REMARK    2  A    between atoms: C_11  and  O_13
REMARK    3  A    between atoms: O_13  and  C_14
REMARK                            x       y       z     vdW  Elec       q    Type
REMARK                         _______ _______ _______ _____ _____    ______ ____
ROOT
ATOM      1  C   UNL     1       4.550   4.036  18.252  0.00  0.00    +0.035 A 
ATOM      2  C   UNL     1       5.575   4.772  18.869  0.00  0.00    -0.022 A 
ATOM      3  C   UNL     1       6.728   5.130  18.174  0.00  0.00    +0.046 A 
ATOM      4  C   UNL     1       6.888   4.771  16.842  0.00  0.00    -0.002 A 
ATOM      5  C   UNL     1       5.884   4.053  16.195  0.00  0.00    +0.123 A 
ATOM      6  C   UNL     1       4.726   3.695  16.899  0.00  0.00    +0.001 A 
ATOM      7 CL   UNL     1       7.961   6.030  18.970  0.00  0.00    -0.083 Cl
ATOM      8  H   UNL     1       5.460   5.094  19.901  0.00  0.00    +0.065 HD
ATOM      9  H   UNL     1       7.786   5.050  16.300  0.00  0.00    +0.067 HD
ATOM     10  H   UNL     1       3.953   3.129  16.393  0.00  0.00    +0.067 HD
ENDROOT
BRANCH   1  16
ATOM     11  C   UNL     1       2.937   4.650  20.033  0.00  0.00    +0.036 C 
ATOM     12  C   UNL     1       1.822   4.002  20.867  0.00  0.00    +0.063 C 
ATOM     13  O   UNL     1       0.722   3.592  20.038  0.00  0.00    -0.377 OA
ATOM     14  C   UNL     1       1.171   2.630  19.070  0.00  0.00    +0.063 C 
ATOM     15  C   UNL     1       2.273   3.205  18.164  0.00  0.00    +0.036 C 
ATOM     16  N   UNL     1       3.400   3.707  18.992  0.00  0.00    -0.325 N 
ATOM     17  H   UNL     1       3.761   4.924  20.702  0.00  0.00    +0.049 HD
ATOM     18  H   UNL     1       2.542   5.558  19.558  0.00  0.00    +0.049 HD
ATOM     19  H   UNL     1       2.197   3.132  21.420  0.00  0.00    +0.058 HD
ATOM     20  H   UNL     1       1.437   4.721  21.596  0.00  0.00    +0.058 HD
ATOM     21  H   UNL     1       0.306   2.343  18.464  0.00  0.00    +0.058 HD
ATOM     22  H   UNL     1       1.523   1.734  19.595  0.00  0.00    +0.058 HD
ATOM     23  H   UNL     1       2.589   2.419  17.470  0.00  0.00    +0.049 HD
ATOM     24  H   UNL     1       1.866   4.037  17.577  0.00  0.00    +0.049 HD
ENDBRANCH   1  16
BRANCH   5  25
ATOM     25  O   UNL     1       6.152   3.761  14.885  0.00  0.00    -0.495 OA
BRANCH  25  26
ATOM     26  C   UNL     1       6.896   4.719  14.144  0.00  0.00    +0.079 C 
ATOM     27  H   UNL     1       6.638   5.739  14.446  0.00  0.00    +0.066 HD
ATOM     28  H   UNL     1       6.758   4.577  13.066  0.00  0.00    +0.066 HD
ATOM     29  H   UNL     1       7.957   4.563  14.366  0.00  0.00    +0.066 HD
ENDBRANCH  25  26
ENDBRANCH   5  25
TORSDOF 3
ENDMDL
MODEL 2
REMARK VINA RESULT:    -6.029      1.974      2.871
REMARK INTER + INTRA:          -7.109
REMARK INTER:                  -6.903
REMARK INTRA:                  -0.207
REMARK UNBOUND:                -0.199
REMARK  Name = 
REMARK  3 active torsions:
REMARK  status: ('A' for Active; 'I' for Inactive)
REMARK    1  A    between atoms: N_6  and  C_7
REMARK    2  A    between atoms: C_11  and  O_13
REMARK    3  A    between atoms: O_13  and  C_14
REMARK                            x       y       z     vdW  Elec       q    Type
REMARK                         _______ _______ _______ _____ _____    ______ ____
ROOT
ATOM      1  C   UNL     1       4.243   4.249  18.054  0.00  0.00    +0.035 A 
ATOM      2  C   UNL     1       4.500   3.974  16.700  0.00  0.00    -0.022 A 
ATOM      3  C   UNL     1       5.741   4.250  16.129  0.00  0.00    +0.046 A 
ATOM      4  C   UNL     1       6.762   4.798  16.893  0.00  0.00    -0.002 A 
ATOM      5  C   UNL     1       6.546   5.069  18.243  0.00  0.00    +0.123 A 
ATOM      6  C   UNL     1       5.296   4.791  18.813  0.00  0.00    +0.001 A 
ATOM      7 CL   UNL     1       6.012   3.899  14.465  0.00  0.00    -0.083 Cl
ATOM      8  H   UNL     1       3.728   3.513  16.089  0.00  0.00    +0.065 HD
ATOM      9  H   UNL     1       7.729   5.012  16.448  0.00  0.00    +0.067 HD
ATOM     10  H   UNL     1       5.131   5.012  19.860  0.00  0.00    +0.067 HD
ENDROOT
BRANCH   1  16
ATOM     11  C   UNL     1       2.439   2.581  18.390  0.00  0.00    +0.036 C 
ATOM     12  C   UNL     1       0.970   2.530  18.841  0.00  0.00    +0.063 C 
ATOM     13  O   UNL     1       0.833   2.928  20.215  0.00  0.00    -0.377 OA
ATOM     14  C   UNL     1       1.305   4.275  20.384  0.00  0.00    +0.063 C 
ATOM     15  C   UNL     1       2.783   4.415  19.983  0.00  0.00    +0.036 C 
ATOM     16  N   UNL     1       2.979   3.944  18.588  0.00  0.00    -0.325 N 
ATOM     17  H   UNL     1       2.491   2.294  17.334  0.00  0.00    +0.049 HD
ATOM     18  H   UNL     1       3.018   1.864  18.987  0.00  0.00    +0.049 HD
ATOM     19  H   UNL     1       0.342   3.177  18.216  0.00  0.00    +0.058 HD
ATOM     20  H   UNL     1       0.590   1.508  18.752  0.00  0.00    +0.058 HD
ATOM     21  H   UNL     1       1.180   4.538  21.439  0.00  0.00    +0.058 HD
ATOM     22  H   UNL     1       0.673   4.949  19.794  0.00  0.00    +0.058 HD
ATOM     23  H   UNL     1       3.072   5.464  20.109  0.00  0.00    +0.049 HD
ATOM     24  H   UNL     1       3.402   3.806  20.653  0.00  0.00    +0.049 HD
ENDBRANCH   1  16
BRANCH   5  25
ATOM     25  O   UNL     1       7.625   5.604  18.893  0.00  0.00    -0.495 OA
BRANCH  25  26
ATOM     26  C   UNL     1       8.023   6.918  18.522  0.00  0.00    +0.079 C 
ATOM     27  H   UNL     1       7.803   7.114  17.467  0.00  0.00    +0.066 HD
ATOM     28  H   UNL     1       9.082   7.087  18.744  0.00  0.00    +0.066 HD
ATOM     29  H   UNL     1       7.440   7.625  19.121  0.00  0.00    +0.066 HD
ENDBRANCH  25  26
ENDBRANCH   5  25
TORSDOF 3
ENDMDL
MODEL 3
REMARK VINA RESULT:    -5.893      2.743      5.833
REMARK INTER + INTRA:          -6.954
REMARK INTER:                  -6.767
REMARK INTRA:                  -0.187
REMARK UNBOUND:                -0.199
REMARK  Name = 
REMARK  3 active torsions:
REMARK  status: ('A' for Active; 'I' for Inactive)
REMARK    1  A    between atoms: N_6  and  C_7
REMARK    2  A    between atoms: C_11  and  O_13
REMARK    3  A    between atoms: O_13  and  C_14
REMARK                            x       y       z     vdW  Elec       q    Type
REMARK                         _______ _______ _______ _____ _____    ______ ____
ROOT
ATOM      1  C   UNL     1       3.992   4.919  18.811  0.00  0.00    +0.035 A 
ATOM      2  C   UNL     1       3.392   3.950  19.632  0.00  0.00    -0.022 A 
ATOM      3  C   UNL     1       2.335   4.275  20.481  0.00  0.00    +0.046 A 
ATOM      4  C   UNL     1       1.844   5.573  20.530  0.00  0.00    -0.002 A 
ATOM      5  C   UNL     1       2.406   6.555  19.718  0.00  0.00    +0.123 A 
ATOM      6  C   UNL     1       3.468   6.224  18.865  0.00  0.00    +0.001 A 
ATOM      7 CL   UNL     1       1.631   3.056  21.473  0.00  0.00    -0.083 Cl
ATOM      8  H   UNL     1       3.735   2.920  19.589  0.00  0.00    +0.065 HD
ATOM      9  H   UNL     1       1.021   5.826  21.191  0.00  0.00    +0.067 HD
ATOM     10  H   UNL     1       3.908   6.993  18.243  0.00  0.00    +0.067 HD
ENDROOT
BRANCH   1  16
ATOM     11  C   UNL     1       4.798   4.488  16.506  0.00  0.00    +0.036 C 
ATOM     12  C   UNL     1       5.995   3.837  15.795  0.00  0.00    +0.063 C 
ATOM     13  O   UNL     1       7.213   4.547  16.068  0.00  0.00    -0.377 OA
ATOM     14  C   UNL     1       7.477   4.541  17.481  0.00  0.00    +0.063 C 
ATOM     15  C   UNL     1       6.340   5.203  18.276  0.00  0.00    +0.036 C 
ATOM     16  N   UNL     1       5.047   4.541  17.963  0.00  0.00    -0.325 N 
ATOM     17  H   UNL     1       3.900   3.900  16.288  0.00  0.00    +0.049 HD
ATOM     18  H   UNL     1       4.667   5.506  16.117  0.00  0.00    +0.049 HD
ATOM     19  H   UNL     1       6.115   2.790  16.100  0.00  0.00    +0.058 HD
ATOM     20  H   UNL     1       5.838   3.854  14.712  0.00  0.00    +0.058 HD
ATOM     21  H   UNL     1       8.411   5.087  17.645  0.00  0.00    +0.058 HD
ATOM     22  H   UNL     1       7.633   3.506  17.808  0.00  0.00    +0.058 HD
ATOM     23  H   UNL     1       6.588   5.143  19.341  0.00  0.00    +0.049 HD
ATOM     24  H   UNL     1       6.271   6.263  18.000  0.00  0.00    +0.049 HD
ENDBRANCH   1  16
BRANCH   5  25
ATOM     25  O   UNL     1       1.837   7.793  19.849  0.00  0.00    -0.495 OA
BRANCH  25  26
ATOM     26  C   UNL     1       1.273   8.119  21.113  0.00  0.00    +0.079 C 
ATOM     27  H   UNL     1       1.886   8.857  21.640  0.00  0.00    +0.066 HD
ATOM     28  H   UNL     1       1.124   7.220  21.722  0.00  0.00    +0.066 HD
ATOM     29  H   UNL     1       0.290   8.567  20.935  0.00  0.00    +0.066 HD
ENDBRANCH  25  26
ENDBRANCH   5  25
TORSDOF 3
ENDMDL
MODEL 4
REMARK VINA RESULT:    -5.752      2.081      5.703
REMARK INTER + INTRA:          -6.792
REMARK INTER:                  -6.601
REMARK INTRA:                  -0.191
REMARK UNBOUND:                -0.199
REMARK  Name = 
REMARK  3 active torsions:
REMARK  status: ('A' for Active; 'I' for Inactive)
REMARK    1  A    between atoms: N_6  and  C_7
REMARK    2  A    between atoms: C_11  and  O_13
REMARK    3  A    between atoms: O_13  and  C_14
REMARK                            x       y       z     vdW  Elec       q    Type
REMARK                         _______ _______ _______ _____ _____    ______ ____
ROOT
ATOM      1  C   UNL     1       3.903   4.575  18.537  0.00  0.00    +0.035 A 
ATOM      2  C   UNL     1       3.537   5.897  18.838  0.00  0.00    -0.022 A 
ATOM      3  C   UNL     1       2.442   6.176  19.654  0.00  0.00    +0.046 A 
ATOM      4  C   UNL     1       1.687   5.145  20.198  0.00  0.00    -0.002 A 
ATOM      5  C   UNL     1       2.032   3.822  19.931  0.00  0.00    +0.123 A 
ATOM      6  C   UNL     1       3.134   3.546  19.110  0.00  0.00    +0.001 A 
ATOM      7 CL   UNL     1       2.026   7.812  19.996  0.00  0.00    -0.083 Cl
ATOM      8  H   UNL     1       4.131   6.722  18.453  0.00  0.00    +0.065 HD
ATOM      9  H   UNL     1       0.834   5.362  20.834  0.00  0.00    +0.067 HD
ATOM     10  H   UNL     1       3.392   2.515  18.898  0.00  0.00    +0.067 HD
ENDROOT
BRANCH   1  16
ATOM     11  C   UNL     1       4.836   4.349  16.250  0.00  0.00    +0.036 C 
ATOM     12  C   UNL     1       6.116   3.852  15.559  0.00  0.00    +0.063 C 
ATOM     13  O   UNL     1       7.250   4.655  15.923  0.00  0.00    -0.377 OA
ATOM     14  C   UNL     1       7.458   4.594  17.343  0.00  0.00    +0.063 C 
ATOM     15  C   UNL     1       6.233   5.104  18.121  0.00  0.00    +0.036 C 
ATOM     16  N   UNL     1       5.022   4.343  17.718  0.00  0.00    -0.325 N 
ATOM     17  H   UNL     1       4.006   3.694  15.963  0.00  0.00    +0.049 HD
ATOM     18  H   UNL     1       4.624   5.371  15.909  0.00  0.00    +0.049 HD
ATOM     19  H   UNL     1       6.322   2.805  15.814  0.00  0.00    +0.058 HD
ATOM     20  H   UNL     1       5.999   3.914  14.473  0.00  0.00    +0.058 HD
ATOM     21  H   UNL     1       8.329   5.215  17.576  0.00  0.00    +0.058 HD
ATOM     22  H   UNL     1       7.698   3.562  17.623  0.00  0.00    +0.058 HD
ATOM     23  H   UNL     1       6.444   5.007  19.192  0.00  0.00    +0.049 HD
ATOM     24  H   UNL     1       6.075   6.166  17.898  0.00  0.00    +0.049 HD
ENDBRANCH   1  16
BRANCH   5  25
ATOM     25  O   UNL     1       1.218   2.894  20.524  0.00  0.00    -0.495 OA
BRANCH  25  26
ATOM     26  C   UNL     1       1.527   2.517  21.859  0.00  0.00    +0.079 C 
ATOM     27  H   UNL     1       0.631   2.186  22.394  0.00  0.00    +0.066 HD
ATOM     28  H   UNL     1       2.029   3.332  22.393  0.00  0.00    +0.066 HD
ATOM     29  H   UNL     1       2.221   1.672  21.816  0.00  0.00    +0.066 HD
ENDBRANCH  25  26
ENDBRANCH   5  25
TORSDOF 3
ENDMDL
MODEL 5
REMARK VINA RESULT:    -5.666      2.749      5.841
REMARK INTER + INTRA:          -6.693
REMARK INTER:                  -6.482
REMARK INTRA:                  -0.211
REMARK UNBOUND:                -0.199
REMARK  Name = 
REMARK  3 active torsions:
REMARK  status: ('A' for Active; 'I' for Inactive)
REMARK    1  A    between atoms: N_6  and  C_7
REMARK    2  A    between atoms: C_11  and  O_13
REMARK    3  A    between atoms: O_13  and  C_14
REMARK                            x       y       z     vdW  Elec       q    Type
REMARK                         _______ _______ _______ _____ _____    ______ ____
ROOT
ATOM      1  C   UNL     1       3.732   4.851  18.730  0.00  0.00    +0.035 A 
ATOM      2  C   UNL     1       2.936   3.714  18.518  0.00  0.00    -0.022 A 
ATOM      3  C   UNL     1       1.697   3.572  19.141  0.00  0.00    +0.046 A 
ATOM      4  C   UNL     1       1.215   4.563  19.986  0.00  0.00    -0.002 A 
ATOM      5  C   UNL     1       1.973   5.711  20.206  0.00  0.00    +0.123 A 
ATOM      6  C   UNL     1       3.219   5.850  19.577  0.00  0.00    +0.001 A 
ATOM      7 CL   UNL     1       0.754   2.160  18.855  0.00  0.00    -0.083 Cl
ATOM      8  H   UNL     1       3.274   2.939  17.835  0.00  0.00    +0.065 HD
ATOM      9  H   UNL     1       0.250   4.453  20.470  0.00  0.00    +0.067 HD
ATOM     10  H   UNL     1       3.808   6.740  19.760  0.00  0.00    +0.067 HD
ENDROOT
BRANCH   1  16
ATOM     11  C   UNL     1       6.195   5.092  18.887  0.00  0.00    +0.036 C 
ATOM     12  C   UNL     1       7.393   5.419  17.982  0.00  0.00    +0.063 C 
ATOM     13  O   UNL     1       7.575   4.411  16.974  0.00  0.00    -0.377 OA
ATOM     14  C   UNL     1       6.401   4.327  16.148  0.00  0.00    +0.063 C 
ATOM     15  C   UNL     1       5.150   3.972  16.970  0.00  0.00    +0.036 C 
ATOM     16  N   UNL     1       4.970   4.954  18.071  0.00  0.00    -0.325 N 
ATOM     17  H   UNL     1       6.082   5.897  19.622  0.00  0.00    +0.049 HD
ATOM     18  H   UNL     1       6.396   4.149  19.413  0.00  0.00    +0.049 HD
ATOM     19  H   UNL     1       7.267   6.393  17.494  0.00  0.00    +0.058 HD
ATOM     20  H   UNL     1       8.309   5.460  18.578  0.00  0.00    +0.058 HD
ATOM     21  H   UNL     1       6.582   3.553  15.395  0.00  0.00    +0.058 HD
ATOM     22  H   UNL     1       6.268   5.280  15.623  0.00  0.00    +0.058 HD
ATOM     23  H   UNL     1       4.291   3.950  16.291  0.00  0.00    +0.049 HD
ATOM     24  H   UNL     1       5.271   2.971  17.404  0.00  0.00    +0.049 HD
ENDBRANCH   1  16
BRANCH   5  25
ATOM     25  O   UNL     1       1.395   6.618  21.052  0.00  0.00    -0.495 OA
BRANCH  25  26
ATOM     26  C   UNL     1       1.515   7.993  20.713  0.00  0.00    +0.079 C 
ATOM     27  H   UNL     1       0.538   8.429  20.477  0.00  0.00    +0.066 HD
ATOM     28  H   UNL     1       2.222   8.136  19.888  0.00  0.00    +0.066 HD
ATOM     29  H   UNL     1       1.913   8.520  21.586  0.00  0.00    +0.066 HD
ENDBRANCH  25  26
ENDBRANCH   5  25
TORSDOF 3
ENDMDL
MODEL 6
REMARK VINA RESULT:    -5.581      2.215      5.610
REMARK INTER + INTRA:          -6.596
REMARK INTER:                  -6.400
REMARK INTRA:                  -0.196
REMARK UNBOUND:                -0.199
REMARK  Name = 
REMARK  3 active torsions:
REMARK  status: ('A' for Active; 'I' for Inactive)
REMARK    1  A    between atoms: N_6  and  C_7
REMARK    2  A    between atoms: C_11  and  O_13
REMARK    3  A    between atoms: O_13  and  C_14
REMARK                            x       y       z     vdW  Elec       q    Type
REMARK                         _______ _______ _______ _____ _____    ______ ____
ROOT
ATOM      1  C   UNL     1       3.742   5.053  18.589  0.00  0.00    +0.035 A 
ATOM      2  C   UNL     1       3.256   6.267  19.103  0.00  0.00    -0.022 A 
ATOM      3  C   UNL     1       2.178   6.299  19.986  0.00  0.00    +0.046 A 
ATOM      4  C   UNL     1       1.560   5.122  20.386  0.00  0.00    -0.002 A 
ATOM      5  C   UNL     1       2.027   3.899  19.907  0.00  0.00    +0.123 A 
ATOM      6  C   UNL     1       3.111   3.872  19.019  0.00  0.00    +0.001 A 
ATOM      7 CL   UNL     1       1.613   7.809  20.589  0.00  0.00    -0.083 Cl
ATOM      8  H   UNL     1       3.743   7.200  18.832  0.00  0.00    +0.065 HD
ATOM      9  H   UNL     1       0.721   5.147  21.074  0.00  0.00    +0.067 HD
ATOM     10  H   UNL     1       3.463   2.920  18.642  0.00  0.00    +0.067 HD
ENDROOT
BRANCH   1  16
ATOM     11  C   UNL     1       6.189   5.296  18.269  0.00  0.00    +0.036 C 
ATOM     12  C   UNL     1       7.199   5.508  17.130  0.00  0.00    +0.063 C 
ATOM     13  O   UNL     1       7.211   4.389  16.229  0.00  0.00    -0.377 OA
ATOM     14  C   UNL     1       5.909   4.217  15.645  0.00  0.00    +0.063 C 
ATOM     15  C   UNL     1       4.833   3.967  16.715  0.00  0.00    +0.036 C 
ATOM     16  N   UNL     1       4.839   5.071  17.709  0.00  0.00    -0.325 N 
ATOM     17  H   UNL     1       6.199   6.181  18.915  0.00  0.00    +0.049 HD
ATOM     18  H   UNL     1       6.496   4.419  18.855  0.00  0.00    +0.049 HD
ATOM     19  H   UNL     1       6.971   6.420  16.565  0.00  0.00    +0.058 HD
ATOM     20  H   UNL     1       8.207   5.612  17.542  0.00  0.00    +0.058 HD
ATOM     21  H   UNL     1       5.962   3.360  14.966  0.00  0.00    +0.058 HD
ATOM     22  H   UNL     1       5.669   5.103  15.046  0.00  0.00    +0.058 HD
ATOM     23  H   UNL     1       3.865   3.872  16.210  0.00  0.00    +0.049 HD
ATOM     24  H   UNL     1       5.044   3.023  17.232  0.00  0.00    +0.049 HD
ENDBRANCH   1  16
BRANCH   5  25
ATOM     25  O   UNL     1       1.342   2.810  20.374  0.00  0.00    -0.495 OA
BRANCH  25  26
ATOM     26  C   UNL     1       1.483   2.496  21.754  0.00  0.00    +0.079 C 
ATOM     27  H   UNL     1       0.511   2.485  22.257  0.00  0.00    +0.066 HD
ATOM     28  H   UNL     1       2.177   3.186  22.247  0.00  0.00    +0.066 HD
ATOM     29  H   UNL     1       1.907   1.490  21.827  0.00  0.00    +0.066 HD
ENDBRANCH  25  26
ENDBRANCH   5  25
TORSDOF 3
ENDMDL
MODEL 7
REMARK VINA RESULT:    -5.499      2.539      2.792
REMARK INTER + INTRA:          -6.502
REMARK INTER:                  -6.306
REMARK INTRA:                  -0.195
REMARK UNBOUND:                -0.199
REMARK  Name = 
REMARK  3 active torsions:
REMARK  status: ('A' for Active; 'I' for Inactive)
REMARK    1  A    between atoms: N_6  and  C_7
REMARK    2  A    between atoms: C_11  and  O_13
REMARK    3  A    between atoms: O_13  and  C_14
REMARK                            x       y       z     vdW  Elec       q    Type
REMARK                         _______ _______ _______ _____ _____    ______ ____
ROOT
ATOM      1  C   UNL     1       3.247   5.212  18.602  0.00  0.00    +0.035 A 
ATOM      2  C   UNL     1       2.601   6.460  18.568  0.00  0.00    -0.022 A 
ATOM      3  C   UNL     1       3.071   7.495  17.762  0.00  0.00    +0.046 A 
ATOM      4  C   UNL     1       4.191   7.314  16.962  0.00  0.00    -0.002 A 
ATOM      5  C   UNL     1       4.847   6.084  16.961  0.00  0.00    +0.123 A 
ATOM      6  C   UNL     1       4.371   5.045  17.773  0.00  0.00    +0.001 A 
ATOM      7 CL   UNL     1       2.250   9.009  17.753  0.00  0.00    -0.083 Cl
ATOM      8  H   UNL     1       1.703   6.617  19.159  0.00  0.00    +0.065 HD
ATOM      9  H   UNL     1       4.556   8.120  16.334  0.00  0.00    +0.067 HD
ATOM     10  H   UNL     1       4.890   4.095  17.775  0.00  0.00    +0.067 HD
ENDROOT
BRANCH   1  16
ATOM     11  C   UNL     1       2.426   4.514  20.835  0.00  0.00    +0.036 C 
ATOM     12  C   UNL     1       2.097   3.224  21.603  0.00  0.00    +0.063 C 
ATOM     13  O   UNL     1       0.997   2.524  21.000  0.00  0.00    -0.377 OA
ATOM     14  C   UNL     1       1.327   2.166  19.648  0.00  0.00    +0.063 C 
ATOM     15  C   UNL     1       1.643   3.404  18.791  0.00  0.00    +0.036 C 
ATOM     16  N   UNL     1       2.730   4.195  19.423  0.00  0.00    -0.325 N 
ATOM     17  H   UNL     1       3.282   4.999  21.316  0.00  0.00    +0.049 HD
ATOM     18  H   UNL     1       1.558   5.185  20.883  0.00  0.00    +0.049 HD
ATOM     19  H   UNL     1       2.967   2.556  21.645  0.00  0.00    +0.058 HD
ATOM     20  H   UNL     1       1.812   3.466  22.631  0.00  0.00    +0.058 HD
ATOM     21  H   UNL     1       0.467   1.634  19.228  0.00  0.00    +0.058 HD
ATOM     22  H   UNL     1       2.176   1.471  19.661  0.00  0.00    +0.058 HD
ATOM     23  H   UNL     1       1.911   3.063  17.785  0.00  0.00    +0.049 HD
ATOM     24  H   UNL     1       0.746   4.032  18.713  0.00  0.00    +0.049 HD
ENDBRANCH   1  16
BRANCH   5  25
ATOM     25  O   UNL     1       5.933   6.023  16.131  0.00  0.00    -0.495 OA
BRANCH  25  26
ATOM     26  C   UNL     1       6.748   4.861  16.211  0.00  0.00    +0.079 C 
ATOM     27  H   UNL     1       7.257   4.800  17.178  0.00  0.00    +0.066 HD
ATOM     28  H   UNL     1       7.464   4.824  15.383  0.00  0.00    +0.066 HD
ATOM     29  H   UNL     1       6.093   3.987  16.123  0.00  0.00    +0.066 HD
ENDBRANCH  25  26
ENDBRANCH   5  25
TORSDOF 3
ENDMDL
MODEL 8
REMARK VINA RESULT:    -5.379      3.499      4.171
REMARK INTER + INTRA:          -6.364
REMARK INTER:                  -6.172
REMARK INTRA:                  -0.192
REMARK UNBOUND:                -0.199
REMARK  Name = 
REMARK  3 active torsions:
REMARK  status: ('A' for Active; 'I' for Inactive)
REMARK    1  A    between atoms: N_6  and  C_7
REMARK    2  A    between atoms: C_11  and  O_13
REMARK    3  A    between atoms: O_13  and  C_14
REMARK                            x       y       z     vdW  Elec       q    Type
REMARK                         _______ _______ _______ _____ _____    ______ ____
ROOT
ATOM      1  C   UNL     1       3.337   6.187  18.158  0.00  0.00    +0.035 A 
ATOM      2  C   UNL     1       2.637   4.970  18.120  0.00  0.00    -0.022 A 
ATOM      3  C   UNL     1       3.211   3.822  17.576  0.00  0.00    +0.046 A 
ATOM      4  C   UNL     1       4.500   3.854  17.062  0.00  0.00    -0.002 A 
ATOM      5  C   UNL     1       5.228   5.042  17.097  0.00  0.00    +0.123 A 
ATOM      6  C   UNL     1       4.647   6.194  17.645  0.00  0.00    +0.001 A 
ATOM      7 CL   UNL     1       2.316   2.351  17.547  0.00  0.00    -0.083 Cl
ATOM      8  H   UNL     1       1.639   4.909  18.546  0.00  0.00    +0.065 HD
ATOM      9  H   UNL     1       4.947   2.960  16.639  0.00  0.00    +0.067 HD
ATOM     10  H   UNL     1       5.214   7.117  17.661  0.00  0.00    +0.067 HD
ENDROOT
BRANCH   1  16
ATOM     11  C   UNL     1       1.979   8.237  17.838  0.00  0.00    +0.036 C 
ATOM     12  C   UNL     1       1.587   9.506  18.611  0.00  0.00    +0.063 C 
ATOM     13  O   UNL     1       0.800   9.188  19.770  0.00  0.00    -0.377 OA
ATOM     14  C   UNL     1       1.552   8.341  20.655  0.00  0.00    +0.063 C 
ATOM     15  C   UNL     1       1.964   7.026  19.972  0.00  0.00    +0.036 C 
ATOM     16  N   UNL     1       2.720   7.316  18.726  0.00  0.00    -0.325 N 
ATOM     17  H   UNL     1       2.595   8.526  16.979  0.00  0.00    +0.049 HD
ATOM     18  H   UNL     1       1.065   7.746  17.477  0.00  0.00    +0.049 HD
ATOM     19  H   UNL     1       2.476  10.068  18.924  0.00  0.00    +0.058 HD
ATOM     20  H   UNL     1       0.986  10.160  17.971  0.00  0.00    +0.058 HD
ATOM     21  H   UNL     1       0.921   8.127  21.523  0.00  0.00    +0.058 HD
ATOM     22  H   UNL     1       2.432   8.891  21.010  0.00  0.00    +0.058 HD
ATOM     23  H   UNL     1       2.553   6.441  20.686  0.00  0.00    +0.049 HD
ATOM     24  H   UNL     1       1.065   6.451  19.716  0.00  0.00    +0.049 HD
ENDBRANCH   1  16
BRANCH   5  25
ATOM     25  O   UNL     1       6.487   4.950  16.567  0.00  0.00    -0.495 OA
BRANCH  25  26
ATOM     26  C   UNL     1       7.555   4.691  17.468  0.00  0.00    +0.079 C 
ATOM     27  H   UNL     1       7.476   3.685  17.894  0.00  0.00    +0.066 HD
ATOM     28  H   UNL     1       7.602   5.452  18.254  0.00  0.00    +0.066 HD
ATOM     29  H   UNL     1       8.490   4.740  16.901  0.00  0.00    +0.066 HD
ENDBRANCH  25  26
ENDBRANCH   5  25
TORSDOF 3
ENDMDL
MODEL 9
REMARK VINA RESULT:    -5.337      2.922      3.680
REMARK INTER + INTRA:          -6.316
REMARK INTER:                  -6.124
REMARK INTRA:                  -0.192
REMARK UNBOUND:                -0.199
REMARK  Name = 
REMARK  3 active torsions:
REMARK  status: ('A' for Active; 'I' for Inactive)
REMARK    1  A    between atoms: N_6  and  C_7
REMARK    2  A    between atoms: C_11  and  O_13
REMARK    3  A    between atoms: O_13  and  C_14
REMARK                            x       y       z     vdW  Elec       q    Type
REMARK                         _______ _______ _______ _____ _____    ______ ____
ROOT
ATOM      1  C   UNL     1       3.138   5.354  18.621  0.00  0.00    +0.035 A 
ATOM      2  C   UNL     1       4.184   5.076  17.726  0.00  0.00    -0.022 A 
ATOM      3  C   UNL     1       4.678   6.055  16.865  0.00  0.00    +0.046 A 
ATOM      4  C   UNL     1       4.149   7.338  16.880  0.00  0.00    -0.002 A 
ATOM      5  C   UNL     1       3.121   7.651  17.766  0.00  0.00    +0.123 A 
ATOM      6  C   UNL     1       2.627   6.664  18.629  0.00  0.00    +0.001 A 
ATOM      7 CL   UNL     1       5.960   5.670  15.782  0.00  0.00    -0.083 Cl
ATOM      8  H   UNL     1       4.638   4.089  17.718  0.00  0.00    +0.065 HD
ATOM      9  H   UNL     1       4.535   8.101  16.210  0.00  0.00    +0.067 HD
ATOM     10  H   UNL     1       1.820   6.910  19.310  0.00  0.00    +0.067 HD
ENDROOT
BRANCH   1  16
ATOM     11  C   UNL     1       2.359   4.684  20.878  0.00  0.00    +0.036 C 
ATOM     12  C   UNL     1       2.105   3.403  21.689  0.00  0.00    +0.063 C 
ATOM     13  O   UNL     1       1.045   2.623  21.112  0.00  0.00    -0.377 OA
ATOM     14  C   UNL     1       1.392   2.240  19.772  0.00  0.00    +0.063 C 
ATOM     15  C   UNL     1       1.637   3.465  18.874  0.00  0.00    +0.036 C 
ATOM     16  N   UNL     1       2.680   4.336  19.477  0.00  0.00    -0.325 N 
ATOM     17  H   UNL     1       3.188   5.231  21.341  0.00  0.00    +0.049 HD
ATOM     18  H   UNL     1       1.455   5.306  20.907  0.00  0.00    +0.049 HD
ATOM     19  H   UNL     1       3.010   2.787  21.750  0.00  0.00    +0.058 HD
ATOM     20  H   UNL     1       1.808   3.663  22.710  0.00  0.00    +0.058 HD
ATOM     21  H   UNL     1       0.563   1.648  19.372  0.00  0.00    +0.058 HD
ATOM     22  H   UNL     1       2.278   1.595  19.805  0.00  0.00    +0.058 HD
ATOM     23  H   UNL     1       1.922   3.108  17.879  0.00  0.00    +0.049 HD
ATOM     24  H   UNL     1       0.707   4.039  18.779  0.00  0.00    +0.049 HD
ENDBRANCH   1  16
BRANCH   5  25
ATOM     25  O   UNL     1       2.684   8.946  17.691  0.00  0.00    -0.495 OA
BRANCH  25  26
ATOM     26  C   UNL     1       1.432   9.246  18.295  0.00  0.00    +0.079 C 
ATOM     27  H   UNL     1       1.410  10.276  18.667  0.00  0.00    +0.066 HD
ATOM     28  H   UNL     1       1.197   8.532  19.091  0.00  0.00    +0.066 HD
ATOM     29  H   UNL     1       0.659   9.153  17.525  0.00  0.00    +0.066 HD
ENDBRANCH  25  26
ENDBRANCH   5  25
TORSDOF 3
ENDMDL
MODEL 10
REMARK VINA RESULT:    -5.314      3.928      4.958
REMARK INTER + INTRA:          -6.290
REMARK INTER:                  -6.081
REMARK INTRA:                  -0.209
REMARK UNBOUND:                -0.199
REMARK  Name = 
REMARK  3 active torsions:
REMARK  status: ('A' for Active; 'I' for Inactive)
REMARK    1  A    between atoms: N_6  and  C_7
REMARK    2  A    between atoms: C_11  and  O_13
REMARK    3  A    between atoms: O_13  and  C_14
REMARK                            x       y       z     vdW  Elec       q    Type
REMARK                         _______ _______ _______ _____ _____    ______ ____
ROOT
ATOM      1  C   UNL     1       2.423   6.053  19.623  0.00  0.00    +0.035 A 
ATOM      2  C   UNL     1       1.759   5.120  20.437  0.00  0.00    -0.022 A 
ATOM      3  C   UNL     1       2.297   3.856  20.675  0.00  0.00    +0.046 A 
ATOM      4  C   UNL     1       3.514   3.491  20.115  0.00  0.00    -0.002 A 
ATOM      5  C   UNL     1       4.205   4.397  19.314  0.00  0.00    +0.123 A 
ATOM      6  C   UNL     1       3.660   5.667  19.077  0.00  0.00    +0.001 A 
ATOM      7 CL   UNL     1       1.449   2.742  21.678  0.00  0.00    -0.083 Cl
ATOM      8  H   UNL     1       0.822   5.392  20.916  0.00  0.00    +0.065 HD
ATOM      9  H   UNL     1       3.933   2.506  20.301  0.00  0.00    +0.067 HD
ATOM     10  H   UNL     1       4.198   6.365  18.446  0.00  0.00    +0.067 HD
ENDROOT
BRANCH   1  16
ATOM     11  C   UNL     1       1.599   8.178  20.599  0.00  0.00    +0.036 C 
ATOM     12  C   UNL     1       0.763   9.401  20.188  0.00  0.00    +0.063 C 
ATOM     13  O   UNL     1       1.411  10.150  19.148  0.00  0.00    -0.377 OA
ATOM     14  C   UNL     1       1.591   9.323  17.987  0.00  0.00    +0.063 C 
ATOM     15  C   UNL     1       2.447   8.083  18.298  0.00  0.00    +0.036 C 
ATOM     16  N   UNL     1       1.845   7.319  19.421  0.00  0.00    -0.325 N 
ATOM     17  H   UNL     1       1.056   7.627  21.374  0.00  0.00    +0.049 HD
ATOM     18  H   UNL     1       2.557   8.526  21.008  0.00  0.00    +0.049 HD
ATOM     19  H   UNL     1      -0.235   9.099  19.844  0.00  0.00    +0.058 HD
ATOM     20  H   UNL     1       0.633  10.067  21.046  0.00  0.00    +0.058 HD
ATOM     21  H   UNL     1       2.083   9.931  17.221  0.00  0.00    +0.058 HD
ATOM     22  H   UNL     1       0.607   9.033  17.602  0.00  0.00    +0.058 HD
ATOM     23  H   UNL     1       2.524   7.484  17.384  0.00  0.00    +0.049 HD
ATOM     24  H   UNL     1       3.457   8.401  18.586  0.00  0.00    +0.049 HD
ENDBRANCH   1  16
BRANCH   5  25
ATOM     25  O   UNL     1       5.392   3.927  18.822  0.00  0.00    -0.495 OA
BRANCH  25  26
ATOM     26  C   UNL     1       6.164   4.817  18.026  0.00  0.00    +0.079 C 
ATOM     27  H   UNL     1       5.543   5.313  17.273  0.00  0.00    +0.066 HD
ATOM     28  H   UNL     1       7.011   4.298  17.562  0.00  0.00    +0.066 HD
ATOM     29  H   UNL     1       6.569   5.590  18.686  0.00  0.00    +0.066 HD
ENDBRANCH  25  26
ENDBRANCH   5  25
TORSDOF 3
ENDMDL
MODEL 11
REMARK VINA RESULT:    -5.313      3.319      4.223
REMARK INTER + INTRA:          -6.288
REMARK INTER:                  -6.097
REMARK INTRA:                  -0.191
REMARK UNBOUND:                -0.199
REMARK  Name = 
REMARK  3 active torsions:
REMARK  status: ('A' for Active; 'I' for Inactive)
REMARK    1  A    between atoms: N_6  and  C_7
REMARK    2  A    between atoms: C_11  and  O_13
REMARK    3  A    between atoms: O_13  and  C_14
REMARK                            x       y       z     vdW  Elec       q    Type
REMARK                         _______ _______ _______ _____ _____    ______ ____
ROOT
ATOM      1  C   UNL     1       3.289   6.260  18.035  0.00  0.00    +0.035 A 
ATOM      2  C   UNL     1       4.514   6.397  17.362  0.00  0.00    -0.022 A 
ATOM      3  C   UNL     1       5.129   5.307  16.750  0.00  0.00    +0.046 A 
ATOM      4  C   UNL     1       4.536   4.052  16.784  0.00  0.00    -0.002 A 
ATOM      5  C   UNL     1       3.313   3.884  17.430  0.00  0.00    +0.123 A 
ATOM      6  C   UNL     1       2.698   4.983  18.045  0.00  0.00    +0.001 A 
ATOM      7 CL   UNL     1       6.633   5.520  15.937  0.00  0.00    -0.083 Cl
ATOM      8  H   UNL     1       4.983   7.376  17.291  0.00  0.00    +0.065 HD
ATOM      9  H   UNL     1       5.015   3.203  16.306  0.00  0.00    +0.067 HD
ATOM     10  H   UNL     1       1.752   4.845  18.555  0.00  0.00    +0.067 HD
ENDROOT
BRANCH   1  16
ATOM     11  C   UNL     1       1.956   8.334  17.767  0.00  0.00    +0.036 C 
ATOM     12  C   UNL     1       1.601   9.600  18.562  0.00  0.00    +0.063 C 
ATOM     13  O   UNL     1       0.835   9.281  19.735  0.00  0.00    -0.377 OA
ATOM     14  C   UNL     1       1.593   8.414  20.594  0.00  0.00    +0.063 C 
ATOM     15  C   UNL     1       1.969   7.100  19.888  0.00  0.00    +0.036 C 
ATOM     16  N   UNL     1       2.702   7.391  18.629  0.00  0.00    -0.325 N 
ATOM     17  H   UNL     1       2.557   8.623  16.898  0.00  0.00    +0.049 HD
ATOM     18  H   UNL     1       1.027   7.861  17.421  0.00  0.00    +0.049 HD
ATOM     19  H   UNL     1       2.505  10.145  18.862  0.00  0.00    +0.058 HD
ATOM     20  H   UNL     1       0.996  10.270  17.944  0.00  0.00    +0.058 HD
ATOM     21  H   UNL     1       0.978   8.199  21.473  0.00  0.00    +0.058 HD
ATOM     22  H   UNL     1       2.489   8.946  20.935  0.00  0.00    +0.058 HD
ATOM     23  H   UNL     1       2.565   6.498  20.583  0.00  0.00    +0.049 HD
ATOM     24  H   UNL     1       1.056   6.541  19.646  0.00  0.00    +0.049 HD
ENDBRANCH   1  16
BRANCH   5  25
ATOM     25  O   UNL     1       2.826   2.605  17.395  0.00  0.00    -0.495 OA
BRANCH  25  26
ATOM     26  C   UNL     1       3.133   1.762  18.498  0.00  0.00    +0.079 C 
ATOM     27  H   UNL     1       3.678   2.308  19.274  0.00  0.00    +0.066 HD
ATOM     28  H   UNL     1       3.688   0.875  18.173  0.00  0.00    +0.066 HD
ATOM     29  H   UNL     1       2.187   1.421  18.932  0.00  0.00    +0.066 HD
ENDBRANCH  25  26
ENDBRANCH   5  25
TORSDOF 3
ENDMDL
MODEL 12
REMARK VINA RESULT:    -5.254      3.392      5.803
REMARK INTER + INTRA:          -6.221
REMARK INTER:                  -6.028
REMARK INTRA:                  -0.193
REMARK UNBOUND:                -0.199
REMARK  Name = 
REMARK  3 active torsions:
REMARK  status: ('A' for Active; 'I' for Inactive)
REMARK    1  A    between atoms: N_6  and  C_7
REMARK    2  A    between atoms: C_11  and  O_13
REMARK    3  A    between atoms: O_13  and  C_14
REMARK                            x       y       z     vdW  Elec       q    Type
REMARK                         _______ _______ _______ _____ _____    ______ ____
ROOT
ATOM      1  C   UNL     1       4.122   5.941  17.850  0.00  0.00    +0.035 A 
ATOM      2  C   UNL     1       3.407   5.325  18.890  0.00  0.00    -0.022 A 
ATOM      3  C   UNL     1       2.360   5.981  19.536  0.00  0.00    +0.046 A 
ATOM      4  C   UNL     1       1.993   7.265  19.157  0.00  0.00    -0.002 A 
ATOM      5  C   UNL     1       2.672   7.899  18.119  0.00  0.00    +0.123 A 
ATOM      6  C   UNL     1       3.724   7.236  17.472  0.00  0.00    +0.001 A 
ATOM      7 CL   UNL     1       1.512   5.189  20.809  0.00  0.00    -0.083 Cl
ATOM      8  H   UNL     1       3.653   4.307  19.184  0.00  0.00    +0.065 HD
ATOM      9  H   UNL     1       1.177   7.775  19.660  0.00  0.00    +0.067 HD
ATOM     10  H   UNL     1       4.254   7.738  16.672  0.00  0.00    +0.067 HD
ENDROOT
BRANCH   1  16
ATOM     11  C   UNL     1       5.205   5.205  15.744  0.00  0.00    +0.036 C 
ATOM     12  C   UNL     1       6.269   4.202  15.271  0.00  0.00    +0.063 C 
ATOM     13  O   UNL     1       7.564   4.528  15.801  0.00  0.00    -0.377 OA
ATOM     14  C   UNL     1       7.528   4.496  17.237  0.00  0.00    +0.063 C 
ATOM     15  C   UNL     1       6.505   5.495  17.804  0.00  0.00    +0.036 C 
ATOM     16  N   UNL     1       5.163   5.235  17.222  0.00  0.00    -0.325 N 
ATOM     17  H   UNL     1       4.234   4.903  15.335  0.00  0.00    +0.049 HD
ATOM     18  H   UNL     1       5.463   6.201  15.362  0.00  0.00    +0.049 HD
ATOM     19  H   UNL     1       6.008   3.179  15.568  0.00  0.00    +0.058 HD
ATOM     20  H   UNL     1       6.342   4.225  14.179  0.00  0.00    +0.058 HD
ATOM     21  H   UNL     1       8.530   4.746  17.599  0.00  0.00    +0.058 HD
ATOM     22  H   UNL     1       7.300   3.474  17.563  0.00  0.00    +0.058 HD
ATOM     23  H   UNL     1       6.507   5.403  18.896  0.00  0.00    +0.049 HD
ATOM     24  H   UNL     1       6.812   6.516  17.546  0.00  0.00    +0.049 HD
ENDBRANCH   1  16
BRANCH   5  25
ATOM     25  O   UNL     1       2.218   9.159  17.833  0.00  0.00    -0.495 OA
BRANCH  25  26
ATOM     26  C   UNL     1       1.157   9.665  18.631  0.00  0.00    +0.079 C 
ATOM     27  H   UNL     1       0.796   8.908  19.335  0.00  0.00    +0.066 HD
ATOM     28  H   UNL     1       0.341  10.047  18.007  0.00  0.00    +0.066 HD
ATOM     29  H   UNL     1       1.548  10.504  19.216  0.00  0.00    +0.066 HD
ENDBRANCH  25  26
ENDBRANCH   5  25
TORSDOF 3
ENDMDL
MODEL 13
REMARK VINA RESULT:    -5.243      3.923      5.018
REMARK INTER + INTRA:          -6.208
REMARK INTER:                  -5.994
REMARK INTRA:                  -0.214
REMARK UNBOUND:                -0.199
REMARK  Name = 
REMARK  3 active torsions:
REMARK  status: ('A' for Active; 'I' for Inactive)
REMARK    1  A    between atoms: N_6  and  C_7
REMARK    2  A    between atoms: C_11  and  O_13
REMARK    3  A    between atoms: O_13  and  C_14
REMARK                            x       y       z     vdW  Elec       q    Type
REMARK                         _______ _______ _______ _____ _____    ______ ____
ROOT
ATOM      1  C   UNL     1       2.714   6.270  19.602  0.00  0.00    +0.035 A 
ATOM      2  C   UNL     1       1.962   5.387  20.395  0.00  0.00    -0.022 A 
ATOM      3  C   UNL     1       2.352   4.060  20.568  0.00  0.00    +0.046 A 
ATOM      4  C   UNL     1       3.505   3.580  19.962  0.00  0.00    -0.002 A 
ATOM      5  C   UNL     1       4.281   4.433  19.180  0.00  0.00    +0.123 A 
ATOM      6  C   UNL     1       3.886   5.767  19.009  0.00  0.00    +0.001 A 
ATOM      7 CL   UNL     1       1.401   3.011  21.548  0.00  0.00    -0.083 Cl
ATOM      8  H   UNL     1       1.074   5.747  20.909  0.00  0.00    +0.065 HD
ATOM      9  H   UNL     1       3.809   2.546  20.097  0.00  0.00    +0.067 HD
ATOM     10  H   UNL     1       4.487   6.423  18.392  0.00  0.00    +0.067 HD
ENDROOT
BRANCH   1  16
ATOM     11  C   UNL     1       1.966   8.107  18.113  0.00  0.00    +0.036 C 
ATOM     12  C   UNL     1       1.747   9.627  18.159  0.00  0.00    +0.063 C 
ATOM     13  O   UNL     1       0.703   9.975  19.082  0.00  0.00    -0.377 OA
ATOM     14  C   UNL     1       1.052   9.535  20.405  0.00  0.00    +0.063 C 
ATOM     15  C   UNL     1       1.261   8.012  20.461  0.00  0.00    +0.036 C 
ATOM     16  N   UNL     1       2.286   7.603  19.466  0.00  0.00    -0.325 N 
ATOM     17  H   UNL     1       2.784   7.892  17.416  0.00  0.00    +0.049 HD
ATOM     18  H   UNL     1       1.047   7.628  17.748  0.00  0.00    +0.049 HD
ATOM     19  H   UNL     1       2.668  10.151  18.446  0.00  0.00    +0.058 HD
ATOM     20  H   UNL     1       1.451   9.990  17.171  0.00  0.00    +0.058 HD
ATOM     21  H   UNL     1       0.234   9.821  21.075  0.00  0.00    +0.058 HD
ATOM     22  H   UNL     1       1.953  10.067  20.731  0.00  0.00    +0.058 HD
ATOM     23  H   UNL     1       1.549   7.745  21.484  0.00  0.00    +0.049 HD
ATOM     24  H   UNL     1       0.317   7.505  20.227  0.00  0.00    +0.049 HD
ENDBRANCH   1  16
BRANCH   5  25
ATOM     25  O   UNL     1       5.394   3.848  18.638  0.00  0.00    -0.495 OA
BRANCH  25  26
ATOM     26  C   UNL     1       6.384   4.713  18.097  0.00  0.00    +0.079 C 
ATOM     27  H   UNL     1       6.107   5.764  18.230  0.00  0.00    +0.066 HD
ATOM     28  H   UNL     1       6.574   4.484  17.042  0.00  0.00    +0.066 HD
ATOM     29  H   UNL     1       7.315   4.541  18.647  0.00  0.00    +0.066 HD
ENDBRANCH  25  26
ENDBRANCH   5  25
TORSDOF 3
ENDMDL
MODEL 14
REMARK VINA RESULT:    -5.240      3.577      5.224
REMARK INTER + INTRA:          -6.205
REMARK INTER:                  -5.985
REMARK INTRA:                  -0.220
REMARK UNBOUND:                -0.199
REMARK  Name = 
REMARK  3 active torsions:
REMARK  status: ('A' for Active; 'I' for Inactive)
REMARK    1  A    between atoms: N_6  and  C_7
REMARK    2  A    between atoms: C_11  and  O_13
REMARK    3  A    between atoms: O_13  and  C_14
REMARK                            x       y       z     vdW  Elec       q    Type
REMARK                         _______ _______ _______ _____ _____    ______ ____
ROOT
ATOM      1  C   UNL     1       2.557   6.256  18.987  0.00  0.00    +0.035 A 
ATOM      2  C   UNL     1       3.354   5.955  17.871  0.00  0.00    -0.022 A 
ATOM      3  C   UNL     1       4.012   4.731  17.761  0.00  0.00    +0.046 A 
ATOM      4  C   UNL     1       3.887   3.772  18.757  0.00  0.00    -0.002 A 
ATOM      5  C   UNL     1       3.092   4.033  19.871  0.00  0.00    +0.123 A 
ATOM      6  C   UNL     1       2.432   5.265  19.977  0.00  0.00    +0.001 A 
ATOM      7 CL   UNL     1       4.982   4.404  16.376  0.00  0.00    -0.083 Cl
ATOM      8  H   UNL     1       3.442   6.675  17.061  0.00  0.00    +0.065 HD
ATOM      9  H   UNL     1       4.399   2.818  18.672  0.00  0.00    +0.067 HD
ATOM     10  H   UNL     1       1.823   5.466  20.850  0.00  0.00    +0.067 HD
ENDROOT
BRANCH   1  16
ATOM     11  C   UNL     1       1.689   8.121  20.372  0.00  0.00    +0.036 C 
ATOM     12  C   UNL     1       0.767   9.343  20.234  0.00  0.00    +0.063 C 
ATOM     13  O   UNL     1       1.310  10.303  19.314  0.00  0.00    -0.377 OA
ATOM     14  C   UNL     1       1.459   9.707  18.015  0.00  0.00    +0.063 C 
ATOM     15  C   UNL     1       2.394   8.487  18.051  0.00  0.00    +0.036 C 
ATOM     16  N   UNL     1       1.904   7.500  19.047  0.00  0.00    -0.325 N 
ATOM     17  H   UNL     1       1.224   7.408  21.063  0.00  0.00    +0.049 HD
ATOM     18  H   UNL     1       2.651   8.449  20.787  0.00  0.00    +0.049 HD
ATOM     19  H   UNL     1      -0.233   9.047  19.894  0.00  0.00    +0.058 HD
ATOM     20  H   UNL     1       0.658   9.837  21.204  0.00  0.00    +0.058 HD
ATOM     21  H   UNL     1       1.870  10.471  17.346  0.00  0.00    +0.058 HD
ATOM     22  H   UNL     1       0.468   9.430  17.636  0.00  0.00    +0.058 HD
ATOM     23  H   UNL     1       2.444   8.066  17.041  0.00  0.00    +0.049 HD
ATOM     24  H   UNL     1       3.403   8.810  18.338  0.00  0.00    +0.049 HD
ENDBRANCH   1  16
BRANCH   5  25
ATOM     25  O   UNL     1       3.042   3.013  20.783  0.00  0.00    -0.495 OA
BRANCH  25  26
ATOM     26  C   UNL     1       1.869   2.909  21.578  0.00  0.00    +0.079 C 
ATOM     27  H   UNL     1       1.838   3.694  22.341  0.00  0.00    +0.066 HD
ATOM     28  H   UNL     1       1.785   1.914  22.030  0.00  0.00    +0.066 HD
ATOM     29  H   UNL     1       1.005   3.049  20.921  0.00  0.00    +0.066 HD
ENDBRANCH  25  26
ENDBRANCH   5  25
TORSDOF 3
ENDMDL
MODEL 15
REMARK VINA RESULT:    -5.226      3.413      5.179
REMARK INTER + INTRA:          -6.189
REMARK INTER:                  -5.972
REMARK INTRA:                  -0.217
REMARK UNBOUND:                -0.199
REMARK  Name = 
REMARK  3 active torsions:
REMARK  status: ('A' for Active; 'I' for Inactive)
REMARK    1  A    between atoms: N_6  and  C_7
REMARK    2  A    between atoms: C_11  and  O_13
REMARK    3  A    between atoms: O_13  and  C_14
REMARK                            x       y       z     vdW  Elec       q    Type
REMARK                         _______ _______ _______ _____ _____    ______ ____
ROOT
ATOM      1  C   UNL     1       2.907   6.182  19.081  0.00  0.00    +0.035 A 
ATOM      2  C   UNL     1       3.629   5.818  17.932  0.00  0.00    -0.022 A 
ATOM      3  C   UNL     1       4.130   4.527  17.772  0.00  0.00    +0.046 A 
ATOM      4  C   UNL     1       3.918   3.563  18.749  0.00  0.00    -0.002 A 
ATOM      5  C   UNL     1       3.193   3.887  19.894  0.00  0.00    +0.123 A 
ATOM      6  C   UNL     1       2.691   5.186  20.050  0.00  0.00    +0.001 A 
ATOM      7 CL   UNL     1       5.011   4.123  16.349  0.00  0.00    -0.083 Cl
ATOM      8  H   UNL     1       3.780   6.544  17.137  0.00  0.00    +0.065 HD
ATOM      9  H   UNL     1       4.308   2.557  18.624  0.00  0.00    +0.067 HD
ATOM     10  H   UNL     1       2.137   5.435  20.947  0.00  0.00    +0.067 HD
ENDROOT
BRANCH   1  16
ATOM     11  C   UNL     1       1.927   8.171  17.970  0.00  0.00    +0.036 C 
ATOM     12  C   UNL     1       1.653   9.654  18.268  0.00  0.00    +0.063 C 
ATOM     13  O   UNL     1       0.702   9.804  19.335  0.00  0.00    -0.377 OA
ATOM     14  C   UNL     1       1.210   9.195  20.533  0.00  0.00    +0.063 C 
ATOM     15  C   UNL     1       1.487   7.694  20.337  0.00  0.00    +0.036 C 
ATOM     16  N   UNL     1       2.412   7.494  19.192  0.00  0.00    -0.325 N 
ATOM     17  H   UNL     1       2.672   8.107  17.170  0.00  0.00    +0.049 HD
ATOM     18  H   UNL     1       0.994   7.700  17.633  0.00  0.00    +0.049 HD
ATOM     19  H   UNL     1       2.577  10.181  18.536  0.00  0.00    +0.058 HD
ATOM     20  H   UNL     1       1.235  10.140  17.382  0.00  0.00    +0.058 HD
ATOM     21  H   UNL     1       0.460   9.333  21.318  0.00  0.00    +0.058 HD
ATOM     22  H   UNL     1       2.120   9.724  20.842  0.00  0.00    +0.058 HD
ATOM     23  H   UNL     1       1.895   7.297  21.273  0.00  0.00    +0.049 HD
ATOM     24  H   UNL     1       0.544   7.174  20.126  0.00  0.00    +0.049 HD
ENDBRANCH   1  16
BRANCH   5  25
ATOM     25  O   UNL     1       3.046   2.856  20.781  0.00  0.00    -0.495 OA
BRANCH  25  26
ATOM     26  C   UNL     1       1.885   2.864  21.601  0.00  0.00    +0.079 C 
ATOM     27  H   UNL     1       1.917   2.056  22.340  0.00  0.00    +0.066 HD
ATOM     28  H   UNL     1       0.974   2.810  20.995  0.00  0.00    +0.066 HD
ATOM     29  H   UNL     1       1.866   3.813  22.145  0.00  0.00    +0.066 HD
ENDBRANCH  25  26
ENDBRANCH   5  25
TORSDOF 3
ENDMDL
MODEL 16
REMARK VINA RESULT:    -5.164      3.988      5.959
REMARK INTER + INTRA:          -6.118
REMARK INTER:                  -5.896
REMARK INTRA:                  -0.222
REMARK UNBOUND:                -0.199
REMARK  Name = 
REMARK  3 active torsions:
REMARK  status: ('A' for Active; 'I' for Inactive)
REMARK    1  A    between atoms: N_6  and  C_7
REMARK    2  A    between atoms: C_11  and  O_13
REMARK    3  A    between atoms: O_13  and  C_14
REMARK                            x       y       z     vdW  Elec       q    Type
REMARK                         _______ _______ _______ _____ _____    ______ ____
ROOT
ATOM      1  C   UNL     1       2.341   6.891  19.469  0.00  0.00    +0.035 A 
ATOM      2  C   UNL     1       2.984   6.245  18.400  0.00  0.00    -0.022 A 
ATOM      3  C   UNL     1       3.297   4.887  18.459  0.00  0.00    +0.046 A 
ATOM      4  C   UNL     1       2.969   4.136  19.580  0.00  0.00    -0.002 A 
ATOM      5  C   UNL     1       2.317   4.743  20.651  0.00  0.00    +0.123 A 
ATOM      6  C   UNL     1       2.005   6.108  20.588  0.00  0.00    +0.001 A 
ATOM      7 CL   UNL     1       4.088   4.135  17.127  0.00  0.00    -0.083 Cl
ATOM      8  H   UNL     1       3.221   6.802  17.497  0.00  0.00    +0.065 HD
ATOM      9  H   UNL     1       3.212   3.079  19.625  0.00  0.00    +0.067 HD
ATOM     10  H   UNL     1       1.507   6.577  21.428  0.00  0.00    +0.067 HD
ENDROOT
BRANCH   1  16
ATOM     11  C   UNL     1       1.793   8.823  18.013  0.00  0.00    +0.036 C 
ATOM     12  C   UNL     1       1.711  10.355  18.095  0.00  0.00    +0.063 C 
ATOM     13  O   UNL     1       0.682  10.774  19.006  0.00  0.00    -0.377 OA
ATOM     14  C   UNL     1       0.960  10.271  20.324  0.00  0.00    +0.063 C 
ATOM     15  C   UNL     1       1.032   8.735  20.344  0.00  0.00    +0.036 C 
ATOM     16  N   UNL     1       2.037   8.259  19.359  0.00  0.00    -0.325 N 
ATOM     17  H   UNL     1       2.604   8.552  17.328  0.00  0.00    +0.049 HD
ATOM     18  H   UNL     1       0.844   8.438  17.619  0.00  0.00    +0.049 HD
ATOM     19  H   UNL     1       2.668  10.786  18.414  0.00  0.00    +0.058 HD
ATOM     20  H   UNL     1       1.470  10.767  17.111  0.00  0.00    +0.058 HD
ATOM     21  H   UNL     1       0.158  10.614  20.985  0.00  0.00    +0.058 HD
ATOM     22  H   UNL     1       1.899  10.712  20.681  0.00  0.00    +0.058 HD
ATOM     23  H   UNL     1       1.271   8.418  21.365  0.00  0.00    +0.049 HD
ATOM     24  H   UNL     1       0.051   8.321  20.078  0.00  0.00    +0.049 HD
ENDBRANCH   1  16
BRANCH   5  25
ATOM     25  O   UNL     1       2.043   3.903  21.696  0.00  0.00    -0.495 OA
BRANCH  25  26
ATOM     26  C   UNL     1       1.525   2.618  21.379  0.00  0.00    +0.079 C 
ATOM     27  H   UNL     1       2.279   2.000  20.880  0.00  0.00    +0.066 HD
ATOM     28  H   UNL     1       0.615   2.697  20.774  0.00  0.00    +0.066 HD
ATOM     29  H   UNL     1       1.258   2.123  22.318  0.00  0.00    +0.066 HD
ENDBRANCH  25  26
ENDBRANCH   5  25
TORSDOF 3
ENDMDL
MODEL 17
REMARK VINA RESULT:    -5.163      2.902      5.542
REMARK INTER + INTRA:          -6.117
REMARK INTER:                  -5.923
REMARK INTRA:                  -0.194
REMARK UNBOUND:                -0.199
REMARK  Name = 
REMARK  3 active torsions:
REMARK  status: ('A' for Active; 'I' for Inactive)
REMARK    1  A    between atoms: N_6  and  C_7
REMARK    2  A    between atoms: C_11  and  O_13
REMARK    3  A    between atoms: O_13  and  C_14
REMARK                            x       y       z     vdW  Elec       q    Type
REMARK                         _______ _______ _______ _____ _____    ______ ____
ROOT
ATOM      1  C   UNL     1       4.285   5.121  18.574  0.00  0.00    +0.035 A 
ATOM      2  C   UNL     1       3.507   5.906  19.441  0.00  0.00    -0.022 A 
ATOM      3  C   UNL     1       2.207   5.536  19.781  0.00  0.00    +0.046 A 
ATOM      4  C   UNL     1       1.650   4.370  19.273  0.00  0.00    -0.002 A 
ATOM      5  C   UNL     1       2.399   3.561  18.421  0.00  0.00    +0.123 A 
ATOM      6  C   UNL     1       3.706   3.937  18.082  0.00  0.00    +0.001 A 
ATOM      7 CL   UNL     1       1.288   6.529  20.846  0.00  0.00    -0.083 Cl
ATOM      8  H   UNL     1       3.931   6.806  19.880  0.00  0.00    +0.065 HD
ATOM      9  H   UNL     1       0.638   4.082  19.538  0.00  0.00    +0.067 HD
ATOM     10  H   UNL     1       4.281   3.309  17.412  0.00  0.00    +0.067 HD
ENDROOT
BRANCH   1  16
ATOM     11  C   UNL     1       5.782   6.750  17.453  0.00  0.00    +0.036 C 
ATOM     12  C   UNL     1       7.257   6.885  17.045  0.00  0.00    +0.063 C 
ATOM     13  O   UNL     1       8.115   6.918  18.197  0.00  0.00    -0.377 OA
ATOM     14  C   UNL     1       7.971   5.702  18.949  0.00  0.00    +0.063 C 
ATOM     15  C   UNL     1       6.523   5.496  19.428  0.00  0.00    +0.036 C 
ATOM     16  N   UNL     1       5.595   5.530  18.268  0.00  0.00    -0.325 N 
ATOM     17  H   UNL     1       5.170   6.706  16.544  0.00  0.00    +0.049 HD
ATOM     18  H   UNL     1       5.494   7.633  18.038  0.00  0.00    +0.049 HD
ATOM     19  H   UNL     1       7.565   6.059  16.392  0.00  0.00    +0.058 HD
ATOM     20  H   UNL     1       7.406   7.819  16.494  0.00  0.00    +0.058 HD
ATOM     21  H   UNL     1       8.641   5.766  19.813  0.00  0.00    +0.058 HD
ATOM     22  H   UNL     1       8.302   4.860  18.330  0.00  0.00    +0.058 HD
ATOM     23  H   UNL     1       6.475   4.546  19.969  0.00  0.00    +0.049 HD
ATOM     24  H   UNL     1       6.252   6.301  20.123  0.00  0.00    +0.049 HD
ENDBRANCH   1  16
BRANCH   5  25
ATOM     25  O   UNL     1       1.747   2.439  17.988  0.00  0.00    -0.495 OA
BRANCH  25  26
ATOM     26  C   UNL     1       0.739   1.904  18.835  0.00  0.00    +0.079 C 
ATOM     27  H   UNL     1       0.466   2.616  19.622  0.00  0.00    +0.066 HD
ATOM     28  H   UNL     1       1.049   0.943  19.260  0.00  0.00    +0.066 HD
ATOM     29  H   UNL     1      -0.152   1.725  18.224  0.00  0.00    +0.066 HD
ENDBRANCH  25  26
ENDBRANCH   5  25
TORSDOF 3
ENDMDL
MODEL 18
REMARK VINA RESULT:    -5.131      2.796      5.771
REMARK INTER + INTRA:          -6.080
REMARK INTER:                  -5.860
REMARK INTRA:                  -0.219
REMARK UNBOUND:                -0.199
REMARK  Name = 
REMARK  3 active torsions:
REMARK  status: ('A' for Active; 'I' for Inactive)
REMARK    1  A    between atoms: N_6  and  C_7
REMARK    2  A    between atoms: C_11  and  O_13
REMARK    3  A    between atoms: O_13  and  C_14
REMARK                            x       y       z     vdW  Elec       q    Type
REMARK                         _______ _______ _______ _____ _____    ______ ____
ROOT
ATOM      1  C   UNL     1       3.903   6.039  17.792  0.00  0.00    +0.035 A 
ATOM      2  C   UNL     1       3.478   7.344  17.495  0.00  0.00    -0.022 A 
ATOM      3  C   UNL     1       2.558   8.008  18.305  0.00  0.00    +0.046 A 
ATOM      4  C   UNL     1       2.043   7.392  19.437  0.00  0.00    -0.002 A 
ATOM      5  C   UNL     1       2.454   6.103  19.769  0.00  0.00    +0.123 A 
ATOM      6  C   UNL     1       3.379   5.439  18.952  0.00  0.00    +0.001 A 
ATOM      7 CL   UNL     1       2.063   9.607  17.901  0.00  0.00    -0.083 Cl
ATOM      8  H   UNL     1       3.892   7.862  16.633  0.00  0.00    +0.065 HD
ATOM      9  H   UNL     1       1.326   7.909  20.068  0.00  0.00    +0.067 HD
ATOM     10  H   UNL     1       3.688   4.433  19.210  0.00  0.00    +0.067 HD
ENDROOT
BRANCH   1  16
ATOM     11  C   UNL     1       4.604   4.011  16.548  0.00  0.00    +0.036 C 
ATOM     12  C   UNL     1       5.845   3.456  15.832  0.00  0.00    +0.063 C 
ATOM     13  O   UNL     1       6.186   4.254  14.687  0.00  0.00    -0.377 OA
ATOM     14  C   UNL     1       6.474   5.601  15.097  0.00  0.00    +0.063 C 
ATOM     15  C   UNL     1       5.270   6.251  15.801  0.00  0.00    +0.036 C 
ATOM     16  N   UNL     1       4.841   5.415  16.951  0.00  0.00    -0.325 N 
ATOM     17  H   UNL     1       4.397   3.387  17.425  0.00  0.00    +0.049 HD
ATOM     18  H   UNL     1       3.748   3.964  15.862  0.00  0.00    +0.049 HD
ATOM     19  H   UNL     1       6.707   3.415  16.510  0.00  0.00    +0.058 HD
ATOM     20  H   UNL     1       5.647   2.439  15.481  0.00  0.00    +0.058 HD
ATOM     21  H   UNL     1       6.731   6.172  14.199  0.00  0.00    +0.058 HD
ATOM     22  H   UNL     1       7.353   5.593  15.752  0.00  0.00    +0.058 HD
ATOM     23  H   UNL     1       5.561   7.261  16.110  0.00  0.00    +0.049 HD
ATOM     24  H   UNL     1       4.436   6.336  15.093  0.00  0.00    +0.049 HD
ENDBRANCH   1  16
BRANCH   5  25
ATOM     25  O   UNL     1       1.882   5.602  20.907  0.00  0.00    -0.495 OA
BRANCH  25  26
ATOM     26  C   UNL     1       2.099   4.226  21.193  0.00  0.00    +0.079 C 
ATOM     27  H   UNL     1       3.032   4.080  21.747  0.00  0.00    +0.066 HD
ATOM     28  H   UNL     1       2.084   3.626  20.277  0.00  0.00    +0.066 HD
ATOM     29  H   UNL     1       1.277   3.882  21.829  0.00  0.00    +0.066 HD
ENDBRANCH  25  26
ENDBRANCH   5  25
TORSDOF 3
ENDMDL
MODEL 19
REMARK VINA RESULT:    -5.002      4.391      5.731
REMARK INTER + INTRA:          -5.932
REMARK INTER:                  -5.716
REMARK INTRA:                  -0.216
REMARK UNBOUND:                -0.199
REMARK  Name = 
REMARK  3 active torsions:
REMARK  status: ('A' for Active; 'I' for Inactive)
REMARK    1  A    between atoms: N_6  and  C_7
REMARK    2  A    between atoms: C_11  and  O_13
REMARK    3  A    between atoms: O_13  and  C_14
REMARK                            x       y       z     vdW  Elec       q    Type
REMARK                         _______ _______ _______ _____ _____    ______ ____
ROOT
ATOM      1  C   UNL     1       2.269   6.780  19.605  0.00  0.00    +0.035 A 
ATOM      2  C   UNL     1       1.576   7.185  20.757  0.00  0.00    -0.022 A 
ATOM      3  C   UNL     1       1.028   8.462  20.860  0.00  0.00    +0.046 A 
ATOM      4  C   UNL     1       1.149   9.368  19.815  0.00  0.00    -0.002 A 
ATOM      5  C   UNL     1       1.818   8.994  18.651  0.00  0.00    +0.123 A 
ATOM      6  C   UNL     1       2.368   7.708  18.552  0.00  0.00    +0.001 A 
ATOM      7 CL   UNL     1       0.188   8.918  22.293  0.00  0.00    -0.083 Cl
ATOM      8  H   UNL     1       1.437   6.484  21.577  0.00  0.00    +0.065 HD
ATOM      9  H   UNL     1       0.722  10.363  19.895  0.00  0.00    +0.067 HD
ATOM     10  H   UNL     1       2.895   7.425  17.649  0.00  0.00    +0.067 HD
ENDROOT
BRANCH   1  16
ATOM     11  C   UNL     1       4.252   5.313  19.349  0.00  0.00    +0.036 C 
ATOM     12  C   UNL     1       4.581   3.836  19.080  0.00  0.00    +0.063 C 
ATOM     13  O   UNL     1       4.121   2.997  20.152  0.00  0.00    -0.377 OA
ATOM     14  C   UNL     1       2.696   3.118  20.292  0.00  0.00    +0.063 C 
ATOM     15  C   UNL     1       2.274   4.566  20.595  0.00  0.00    +0.036 C 
ATOM     16  N   UNL     1       2.795   5.478  19.543  0.00  0.00    -0.325 N 
ATOM     17  H   UNL     1       4.599   5.909  18.498  0.00  0.00    +0.049 HD
ATOM     18  H   UNL     1       4.784   5.635  20.255  0.00  0.00    +0.049 HD
ATOM     19  H   UNL     1       4.130   3.495  18.140  0.00  0.00    +0.058 HD
ATOM     20  H   UNL     1       5.664   3.705  18.998  0.00  0.00    +0.058 HD
ATOM     21  H   UNL     1       2.387   2.463  21.113  0.00  0.00    +0.058 HD
ATOM     22  H   UNL     1       2.217   2.754  19.376  0.00  0.00    +0.058 HD
ATOM     23  H   UNL     1       1.182   4.596  20.663  0.00  0.00    +0.049 HD
ATOM     24  H   UNL     1       2.687   4.871  21.565  0.00  0.00    +0.049 HD
ENDBRANCH   1  16
BRANCH   5  25
ATOM     25  O   UNL     1       1.870   9.967  17.691  0.00  0.00    -0.495 OA
BRANCH  25  26
ATOM     26  C   UNL     1       2.110  11.299  18.126  0.00  0.00    +0.079 C 
ATOM     27  H   UNL     1       1.306  11.651  18.780  0.00  0.00    +0.066 HD
ATOM     28  H   UNL     1       2.253  11.973  17.274  0.00  0.00    +0.066 HD
ATOM     29  H   UNL     1       3.037  11.298  18.708  0.00  0.00    +0.066 HD
ENDBRANCH  25  26
ENDBRANCH   5  25
TORSDOF 3
ENDMDL
MODEL 20
REMARK VINA RESULT:    -4.929      5.428      7.164
REMARK INTER + INTRA:          -5.848
REMARK INTER:                  -5.629
REMARK INTRA:                  -0.219
REMARK UNBOUND:                -0.199
REMARK  Name = 
REMARK  3 active torsions:
REMARK  status: ('A' for Active; 'I' for Inactive)
REMARK    1  A    between atoms: N_6  and  C_7
REMARK    2  A    between atoms: C_11  and  O_13
REMARK    3  A    between atoms: O_13  and  C_14
REMARK                            x       y       z     vdW  Elec       q    Type
REMARK                         _______ _______ _______ _____ _____    ______ ____
ROOT
ATOM      1  C   UNL     1       1.607   8.233  20.026  0.00  0.00    +0.035 A 
ATOM      2  C   UNL     1       1.129   8.372  21.339  0.00  0.00    -0.022 A 
ATOM      3  C   UNL     1       0.340   9.459  21.711  0.00  0.00    +0.046 A 
ATOM      4  C   UNL     1      -0.001  10.433  20.782  0.00  0.00    -0.002 A 
ATOM      5  C   UNL     1       0.445  10.319  19.467  0.00  0.00    +0.123 A 
ATOM      6  C   UNL     1       1.238   9.224  19.097  0.00  0.00    +0.001 A 
ATOM      7 CL   UNL     1      -0.223   9.591  23.333  0.00  0.00    -0.083 Cl
ATOM      8  H   UNL     1       1.352   7.606  22.077  0.00  0.00    +0.065 HD
ATOM      9  H   UNL     1      -0.616  11.280  21.071  0.00  0.00    +0.067 HD
ATOM     10  H   UNL     1       1.590   9.145  18.076  0.00  0.00    +0.067 HD
ENDROOT
BRANCH   1  16
ATOM     11  C   UNL     1       2.024   5.801  20.269  0.00  0.00    +0.036 C 
ATOM     12  C   UNL     1       3.128   4.774  19.975  0.00  0.00    +0.063 C 
ATOM     13  O   UNL     1       3.366   4.655  18.563  0.00  0.00    -0.377 OA
ATOM     14  C   UNL     1       3.781   5.922  18.027  0.00  0.00    +0.063 C 
ATOM     15  C   UNL     1       2.718   7.011  18.250  0.00  0.00    +0.036 C 
ATOM     16  N   UNL     1       2.391   7.114  19.696  0.00  0.00    -0.325 N 
ATOM     17  H   UNL     1       1.895   5.875  21.355  0.00  0.00    +0.049 HD
ATOM     18  H   UNL     1       1.086   5.451  19.818  0.00  0.00    +0.049 HD
ATOM     19  H   UNL     1       4.066   5.048  20.474  0.00  0.00    +0.058 HD
ATOM     20  H   UNL     1       2.828   3.789  20.345  0.00  0.00    +0.058 HD
ATOM     21  H   UNL     1       3.954   5.787  16.955  0.00  0.00    +0.058 HD
ATOM     22  H   UNL     1       4.735   6.206  18.486  0.00  0.00    +0.058 HD
ATOM     23  H   UNL     1       3.103   7.952  17.845  0.00  0.00    +0.049 HD
ATOM     24  H   UNL     1       1.806   6.748  17.699  0.00  0.00    +0.049 HD
ENDBRANCH   1  16
BRANCH   5  25
ATOM     25  O   UNL     1       0.043  11.335  18.643  0.00  0.00    -0.495 OA
BRANCH  25  26
ATOM     26  C   UNL     1      -1.317  11.740  18.725  0.00  0.00    +0.079 C 
ATOM     27  H   UNL     1      -1.398  12.811  18.940  0.00  0.00    +0.066 HD
ATOM     28  H   UNL     1      -1.862  11.144  19.465  0.00  0.00    +0.066 HD
ATOM     29  H   UNL     1      -1.779  11.561  17.748  0.00  0.00    +0.066 HD
ENDBRANCH  25  26
ENDBRANCH   5  25
TORSDOF 3
ENDMDL
MODEL 21
REMARK VINA RESULT:    -4.915      3.930      6.246
REMARK INTER + INTRA:          -5.832
REMARK INTER:                  -5.621
REMARK INTRA:                  -0.211
REMARK UNBOUND:                -0.199
REMARK  Name = 
REMARK  3 active torsions:
REMARK  status: ('A' for Active; 'I' for Inactive)
REMARK    1  A    between atoms: N_6  and  C_7
REMARK    2  A    between atoms: C_11  and  O_13
REMARK    3  A    between atoms: O_13  and  C_14
REMARK                            x       y       z     vdW  Elec       q    Type
REMARK                         _______ _______ _______ _____ _____    ______ ____
ROOT
ATOM      1  C   UNL     1       2.287   6.582  19.780  0.00  0.00    +0.035 A 
ATOM      2  C   UNL     1       2.384   7.558  18.775  0.00  0.00    -0.022 A 
ATOM      3  C   UNL     1       1.804   8.817  18.931  0.00  0.00    +0.046 A 
ATOM      4  C   UNL     1       1.120   9.138  20.095  0.00  0.00    -0.002 A 
ATOM      5  C   UNL     1       1.018   8.198  21.118  0.00  0.00    +0.123 A 
ATOM      6  C   UNL     1       1.602   6.933  20.957  0.00  0.00    +0.001 A 
ATOM      7 CL   UNL     1       1.945   9.983  17.672  0.00  0.00    -0.083 Cl
ATOM      8  H   UNL     1       2.943   7.344  17.868  0.00  0.00    +0.065 HD
ATOM      9  H   UNL     1       0.669  10.118  20.216  0.00  0.00    +0.067 HD
ATOM     10  H   UNL     1       1.511   6.203  21.752  0.00  0.00    +0.067 HD
ENDROOT
BRANCH   1  16
ATOM     11  C   UNL     1       4.361   5.284  19.376  0.00  0.00    +0.036 C 
ATOM     12  C   UNL     1       4.784   3.868  18.951  0.00  0.00    +0.063 C 
ATOM     13  O   UNL     1       4.384   2.891  19.925  0.00  0.00    -0.377 OA
ATOM     14  C   UNL     1       2.955   2.903  20.073  0.00  0.00    +0.063 C 
ATOM     15  C   UNL     1       2.441   4.280  20.528  0.00  0.00    +0.036 C 
ATOM     16  N   UNL     1       2.897   5.331  19.581  0.00  0.00    -0.325 N 
ATOM     17  H   UNL     1       4.665   5.989  18.594  0.00  0.00    +0.049 HD
ATOM     18  H   UNL     1       4.873   5.540  20.312  0.00  0.00    +0.049 HD
ATOM     19  H   UNL     1       4.353   3.602  17.978  0.00  0.00    +0.058 HD
ATOM     20  H   UNL     1       5.873   3.818  18.859  0.00  0.00    +0.058 HD
ATOM     21  H   UNL     1       2.693   2.146  20.819  0.00  0.00    +0.058 HD
ATOM     22  H   UNL     1       2.497   2.609  19.122  0.00  0.00    +0.058 HD
ATOM     23  H   UNL     1       1.349   4.231  20.596  0.00  0.00    +0.049 HD
ATOM     24  H   UNL     1       2.836   4.506  21.526  0.00  0.00    +0.049 HD
ENDBRANCH   1  16
BRANCH   5  25
ATOM     25  O   UNL     1       0.324   8.629  22.216  0.00  0.00    -0.495 OA
BRANCH  25  26
ATOM     26  C   UNL     1      -0.009  10.010  22.274  0.00  0.00    +0.079 C 
ATOM     27  H   UNL     1      -0.105  10.435  21.270  0.00  0.00    +0.066 HD
ATOM     28  H   UNL     1       0.720  10.567  22.873  0.00  0.00    +0.066 HD
ATOM     29  H   UNL     1      -0.982  10.099  22.768  0.00  0.00    +0.066 HD
ENDBRANCH  25  26
ENDBRANCH   5  25
TORSDOF 3
ENDMDL
MODEL 22
REMARK VINA RESULT:    -4.907      4.388      5.746
REMARK INTER + INTRA:          -5.823
REMARK INTER:                  -5.625
REMARK INTRA:                  -0.197
REMARK UNBOUND:                -0.199
REMARK  Name = 
REMARK  3 active torsions:
REMARK  status: ('A' for Active; 'I' for Inactive)
REMARK    1  A    between atoms: N_6  and  C_7
REMARK    2  A    between atoms: C_11  and  O_13
REMARK    3  A    between atoms: O_13  and  C_14
REMARK                            x       y       z     vdW  Elec       q    Type
REMARK                         _______ _______ _______ _____ _____    ______ ____
ROOT
ATOM      1  C   UNL     1       2.318   6.756  19.638  0.00  0.00    +0.035 A 
ATOM      2  C   UNL     1       1.595   7.159  20.773  0.00  0.00    -0.022 A 
ATOM      3  C   UNL     1       1.017   8.425  20.851  0.00  0.00    +0.046 A 
ATOM      4  C   UNL     1       1.138   9.321  19.797  0.00  0.00    -0.002 A 
ATOM      5  C   UNL     1       1.837   8.948  18.651  0.00  0.00    +0.123 A 
ATOM      6  C   UNL     1       2.416   7.674  18.577  0.00  0.00    +0.001 A 
ATOM      7 CL   UNL     1       0.140   8.878  22.262  0.00  0.00    -0.083 Cl
ATOM      8  H   UNL     1       1.456   6.464  21.598  0.00  0.00    +0.065 HD
ATOM      9  H   UNL     1       0.688  10.307  19.858  0.00  0.00    +0.067 HD
ATOM     10  H   UNL     1       2.967   7.393  17.687  0.00  0.00    +0.067 HD
ENDROOT
BRANCH   1  16
ATOM     11  C   UNL     1       2.012   4.337  19.189  0.00  0.00    +0.036 C 
ATOM     12  C   UNL     1       2.738   3.005  19.439  0.00  0.00    +0.063 C 
ATOM     13  O   UNL     1       3.992   2.957  18.741  0.00  0.00    -0.377 OA
ATOM     14  C   UNL     1       4.846   4.022  19.193  0.00  0.00    +0.063 C 
ATOM     15  C   UNL     1       4.210   5.402  18.954  0.00  0.00    +0.036 C 
ATOM     16  N   UNL     1       2.874   5.465  19.602  0.00  0.00    -0.325 N 
ATOM     17  H   UNL     1       1.075   4.337  19.758  0.00  0.00    +0.049 HD
ATOM     18  H   UNL     1       1.783   4.420  18.118  0.00  0.00    +0.049 HD
ATOM     19  H   UNL     1       2.917   2.848  20.510  0.00  0.00    +0.058 HD
ATOM     20  H   UNL     1       2.125   2.175  19.077  0.00  0.00    +0.058 HD
ATOM     21  H   UNL     1       5.788   3.947  18.641  0.00  0.00    +0.058 HD
ATOM     22  H   UNL     1       5.068   3.871  20.256  0.00  0.00    +0.058 HD
ATOM     23  H   UNL     1       4.894   6.164  19.342  0.00  0.00    +0.049 HD
ATOM     24  H   UNL     1       4.090   5.566  17.876  0.00  0.00    +0.049 HD
ENDBRANCH   1  16
BRANCH   5  25
ATOM     25  O   UNL     1       1.886   9.912  17.680  0.00  0.00    -0.495 OA
BRANCH  25  26
ATOM     26  C   UNL     1       2.076  11.255  18.105  0.00  0.00    +0.079 C 
ATOM     27  H   UNL     1       2.951  11.702  17.622  0.00  0.00    +0.066 HD
ATOM     28  H   UNL     1       2.151  11.316  19.196  0.00  0.00    +0.066 HD
ATOM     29  H   UNL     1       1.197  11.830  17.800  0.00  0.00    +0.066 HD
ENDBRANCH  25  26
ENDBRANCH   5  25
TORSDOF 3
ENDMDL
MODEL 23
REMARK VINA RESULT:    -4.838      3.883      6.286
REMARK INTER + INTRA:          -5.744
REMARK INTER:                  -5.549
REMARK INTRA:                  -0.195
REMARK UNBOUND:                -0.199
REMARK  Name = 
REMARK  3 active torsions:
REMARK  status: ('A' for Active; 'I' for Inactive)
REMARK    1  A    between atoms: N_6  and  C_7
REMARK    2  A    between atoms: C_11  and  O_13
REMARK    3  A    between atoms: O_13  and  C_14
REMARK                            x       y       z     vdW  Elec       q    Type
REMARK                         _______ _______ _______ _____ _____    ______ ____
ROOT
ATOM      1  C   UNL     1       2.284   6.578  19.520  0.00  0.00    +0.035 A 
ATOM      2  C   UNL     1       2.319   7.620  18.579  0.00  0.00    -0.022 A 
ATOM      3  C   UNL     1       1.797   8.878  18.873  0.00  0.00    +0.046 A 
ATOM      4  C   UNL     1       1.233   9.134  20.116  0.00  0.00    -0.002 A 
ATOM      5  C   UNL     1       1.195   8.127  21.078  0.00  0.00    +0.123 A 
ATOM      6  C   UNL     1       1.721   6.863  20.777  0.00  0.00    +0.001 A 
ATOM      7 CL   UNL     1       1.859  10.127  17.689  0.00  0.00    -0.083 Cl
ATOM      8  H   UNL     1       2.786   7.456  17.611  0.00  0.00    +0.065 HD
ATOM      9  H   UNL     1       0.826  10.114  20.345  0.00  0.00    +0.067 HD
ATOM     10  H   UNL     1       1.680   6.081  21.526  0.00  0.00    +0.067 HD
ENDROOT
BRANCH   1  16
ATOM     11  C   UNL     1       2.310   4.628  17.987  0.00  0.00    +0.036 C 
ATOM     12  C   UNL     1       2.873   3.199  17.931  0.00  0.00    +0.063 C 
ATOM     13  O   UNL     1       4.309   3.206  17.918  0.00  0.00    -0.377 OA
ATOM     14  C   UNL     1       4.807   3.834  19.110  0.00  0.00    +0.063 C 
ATOM     15  C   UNL     1       4.317   5.287  19.236  0.00  0.00    +0.036 C 
ATOM     16  N   UNL     1       2.833   5.328  19.181  0.00  0.00    -0.325 N 
ATOM     17  H   UNL     1       1.216   4.573  18.020  0.00  0.00    +0.049 HD
ATOM     18  H   UNL     1       2.617   5.166  17.080  0.00  0.00    +0.049 HD
ATOM     19  H   UNL     1       2.525   2.604  18.784  0.00  0.00    +0.058 HD
ATOM     20  H   UNL     1       2.535   2.703  17.017  0.00  0.00    +0.058 HD
ATOM     21  H   UNL     1       5.901   3.815  19.062  0.00  0.00    +0.058 HD
ATOM     22  H   UNL     1       4.501   3.240  19.979  0.00  0.00    +0.058 HD
ATOM     23  H   UNL     1       4.707   5.698  20.173  0.00  0.00    +0.049 HD
ATOM     24  H   UNL     1       4.720   5.881  18.407  0.00  0.00    +0.049 HD
ENDBRANCH   1  16
BRANCH   5  25
ATOM     25  O   UNL     1       0.619   8.497  22.263  0.00  0.00    -0.495 OA
BRANCH  25  26
ATOM     26  C   UNL     1      -0.230   9.638  22.245  0.00  0.00    +0.079 C 
ATOM     27  H   UNL     1      -1.272   9.357  22.427  0.00  0.00    +0.066 HD
ATOM     28  H   UNL     1      -0.126  10.192  21.306  0.00  0.00    +0.066 HD
ATOM     29  H   UNL     1       0.084  10.301  23.058  0.00  0.00    +0.066 HD
ENDBRANCH  25  26
ENDBRANCH   5  25
TORSDOF 3
ENDMDL
MODEL 24
REMARK VINA RESULT:    -4.825      5.254      7.620
REMARK INTER + INTRA:          -5.729
REMARK INTER:                  -5.507
REMARK INTRA:                  -0.222
REMARK UNBOUND:                -0.199
REMARK  Name = 
REMARK  3 active torsions:
REMARK  status: ('A' for Active; 'I' for Inactive)
REMARK    1  A    between atoms: N_6  and  C_7
REMARK    2  A    between atoms: C_11  and  O_13
REMARK    3  A    between atoms: O_13  and  C_14
REMARK                            x       y       z     vdW  Elec       q    Type
REMARK                         _______ _______ _______ _____ _____    ______ ____
ROOT
ATOM      1  C   UNL     1       1.667   8.264  19.813  0.00  0.00    +0.035 A 
ATOM      2  C   UNL     1       1.170   9.270  18.967  0.00  0.00    -0.022 A 
ATOM      3  C   UNL     1       0.231  10.196  19.419  0.00  0.00    +0.046 A 
ATOM      4  C   UNL     1      -0.231  10.150  20.727  0.00  0.00    -0.002 A 
ATOM      5  C   UNL     1       0.252   9.174  21.596  0.00  0.00    +0.123 A 
ATOM      6  C   UNL     1       1.196   8.245  21.138  0.00  0.00    +0.001 A 
ATOM      7 CL   UNL     1      -0.353  11.411  18.347  0.00  0.00    -0.083 Cl
ATOM      8  H   UNL     1       1.541   9.349  17.948  0.00  0.00    +0.065 HD
ATOM      9  H   UNL     1      -0.962  10.872  21.078  0.00  0.00    +0.067 HD
ATOM     10  H   UNL     1       1.561   7.483  21.815  0.00  0.00    +0.067 HD
ENDROOT
BRANCH   1  16
ATOM     11  C   UNL     1       2.467   5.924  19.635  0.00  0.00    +0.036 C 
ATOM     12  C   UNL     1       3.723   5.153  19.198  0.00  0.00    +0.063 C 
ATOM     13  O   UNL     1       3.979   5.327  17.795  0.00  0.00    -0.377 OA
ATOM     14  C   UNL     1       4.187   6.719  17.505  0.00  0.00    +0.063 C 
ATOM     15  C   UNL     1       2.963   7.570  17.884  0.00  0.00    +0.036 C 
ATOM     16  N   UNL     1       2.621   7.359  19.315  0.00  0.00    -0.325 N 
ATOM     17  H   UNL     1       2.326   5.781  20.713  0.00  0.00    +0.049 HD
ATOM     18  H   UNL     1       1.598   5.518  19.101  0.00  0.00    +0.049 HD
ATOM     19  H   UNL     1       4.604   5.477  19.766  0.00  0.00    +0.058 HD
ATOM     20  H   UNL     1       3.583   4.083  19.379  0.00  0.00    +0.058 HD
ATOM     21  H   UNL     1       4.381   6.807  16.431  0.00  0.00    +0.058 HD
ATOM     22  H   UNL     1       5.082   7.063  18.036  0.00  0.00    +0.058 HD
ATOM     23  H   UNL     1       3.193   8.617  17.664  0.00  0.00    +0.049 HD
ATOM     24  H   UNL     1       2.106   7.271  17.267  0.00  0.00    +0.049 HD
ENDBRANCH   1  16
BRANCH   5  25
ATOM     25  O   UNL     1      -0.273   9.231  22.859  0.00  0.00    -0.495 OA
BRANCH  25  26
ATOM     26  C   UNL     1      -0.984  10.409  23.215  0.00  0.00    +0.079 C 
ATOM     27  H   UNL     1      -1.658  10.224  24.059  0.00  0.00    +0.066 HD
ATOM     28  H   UNL     1      -1.527  10.818  22.356  0.00  0.00    +0.066 HD
ATOM     29  H   UNL     1      -0.252  11.159  23.532  0.00  0.00    +0.066 HD
ENDBRANCH  25  26
ENDBRANCH   5  25
TORSDOF 3
ENDMDL
MODEL 25
REMARK VINA RESULT:    -4.669      2.307      2.655
REMARK INTER + INTRA:          -5.550
REMARK INTER:                  -5.365
REMARK INTRA:                  -0.185
REMARK UNBOUND:                -0.199
REMARK  Name = 
REMARK  3 active torsions:
REMARK  status: ('A' for Active; 'I' for Inactive)
REMARK    1  A    between atoms: N_6  and  C_7
REMARK    2  A    between atoms: C_11  and  O_13
REMARK    3  A    between atoms: O_13  and  C_14
REMARK                            x       y       z     vdW  Elec       q    Type
REMARK                         _______ _______ _______ _____ _____    ______ ____
ROOT
ATOM      1  C   UNL     1       4.701   5.693  17.815  0.00  0.00    +0.035 A 
ATOM      2  C   UNL     1       5.871   5.780  18.589  0.00  0.00    -0.022 A 
ATOM      3  C   UNL     1       7.048   5.147  18.194  0.00  0.00    +0.046 A 
ATOM      4  C   UNL     1       7.094   4.417  17.014  0.00  0.00    -0.002 A 
ATOM      5  C   UNL     1       5.956   4.322  16.216  0.00  0.00    +0.123 A 
ATOM      6  C   UNL     1       4.774   4.960  16.617  0.00  0.00    +0.001 A 
ATOM      7 CL   UNL     1       8.458   5.279  19.174  0.00  0.00    -0.083 Cl
ATOM      8  H   UNL     1       5.871   6.374  19.500  0.00  0.00    +0.065 HD
ATOM      9  H   UNL     1       8.011   3.924  16.707  0.00  0.00    +0.067 HD
ATOM     10  H   UNL     1       3.890   4.875  15.997  0.00  0.00    +0.067 HD
ENDROOT
BRANCH   1  16
ATOM     11  C   UNL     1       3.182   6.287  19.683  0.00  0.00    +0.036 C 
ATOM     12  C   UNL     1       1.778   6.874  19.899  0.00  0.00    +0.063 C 
ATOM     13  O   UNL     1       1.702   8.230  19.430  0.00  0.00    -0.377 OA
ATOM     14  C   UNL     1       1.994   8.279  18.024  0.00  0.00    +0.063 C 
ATOM     15  C   UNL     1       3.399   7.736  17.714  0.00  0.00    +0.036 C 
ATOM     16  N   UNL     1       3.541   6.357  18.250  0.00  0.00    -0.325 N 
ATOM     17  H   UNL     1       3.184   5.248  20.032  0.00  0.00    +0.049 HD
ATOM     18  H   UNL     1       3.903   6.868  20.273  0.00  0.00    +0.049 HD
ATOM     19  H   UNL     1       1.015   6.275  19.386  0.00  0.00    +0.058 HD
ATOM     20  H   UNL     1       1.538   6.878  20.966  0.00  0.00    +0.058 HD
ATOM     21  H   UNL     1       1.923   9.325  17.708  0.00  0.00    +0.058 HD
ATOM     22  H   UNL     1       1.227   7.713  17.482  0.00  0.00    +0.058 HD
ATOM     23  H   UNL     1       3.549   7.776  16.630  0.00  0.00    +0.049 HD
ATOM     24  H   UNL     1       4.151   8.380  18.188  0.00  0.00    +0.049 HD
ENDBRANCH   1  16
BRANCH   5  25
ATOM     25  O   UNL     1       6.123   3.580  15.078  0.00  0.00    -0.495 OA
BRANCH  25  26
ATOM     26  C   UNL     1       6.501   4.277  13.898  0.00  0.00    +0.079 C 
ATOM     27  H   UNL     1       6.668   3.584  13.066  0.00  0.00    +0.066 HD
ATOM     28  H   UNL     1       7.383   4.903  14.074  0.00  0.00    +0.066 HD
ATOM     29  H   UNL     1       5.674   4.938  13.620  0.00  0.00    +0.066 HD
ENDBRANCH  25  26
ENDBRANCH   5  25
TORSDOF 3
ENDMDL
MODEL 26
REMARK VINA RESULT:    -4.646      7.928      9.516
REMARK INTER + INTRA:          -5.525
REMARK INTER:                  -5.311
REMARK INTRA:                  -0.213
REMARK UNBOUND:                -0.199
REMARK  Name = 
REMARK  3 active torsions:
REMARK  status: ('A' for Active; 'I' for Inactive)
REMARK    1  A    between atoms: N_6  and  C_7
REMARK    2  A    between atoms: C_11  and  O_13
REMARK    3  A    between atoms: O_13  and  C_14
REMARK                            x       y       z     vdW  Elec       q    Type
REMARK                         _______ _______ _______ _____ _____    ______ ____
ROOT
ATOM      1  C   UNL     1      -1.160  10.566  18.449  0.00  0.00    +0.035 A 
ATOM      2  C   UNL     1      -0.048   9.839  17.994  0.00  0.00    -0.022 A 
ATOM      3  C   UNL     1       0.980   9.471  18.860  0.00  0.00    +0.046 A 
ATOM      4  C   UNL     1       0.923   9.812  20.205  0.00  0.00    -0.002 A 
ATOM      5  C   UNL     1      -0.173  10.520  20.693  0.00  0.00    +0.123 A 
ATOM      6  C   UNL     1      -1.204  10.887  19.818  0.00  0.00    +0.001 A 
ATOM      7 CL   UNL     1       2.327   8.582  18.259  0.00  0.00    -0.083 Cl
ATOM      8  H   UNL     1       0.005   9.531  16.952  0.00  0.00    +0.065 HD
ATOM      9  H   UNL     1       1.724   9.525  20.880  0.00  0.00    +0.067 HD
ATOM     10  H   UNL     1      -2.050  11.446  20.200  0.00  0.00    +0.067 HD
ENDROOT
BRANCH   1  16
ATOM     11  C   UNL     1      -2.300  10.118  16.293  0.00  0.00    +0.036 C 
ATOM     12  C   UNL     1      -3.308  10.790  15.347  0.00  0.00    +0.063 C 
ATOM     13  O   UNL     1      -4.592  10.938  15.974  0.00  0.00    -0.377 OA
ATOM     14  C   UNL     1      -4.471  11.755  17.150  0.00  0.00    +0.063 C 
ATOM     15  C   UNL     1      -3.500  11.142  18.173  0.00  0.00    +0.036 C 
ATOM     16  N   UNL     1      -2.177  10.905  17.539  0.00  0.00    -0.325 N 
ATOM     17  H   UNL     1      -1.333  10.048  15.782  0.00  0.00    +0.049 HD
ATOM     18  H   UNL     1      -2.657   9.106  16.529  0.00  0.00    +0.049 HD
ATOM     19  H   UNL     1      -2.951  11.776  15.025  0.00  0.00    +0.058 HD
ATOM     20  H   UNL     1      -3.445  10.175  14.452  0.00  0.00    +0.058 HD
ATOM     21  H   UNL     1      -5.468  11.845  17.594  0.00  0.00    +0.058 HD
ATOM     22  H   UNL     1      -4.145  12.759  16.853  0.00  0.00    +0.058 HD
ATOM     23  H   UNL     1      -3.432  11.821  19.029  0.00  0.00    +0.049 HD
ATOM     24  H   UNL     1      -3.900  10.183  18.526  0.00  0.00    +0.049 HD
ENDBRANCH   1  16
BRANCH   5  25
ATOM     25  O   UNL     1      -0.119  10.794  22.033  0.00  0.00    -0.495 OA
BRANCH  25  26
ATOM     26  C   UNL     1      -0.333   9.710  22.927  0.00  0.00    +0.079 C 
ATOM     27  H   UNL     1       0.571   9.103  23.036  0.00  0.00    +0.066 HD
ATOM     28  H   UNL     1      -1.185   9.099  22.610  0.00  0.00    +0.066 HD
ATOM     29  H   UNL     1      -0.574  10.130  23.910  0.00  0.00    +0.066 HD
ENDBRANCH  25  26
ENDBRANCH   5  25
TORSDOF 3
ENDMDL
MODEL 27
REMARK VINA RESULT:    -4.541      2.920      5.834
REMARK INTER + INTRA:          -5.404
REMARK INTER:                  -5.215
REMARK INTRA:                  -0.189
REMARK UNBOUND:                -0.199
REMARK  Name = 
REMARK  3 active torsions:
REMARK  status: ('A' for Active; 'I' for Inactive)
REMARK    1  A    between atoms: N_6  and  C_7
REMARK    2  A    between atoms: C_11  and  O_13
REMARK    3  A    between atoms: O_13  and  C_14
REMARK                            x       y       z     vdW  Elec       q    Type
REMARK                         _______ _______ _______ _____ _____    ______ ____
ROOT
ATOM      1  C   UNL     1       4.725   4.856  18.808  0.00  0.00    +0.035 A 
ATOM      2  C   UNL     1       4.606   3.479  18.558  0.00  0.00    -0.022 A 
ATOM      3  C   UNL     1       3.459   2.774  18.919  0.00  0.00    +0.046 A 
ATOM      4  C   UNL     1       2.397   3.424  19.532  0.00  0.00    -0.002 A 
ATOM      5  C   UNL     1       2.475   4.792  19.782  0.00  0.00    +0.123 A 
ATOM      6  C   UNL     1       3.631   5.497  19.417  0.00  0.00    +0.001 A 
ATOM      7 CL   UNL     1       3.357   1.086  18.595  0.00  0.00    -0.083 Cl
ATOM      8  H   UNL     1       5.410   2.953  18.048  0.00  0.00    +0.065 HD
ATOM      9  H   UNL     1       1.503   2.875  19.813  0.00  0.00    +0.067 HD
ATOM     10  H   UNL     1       3.690   6.559  19.622  0.00  0.00    +0.067 HD
ENDROOT
BRANCH   1  16
ATOM     11  C   UNL     1       5.771   6.743  17.585  0.00  0.00    +0.036 C 
ATOM     12  C   UNL     1       7.156   7.178  17.081  0.00  0.00    +0.063 C 
ATOM     13  O   UNL     1       8.058   7.411  18.175  0.00  0.00    -0.377 OA
ATOM     14  C   UNL     1       8.221   6.205  18.940  0.00  0.00    +0.063 C 
ATOM     15  C   UNL     1       6.883   5.709  19.513  0.00  0.00    +0.036 C 
ATOM     16  N   UNL     1       5.897   5.526  18.416  0.00  0.00    -0.325 N 
ATOM     17  H   UNL     1       5.126   6.555  16.719  0.00  0.00    +0.049 HD
ATOM     18  H   UNL     1       5.340   7.556  18.185  0.00  0.00    +0.049 HD
ATOM     19  H   UNL     1       7.589   6.423  16.414  0.00  0.00    +0.058 HD
ATOM     20  H   UNL     1       7.069   8.112  16.518  0.00  0.00    +0.058 HD
ATOM     21  H   UNL     1       8.916   6.424  19.758  0.00  0.00    +0.058 HD
ATOM     22  H   UNL     1       8.683   5.441  18.304  0.00  0.00    +0.058 HD
ATOM     23  H   UNL     1       7.070   4.779  20.060  0.00  0.00    +0.049 HD
ATOM     24  H   UNL     1       6.492   6.450  20.221  0.00  0.00    +0.049 HD
ENDBRANCH   1  16
BRANCH   5  25
ATOM     25  O   UNL     1       1.367   5.322  20.386  0.00  0.00    -0.495 OA
BRANCH  25  26
ATOM     26  C   UNL     1       1.476   6.643  20.900  0.00  0.00    +0.079 C 
ATOM     27  H   UNL     1       2.213   6.693  21.708  0.00  0.00    +0.066 HD
ATOM     28  H   UNL     1       0.501   7.020  21.228  0.00  0.00    +0.066 HD
ATOM     29  H   UNL     1       1.826   7.290  20.089  0.00  0.00    +0.066 HD
ENDBRANCH  25  26
ENDBRANCH   5  25
TORSDOF 3
ENDMDL
MODEL 28
REMARK VINA RESULT:    -4.514      8.162      9.219
REMARK INTER + INTRA:          -5.373
REMARK INTER:                  -5.153
REMARK INTRA:                  -0.219
REMARK UNBOUND:                -0.199
REMARK  Name = 
REMARK  3 active torsions:
REMARK  status: ('A' for Active; 'I' for Inactive)
REMARK    1  A    between atoms: N_6  and  C_7
REMARK    2  A    between atoms: C_11  and  O_13
REMARK    3  A    between atoms: O_13  and  C_14
REMARK                            x       y       z     vdW  Elec       q    Type
REMARK                         _______ _______ _______ _____ _____    ______ ____
ROOT
ATOM      1  C   UNL     1      -1.236  10.700  18.511  0.00  0.00    +0.035 A 
ATOM      2  C   UNL     1      -1.338  11.283  19.785  0.00  0.00    -0.022 A 
ATOM      3  C   UNL     1      -0.382  11.042  20.770  0.00  0.00    +0.046 A 
ATOM      4  C   UNL     1       0.705  10.218  20.510  0.00  0.00    -0.002 A 
ATOM      5  C   UNL     1       0.845   9.635  19.253  0.00  0.00    +0.123 A 
ATOM      6  C   UNL     1      -0.119   9.881  18.265  0.00  0.00    +0.001 A 
ATOM      7 CL   UNL     1      -0.548  11.776  22.319  0.00  0.00    -0.083 Cl
ATOM      8  H   UNL     1      -2.162  11.959  20.004  0.00  0.00    +0.065 HD
ATOM      9  H   UNL     1       1.450  10.031  21.278  0.00  0.00    +0.067 HD
ATOM     10  H   UNL     1      -0.011   9.418  17.292  0.00  0.00    +0.067 HD
ENDROOT
BRANCH   1  16
ATOM     11  C   UNL     1      -2.260  10.160  16.318  0.00  0.00    +0.036 C 
ATOM     12  C   UNL     1      -3.244  10.774  15.310  0.00  0.00    +0.063 C 
ATOM     13  O   UNL     1      -4.560  10.896  15.874  0.00  0.00    -0.377 OA
ATOM     14  C   UNL     1      -4.519  11.746  17.032  0.00  0.00    +0.063 C 
ATOM     15  C   UNL     1      -3.577  11.191  18.114  0.00  0.00    +0.036 C 
ATOM     16  N   UNL     1      -2.220  10.982  17.547  0.00  0.00    -0.325 N 
ATOM     17  H   UNL     1      -1.269  10.109  15.854  0.00  0.00    +0.049 HD
ATOM     18  H   UNL     1      -2.595   9.144  16.565  0.00  0.00    +0.049 HD
ATOM     19  H   UNL     1      -2.903  11.763  14.978  0.00  0.00    +0.058 HD
ATOM     20  H   UNL     1      -3.319  10.133  14.427  0.00  0.00    +0.058 HD
ATOM     21  H   UNL     1      -5.538  11.814  17.427  0.00  0.00    +0.058 HD
ATOM     22  H   UNL     1      -4.212  12.752  16.724  0.00  0.00    +0.058 HD
ATOM     23  H   UNL     1      -3.571  11.893  18.954  0.00  0.00    +0.049 HD
ATOM     24  H   UNL     1      -3.963  10.229  18.474  0.00  0.00    +0.049 HD
ENDBRANCH   1  16
BRANCH   5  25
ATOM     25  O   UNL     1       1.956   8.849  19.114  0.00  0.00    -0.495 OA
BRANCH  25  26
ATOM     26  C   UNL     1       2.337   8.490  17.792  0.00  0.00    +0.079 C 
ATOM     27  H   UNL     1       3.381   8.755  17.596  0.00  0.00    +0.066 HD
ATOM     28  H   UNL     1       1.668   8.941  17.052  0.00  0.00    +0.066 HD
ATOM     29  H   UNL     1       2.248   7.402  17.702  0.00  0.00    +0.066 HD
ENDBRANCH  25  26
ENDBRANCH   5  25
TORSDOF 3
ENDMDL
MODEL 29
REMARK VINA RESULT:    -4.437      4.905      6.667
REMARK INTER + INTRA:          -5.284
REMARK INTER:                  -5.071
REMARK INTRA:                  -0.213
REMARK UNBOUND:                -0.199
REMARK  Name = 
REMARK  3 active torsions:
REMARK  status: ('A' for Active; 'I' for Inactive)
REMARK    1  A    between atoms: N_6  and  C_7
REMARK    2  A    between atoms: C_11  and  O_13
REMARK    3  A    between atoms: O_13  and  C_14
REMARK                            x       y       z     vdW  Elec       q    Type
REMARK                         _______ _______ _______ _____ _____    ______ ____
ROOT
ATOM      1  C   UNL     1       1.194   7.962  20.545  0.00  0.00    +0.035 A 
ATOM      2  C   UNL     1       1.966   8.113  19.381  0.00  0.00    -0.022 A 
ATOM      3  C   UNL     1       2.713   7.055  18.865  0.00  0.00    +0.046 A 
ATOM      4  C   UNL     1       2.705   5.816  19.491  0.00  0.00    -0.002 A 
ATOM      5  C   UNL     1       1.939   5.627  20.639  0.00  0.00    +0.123 A 
ATOM      6  C   UNL     1       1.189   6.694  21.155  0.00  0.00    +0.001 A 
ATOM      7 CL   UNL     1       3.647   7.286  17.437  0.00  0.00    -0.083 Cl
ATOM      8  H   UNL     1       1.963   9.063  18.853  0.00  0.00    +0.065 HD
ATOM      9  H   UNL     1       3.286   4.992  19.089  0.00  0.00    +0.067 HD
ATOM     10  H   UNL     1       0.603   6.544  22.053  0.00  0.00    +0.067 HD
ENDROOT
BRANCH   1  16
ATOM     11  C   UNL     1       0.364   9.269  22.482  0.00  0.00    +0.036 C 
ATOM     12  C   UNL     1      -0.672  10.361  22.791  0.00  0.00    +0.063 C 
ATOM     13  O   UNL     1      -0.347  11.591  22.124  0.00  0.00    -0.377 OA
ATOM     14  C   UNL     1      -0.326  11.386  20.701  0.00  0.00    +0.063 C 
ATOM     15  C   UNL     1       0.709  10.324  20.294  0.00  0.00    +0.036 C 
ATOM     16  N   UNL     1       0.449   9.055  21.021  0.00  0.00    -0.325 N 
ATOM     17  H   UNL     1       0.063   8.346  22.991  0.00  0.00    +0.049 HD
ATOM     18  H   UNL     1       1.342   9.589  22.866  0.00  0.00    +0.049 HD
ATOM     19  H   UNL     1      -1.680  10.046  22.491  0.00  0.00    +0.058 HD
ATOM     20  H   UNL     1      -0.690  10.562  23.866  0.00  0.00    +0.058 HD
ATOM     21  H   UNL     1      -0.079  12.344  20.233  0.00  0.00    +0.058 HD
ATOM     22  H   UNL     1      -1.331  11.101  20.369  0.00  0.00    +0.058 HD
ATOM     23  H   UNL     1       0.657  10.196  19.207  0.00  0.00    +0.049 HD
ATOM     24  H   UNL     1       1.716  10.680  20.549  0.00  0.00    +0.049 HD
ENDBRANCH   1  16
BRANCH   5  25
ATOM     25  O   UNL     1       2.007   4.365  21.164  0.00  0.00    -0.495 OA
BRANCH  25  26
ATOM     26  C   UNL     1       1.314   3.335  20.473  0.00  0.00    +0.079 C 
ATOM     27  H   UNL     1       1.355   2.391  21.026  0.00  0.00    +0.066 HD
ATOM     28  H   UNL     1       1.699   3.215  19.454  0.00  0.00    +0.066 HD
ATOM     29  H   UNL     1       0.263   3.631  20.397  0.00  0.00    +0.066 HD
ENDBRANCH  25  26
ENDBRANCH   5  25
TORSDOF 3
ENDMDL
MODEL 30
REMARK VINA RESULT:    -4.382      2.949      5.626
REMARK INTER + INTRA:          -5.222
REMARK INTER:                  -5.022
REMARK INTRA:                  -0.199
REMARK UNBOUND:                -0.199
REMARK  Name = 
REMARK  3 active torsions:
REMARK  status: ('A' for Active; 'I' for Inactive)
REMARK    1  A    between atoms: N_6  and  C_7
REMARK    2  A    between atoms: C_11  and  O_13
REMARK    3  A    between atoms: O_13  and  C_14
REMARK                            x       y       z     vdW  Elec       q    Type
REMARK                         _______ _______ _______ _____ _____    ______ ____
ROOT
ATOM      1  C   UNL     1       4.330   3.860  18.141  0.00  0.00    +0.035 A 
ATOM      2  C   UNL     1       2.944   3.779  17.924  0.00  0.00    -0.022 A 
ATOM      3  C   UNL     1       2.115   3.076  18.796  0.00  0.00    +0.046 A 
ATOM      4  C   UNL     1       2.643   2.441  19.913  0.00  0.00    -0.002 A 
ATOM      5  C   UNL     1       4.011   2.514  20.166  0.00  0.00    +0.123 A 
ATOM      6  C   UNL     1       4.841   3.222  19.286  0.00  0.00    +0.001 A 
ATOM      7 CL   UNL     1       0.422   3.000  18.490  0.00  0.00    -0.083 Cl
ATOM      8  H   UNL     1       2.501   4.295  17.076  0.00  0.00    +0.065 HD
ATOM      9  H   UNL     1       1.997   1.894  20.592  0.00  0.00    +0.067 HD
ATOM     10  H   UNL     1       5.906   3.267  19.482  0.00  0.00    +0.067 HD
ENDROOT
BRANCH   1  16
ATOM     11  C   UNL     1       6.448   5.069  17.692  0.00  0.00    +0.036 C 
ATOM     12  C   UNL     1       7.041   6.028  16.648  0.00  0.00    +0.063 C 
ATOM     13  O   UNL     1       7.152   5.395  15.363  0.00  0.00    -0.377 OA
ATOM     14  C   UNL     1       5.852   4.987  14.905  0.00  0.00    +0.063 C 
ATOM     15  C   UNL     1       5.190   3.997  15.878  0.00  0.00    +0.036 C 
ATOM     16  N   UNL     1       5.124   4.589  17.239  0.00  0.00    -0.325 N 
ATOM     17  H   UNL     1       6.361   5.602  18.646  0.00  0.00    +0.049 HD
ATOM     18  H   UNL     1       7.127   4.216  17.816  0.00  0.00    +0.049 HD
ATOM     19  H   UNL     1       6.430   6.934  16.549  0.00  0.00    +0.058 HD
ATOM     20  H   UNL     1       8.046   6.334  16.954  0.00  0.00    +0.058 HD
ATOM     21  H   UNL     1       5.980   4.514  13.926  0.00  0.00    +0.058 HD
ATOM     22  H   UNL     1       5.228   5.877  14.767  0.00  0.00    +0.058 HD
ATOM     23  H   UNL     1       4.198   3.746  15.488  0.00  0.00    +0.049 HD
ATOM     24  H   UNL     1       5.784   3.075  15.921  0.00  0.00    +0.049 HD
ENDBRANCH   1  16
BRANCH   5  25
ATOM     25  O   UNL     1       4.414   1.854  21.295  0.00  0.00    -0.495 OA
BRANCH  25  26
ATOM     26  C   UNL     1       5.431   0.872  21.147  0.00  0.00    +0.079 C 
ATOM     27  H   UNL     1       5.037  -0.134  21.324  0.00  0.00    +0.066 HD
ATOM     28  H   UNL     1       6.283   1.085  21.802  0.00  0.00    +0.066 HD
ATOM     29  H   UNL     1       5.787   0.913  20.113  0.00  0.00    +0.066 HD
ENDBRANCH  25  26
ENDBRANCH   5  25
TORSDOF 3
ENDMDL
MODEL 31
REMARK VINA RESULT:    -4.255      8.776      9.759
REMARK INTER + INTRA:          -5.076
REMARK INTER:                  -4.890
REMARK INTRA:                  -0.186
REMARK UNBOUND:                -0.199
REMARK  Name = 
REMARK  3 active torsions:
REMARK  status: ('A' for Active; 'I' for Inactive)
REMARK    1  A    between atoms: N_6  and  C_7
REMARK    2  A    between atoms: C_11  and  O_13
REMARK    3  A    between atoms: O_13  and  C_14
REMARK                            x       y       z     vdW  Elec       q    Type
REMARK                         _______ _______ _______ _____ _____    ______ ____
ROOT
ATOM      1  C   UNL     1      -1.110  11.195  18.661  0.00  0.00    +0.035 A 
ATOM      2  C   UNL     1      -1.032  10.071  19.500  0.00  0.00    -0.022 A 
ATOM      3  C   UNL     1      -0.077   9.989  20.512  0.00  0.00    +0.046 A 
ATOM      4  C   UNL     1       0.820  11.028  20.721  0.00  0.00    -0.002 A 
ATOM      5  C   UNL     1       0.760  12.164  19.916  0.00  0.00    +0.123 A 
ATOM      6  C   UNL     1      -0.202  12.242  18.900  0.00  0.00    +0.001 A 
ATOM      7 CL   UNL     1      -0.014   8.591  21.516  0.00  0.00    -0.083 Cl
ATOM      8  H   UNL     1      -1.743   9.258  19.380  0.00  0.00    +0.065 HD
ATOM      9  H   UNL     1       1.564  10.964  21.510  0.00  0.00    +0.067 HD
ATOM     10  H   UNL     1      -0.238  13.123  18.271  0.00  0.00    +0.067 HD
ENDROOT
BRANCH   1  16
ATOM     11  C   UNL     1      -2.060  10.216  16.590  0.00  0.00    +0.036 C 
ATOM     12  C   UNL     1      -3.070  10.577  15.490  0.00  0.00    +0.063 C 
ATOM     13  O   UNL     1      -4.400  10.695  16.021  0.00  0.00    -0.377 OA
ATOM     14  C   UNL     1      -4.438  11.730  17.018  0.00  0.00    +0.063 C 
ATOM     15  C   UNL     1      -3.475  11.437  18.181  0.00  0.00    +0.036 C 
ATOM     16  N   UNL     1      -2.097  11.236  17.661  0.00  0.00    -0.325 N 
ATOM     17  H   UNL     1      -1.061  10.160  16.144  0.00  0.00    +0.049 HD
ATOM     18  H   UNL     1      -2.324   9.235  17.006  0.00  0.00    +0.049 HD
ATOM     19  H   UNL     1      -2.797  11.517  14.995  0.00  0.00    +0.058 HD
ATOM     20  H   UNL     1      -3.086   9.791  14.728  0.00  0.00    +0.058 HD
ATOM     21  H   UNL     1      -5.465  11.789  17.393  0.00  0.00    +0.058 HD
ATOM     22  H   UNL     1      -4.199  12.689  16.543  0.00  0.00    +0.058 HD
ATOM     23  H   UNL     1      -3.531  12.271  18.889  0.00  0.00    +0.049 HD
ATOM     24  H   UNL     1      -3.795  10.525  18.699  0.00  0.00    +0.049 HD
ENDBRANCH   1  16
BRANCH   5  25
ATOM     25  O   UNL     1       1.691  13.121  20.218  0.00  0.00    -0.495 OA
BRANCH  25  26
ATOM     26  C   UNL     1       2.545  13.552  19.167  0.00  0.00    +0.079 C 
ATOM     27  H   UNL     1       3.535  13.824  19.549  0.00  0.00    +0.066 HD
ATOM     28  H   UNL     1       2.095  14.379  18.606  0.00  0.00    +0.066 HD
ATOM     29  H   UNL     1       2.674  12.713  18.476  0.00  0.00    +0.066 HD
ENDBRANCH  25  26
ENDBRANCH   5  25
TORSDOF 3
ENDMDL
MODEL 32
REMARK VINA RESULT:    -4.249      9.591     10.851
REMARK INTER + INTRA:          -5.069
REMARK INTER:                  -4.843
REMARK INTRA:                  -0.226
REMARK UNBOUND:                -0.199
REMARK  Name = 
REMARK  3 active torsions:
REMARK  status: ('A' for Active; 'I' for Inactive)
REMARK    1  A    between atoms: N_6  and  C_7
REMARK    2  A    between atoms: C_11  and  O_13
REMARK    3  A    between atoms: O_13  and  C_14
REMARK                            x       y       z     vdW  Elec       q    Type
REMARK                         _______ _______ _______ _____ _____    ______ ____
ROOT
ATOM      1  C   UNL     1      -2.562  11.836  19.278  0.00  0.00    +0.035 A 
ATOM      2  C   UNL     1      -1.306  11.207  19.282  0.00  0.00    -0.022 A 
ATOM      3  C   UNL     1      -0.921  10.355  18.248  0.00  0.00    +0.046 A 
ATOM      4  C   UNL     1      -1.774  10.113  17.179  0.00  0.00    -0.002 A 
ATOM      5  C   UNL     1      -3.021  10.733  17.137  0.00  0.00    +0.123 A 
ATOM      6  C   UNL     1      -3.404  11.589  18.179  0.00  0.00    +0.001 A 
ATOM      7 CL   UNL     1       0.627   9.602  18.294  0.00  0.00    -0.083 Cl
ATOM      8  H   UNL     1      -0.607  11.405  20.090  0.00  0.00    +0.065 HD
ATOM      9  H   UNL     1      -1.474   9.450  16.374  0.00  0.00    +0.067 HD
ATOM     10  H   UNL     1      -4.379  12.061  18.146  0.00  0.00    +0.067 HD
ENDROOT
BRANCH   1  16
ATOM     11  C   UNL     1      -4.332  12.968  20.596  0.00  0.00    +0.036 C 
ATOM     12  C   UNL     1      -4.471  14.096  21.631  0.00  0.00    +0.063 C 
ATOM     13  O   UNL     1      -3.797  13.765  22.856  0.00  0.00    -0.377 OA
ATOM     14  C   UNL     1      -2.397  13.561  22.604  0.00  0.00    +0.063 C 
ATOM     15  C   UNL     1      -2.158  12.424  21.596  0.00  0.00    +0.036 C 
ATOM     16  N   UNL     1      -2.901  12.695  20.338  0.00  0.00    -0.325 N 
ATOM     17  H   UNL     1      -4.840  13.274  19.674  0.00  0.00    +0.049 HD
ATOM     18  H   UNL     1      -4.815  12.064  20.990  0.00  0.00    +0.049 HD
ATOM     19  H   UNL     1      -4.068  15.040  21.244  0.00  0.00    +0.058 HD
ATOM     20  H   UNL     1      -5.528  14.255  21.867  0.00  0.00    +0.058 HD
ATOM     21  H   UNL     1      -1.922  13.315  23.559  0.00  0.00    +0.058 HD
ATOM     22  H   UNL     1      -1.960  14.500  22.245  0.00  0.00    +0.058 HD
ATOM     23  H   UNL     1      -1.080  12.337  21.428  0.00  0.00    +0.049 HD
ATOM     24  H   UNL     1      -2.516  11.478  22.022  0.00  0.00    +0.049 HD
ENDBRANCH   1  16
BRANCH   5  25
ATOM     25  O   UNL     1      -3.770  10.422  16.035  0.00  0.00    -0.495 OA
BRANCH  25  26
ATOM     26  C   UNL     1      -3.072  10.179  14.821  0.00  0.00    +0.079 C 
ATOM     27  H   UNL     1      -2.282  10.921  14.664  0.00  0.00    +0.066 HD
ATOM     28  H   UNL     1      -3.761  10.146  13.969  0.00  0.00    +0.066 HD
ATOM     29  H   UNL     1      -2.595   9.197  14.900  0.00  0.00    +0.066 HD
ENDBRANCH  25  26
ENDBRANCH   5  25
TORSDOF 3
ENDMDL
