MODEL 1
REMARK VINA RESULT:    -8.321      0.000      0.000
REMARK INTER + INTRA:         -10.024
REMARK INTER:                  -9.792
REMARK INTRA:                  -0.231
REMARK UNBOUND:                 1.216
REMARK  Name = 
REMARK  8 active torsions:
REMARK  status: ('A' for Active; 'I' for Inactive)
REMARK    1  A    between atoms: C_1  and  C_2
REMARK    2  A    between atoms: C_6  and  N_7
REMARK    3  A    between atoms: N_10  and  C_11
REMARK    4  A    between atoms: C_11  and  C_12
REMARK    5  A    between atoms: C_12  and  C_13
REMARK    6  A    between atoms: C_15  and  O_16
REMARK    7  A    between atoms: C_18  and  C_19
REMARK    8  A    between atoms: C_20  and  C_21
REMARK                            x       y       z     vdW  Elec       q    Type
REMARK                         _______ _______ _______ _____ _____    ______ ____
ROOT
ATOM      1  N   UNL     1      -1.411  12.116  20.039  0.00  0.00    -0.327 N 
ATOM      2  C   UNL     1      -0.870  10.969  20.807  0.00  0.00    +0.025 C 
ATOM      3  C   UNL     1       0.281  10.301  20.023  0.00  0.00    +0.015 C 
ATOM      4  N   UNL     1      -0.143   9.710  18.727  0.00  0.00    -0.299 NA
ATOM      5  C   UNL     1      -1.311  10.434  18.171  0.00  0.00    +0.015 C 
ATOM      6  C   UNL     1      -1.426  11.922  18.571  0.00  0.00    +0.025 C 
ATOM      7  H   UNL     1      -1.649  10.222  21.013  0.00  0.00    +0.048 HD
ATOM      8  H   UNL     1      -0.487  11.323  21.772  0.00  0.00    +0.048 HD
ATOM      9  H   UNL     1       1.060  11.059  19.865  0.00  0.00    +0.044 HD
ATOM     10  H   UNL     1       0.715   9.511  20.646  0.00  0.00    +0.044 HD
ATOM     11  H   UNL     1      -2.204   9.909  18.533  0.00  0.00    +0.044 HD
ATOM     12  H   UNL     1      -1.351  10.346  17.078  0.00  0.00    +0.044 HD
ATOM     13  H   UNL     1      -0.567  12.466  18.160  0.00  0.00    +0.048 HD
ATOM     14  H   UNL     1      -2.315  12.365  18.105  0.00  0.00    +0.048 HD
ENDROOT
BRANCH   1  19
ATOM     15  C   UNL     1      -2.622  14.519  24.348  0.00  0.00    +0.039 A 
ATOM     16  C   UNL     1      -1.399  14.113  23.839  0.00  0.00    -0.040 A 
ATOM     17  C   UNL     1      -1.376  13.476  22.603  0.00  0.00    -0.049 A 
ATOM     18  C   UNL     1      -2.566  13.251  21.888  0.00  0.00    +0.021 A 
ATOM     19  C   UNL     1      -2.604  12.607  20.616  0.00  0.00    +0.039 A 
ATOM     20  C   UNL     1      -3.843  12.442  19.979  0.00  0.00    -0.040 A 
ATOM     21  C   UNL     1      -5.013  12.903  20.574  0.00  0.00    -0.058 A 
ATOM     22  C   UNL     1      -4.957  13.530  21.818  0.00  0.00    -0.036 A 
ATOM     23  C   UNL     1      -3.758  13.713  22.489  0.00  0.00    +0.073 A 
ATOM     24  N   UNL     1      -3.787  14.327  23.686  0.00  0.00    -0.252 NA
ATOM     25  H   UNL     1      -0.478  14.288  24.383  0.00  0.00    +0.064 HD
ATOM     26  H   UNL     1      -0.423  13.157  22.187  0.00  0.00    +0.063 HD
ATOM     27  H   UNL     1      -3.910  11.939  19.020  0.00  0.00    +0.064 HD
ATOM     28  H   UNL     1      -5.970  12.772  20.076  0.00  0.00    +0.062 HD
ATOM     29  H   UNL     1      -5.874  13.887  22.279  0.00  0.00    +0.064 HD
BRANCH  15  30
ATOM     30  C   UNL     1      -2.692  15.223  25.669  0.00  0.00    -0.022 C 
ATOM     31  H   UNL     1      -3.706  15.589  25.847  0.00  0.00    +0.029 HD
ATOM     32  H   UNL     1      -1.996  16.067  25.689  0.00  0.00    +0.029 HD
ATOM     33  H   UNL     1      -2.425  14.545  26.486  0.00  0.00    +0.029 HD
ENDBRANCH  15  30
ENDBRANCH   1  19
BRANCH   4  34
ATOM     34  C   UNL     1       0.973   9.658  17.761  0.00  0.00    +0.003 C 
ATOM     35  H   UNL     1       0.768   8.886  17.007  0.00  0.00    +0.043 HD
ATOM     36  H   UNL     1       1.039  10.611  17.220  0.00  0.00    +0.043 HD
BRANCH  34  37
ATOM     37  C   UNL     1       2.345   9.339  18.388  0.00  0.00    -0.015 C 
ATOM     38  H   UNL     1       2.357   9.547  19.465  0.00  0.00    +0.033 HD
ATOM     39  H   UNL     1       3.085  10.028  17.957  0.00  0.00    +0.033 HD
BRANCH  37  40
ATOM     40  C   UNL     1       2.804   7.920  18.141  0.00  0.00    -0.041 A 
ATOM     41  C   UNL     1       3.841   7.641  17.259  0.00  0.00    -0.016 A 
ATOM     42  C   UNL     1       4.261   6.321  17.068  0.00  0.00    +0.127 A 
ATOM     43  C   UNL     1       3.657   5.222  17.743  0.00  0.00    +0.048 A 
ATOM     44  C   UNL     1       4.009   3.839  17.616  0.00  0.00    -0.015 A 
ATOM     45  C   UNL     1       3.303   2.902  18.377  0.00  0.00    +0.064 A 
ATOM     46  N   UNL     1       2.309   3.273  19.208  0.00  0.00    -0.154 NA
ATOM     47  N   UNL     1       1.968   4.587  19.327  0.00  0.00    -0.149 NA
ATOM     48  C   UNL     1       2.608   5.532  18.631  0.00  0.00    +0.097 A 
ATOM     49  C   UNL     1       2.205   6.850  18.815  0.00  0.00    -0.031 A 
ATOM     50  H   UNL     1       4.325   8.458  16.733  0.00  0.00    +0.066 HD
ATOM     51  H   UNL     1       1.393   7.040  19.515  0.00  0.00    +0.064 HD
BRANCH  44  52
ATOM     52  C   UNL     1       5.111   3.398  16.689  0.00  0.00    -0.037 C 
ATOM     53  H   UNL     1       5.261   2.317  16.763  0.00  0.00    +0.028 HD
ATOM     54  H   UNL     1       4.902   3.609  15.638  0.00  0.00    +0.028 HD
ATOM     55  H   UNL     1       6.040   3.928  16.927  0.00  0.00    +0.028 HD
ENDBRANCH  44  52
BRANCH  45  56
ATOM     56  C   UNL     1       3.583   1.430  18.341  0.00  0.00    -0.020 C 
ATOM     57  H   UNL     1       3.040   0.949  17.519  0.00  0.00    +0.029 HD
ATOM     58  H   UNL     1       3.259   0.955  19.272  0.00  0.00    +0.029 HD
ATOM     59  H   UNL     1       4.649   1.247  18.183  0.00  0.00    +0.029 HD
ENDBRANCH  45  56
BRANCH  42  60
ATOM     60  O   UNL     1       5.299   6.107  16.197  0.00  0.00    -0.506 OA
ATOM     61  H   UNL     1       5.202   6.702  15.435  0.00  0.00    +0.292 HD
ENDBRANCH  42  60
ENDBRANCH  37  40
ENDBRANCH  34  37
ENDBRANCH   4  34
TORSDOF 8
ENDMDL
MODEL 2
REMARK VINA RESULT:    -8.280      1.461      1.863
REMARK INTER + INTRA:          -9.968
REMARK INTER:                  -9.891
REMARK INTRA:                  -0.077
REMARK UNBOUND:                 1.216
REMARK  Name = 
REMARK  8 active torsions:
REMARK  status: ('A' for Active; 'I' for Inactive)
REMARK    1  A    between atoms: C_1  and  C_2
REMARK    2  A    between atoms: C_6  and  N_7
REMARK    3  A    between atoms: N_10  and  C_11
REMARK    4  A    between atoms: C_11  and  C_12
REMARK    5  A    between atoms: C_12  and  C_13
REMARK    6  A    between atoms: C_15  and  O_16
REMARK    7  A    between atoms: C_18  and  C_19
REMARK    8  A    between atoms: C_20  and  C_21
REMARK                            x       y       z     vdW  Elec       q    Type
REMARK                         _______ _______ _______ _____ _____    ______ ____
ROOT
ATOM      1  N   UNL     1      -1.404  12.142  19.973  0.00  0.00    -0.327 N 
ATOM      2  C   UNL     1      -0.811  11.051  20.782  0.00  0.00    +0.025 C 
ATOM      3  C   UNL     1       0.336  10.373  20.000  0.00  0.00    +0.015 C 
ATOM      4  N   UNL     1      -0.109   9.704  18.750  0.00  0.00    -0.299 NA
ATOM      5  C   UNL     1      -1.311  10.368  18.192  0.00  0.00    +0.015 C 
ATOM      6  C   UNL     1      -1.456  11.871  18.518  0.00  0.00    +0.025 C 
ATOM      7  H   UNL     1      -1.563  10.296  21.050  0.00  0.00    +0.048 HD
ATOM      8  H   UNL     1      -0.410  11.465  21.716  0.00  0.00    +0.048 HD
ATOM      9  H   UNL     1       1.089  11.141  19.780  0.00  0.00    +0.044 HD
ATOM     10  H   UNL     1       0.809   9.628  20.649  0.00  0.00    +0.044 HD
ATOM     11  H   UNL     1      -2.179   9.840  18.607  0.00  0.00    +0.044 HD
ATOM     12  H   UNL     1      -1.380  10.222  17.107  0.00  0.00    +0.044 HD
ATOM     13  H   UNL     1      -0.624  12.415  18.054  0.00  0.00    +0.048 HD
ATOM     14  H   UNL     1      -2.370  12.266  18.056  0.00  0.00    +0.048 HD
ENDROOT
BRANCH   1  19
ATOM     15  C   UNL     1      -2.582  14.558  24.284  0.00  0.00    +0.039 A 
ATOM     16  C   UNL     1      -1.363  14.153  23.765  0.00  0.00    -0.040 A 
ATOM     17  C   UNL     1      -1.350  13.512  22.531  0.00  0.00    -0.049 A 
ATOM     18  C   UNL     1      -2.545  13.280  21.828  0.00  0.00    +0.021 A 
ATOM     19  C   UNL     1      -2.593  12.632  20.559  0.00  0.00    +0.039 A 
ATOM     20  C   UNL     1      -3.837  12.461  19.935  0.00  0.00    -0.040 A 
ATOM     21  C   UNL     1      -5.004  12.921  20.538  0.00  0.00    -0.058 A 
ATOM     22  C   UNL     1      -4.937  13.552  21.779  0.00  0.00    -0.036 A 
ATOM     23  C   UNL     1      -3.733  13.742  22.439  0.00  0.00    +0.073 A 
ATOM     24  N   UNL     1      -3.752  14.360  23.634  0.00  0.00    -0.252 NA
ATOM     25  H   UNL     1      -0.437  14.333  24.300  0.00  0.00    +0.064 HD
ATOM     26  H   UNL     1      -0.400  13.195  22.108  0.00  0.00    +0.063 HD
ATOM     27  H   UNL     1      -3.912  11.954  18.977  0.00  0.00    +0.064 HD
ATOM     28  H   UNL     1      -5.964  12.785  20.050  0.00  0.00    +0.062 HD
ATOM     29  H   UNL     1      -5.852  13.908  22.247  0.00  0.00    +0.064 HD
BRANCH  15  30
ATOM     30  C   UNL     1      -2.642  15.267  25.603  0.00  0.00    -0.022 C 
ATOM     31  H   UNL     1      -2.701  14.541  26.418  0.00  0.00    +0.029 HD
ATOM     32  H   UNL     1      -3.515  15.925  25.643  0.00  0.00    +0.029 HD
ATOM     33  H   UNL     1      -1.748  15.881  25.755  0.00  0.00    +0.029 HD
ENDBRANCH  15  30
ENDBRANCH   1  19
BRANCH   4  34
ATOM     34  C   UNL     1       0.980   9.630  17.755  0.00  0.00    +0.003 C 
ATOM     35  H   UNL     1       0.728   8.882  16.992  0.00  0.00    +0.043 HD
ATOM     36  H   UNL     1       1.068  10.591  17.230  0.00  0.00    +0.043 HD
BRANCH  34  37
ATOM     37  C   UNL     1       2.355   9.250  18.340  0.00  0.00    -0.015 C 
ATOM     38  H   UNL     1       2.580   9.821  19.250  0.00  0.00    +0.033 HD
ATOM     39  H   UNL     1       3.127   9.549  17.619  0.00  0.00    +0.033 HD
BRANCH  37  40
ATOM     40  C   UNL     1       2.500   7.772  18.622  0.00  0.00    -0.041 A 
ATOM     41  C   UNL     1       1.993   7.207  19.786  0.00  0.00    -0.016 A 
ATOM     42  C   UNL     1       2.121   5.833  20.010  0.00  0.00    +0.127 A 
ATOM     43  C   UNL     1       2.766   4.965  19.084  0.00  0.00    +0.048 A 
ATOM     44  C   UNL     1       2.950   3.550  19.219  0.00  0.00    -0.015 A 
ATOM     45  C   UNL     1       3.602   2.864  18.189  0.00  0.00    +0.064 A 
ATOM     46  N   UNL     1       4.059   3.504  17.095  0.00  0.00    -0.154 NA
ATOM     47  N   UNL     1       3.890   4.850  16.965  0.00  0.00    -0.149 NA
ATOM     48  C   UNL     1       3.271   5.562  17.912  0.00  0.00    +0.097 A 
ATOM     49  C   UNL     1       3.132   6.930  17.701  0.00  0.00    -0.031 A 
ATOM     50  H   UNL     1       1.491   7.842  20.510  0.00  0.00    +0.066 HD
ATOM     51  H   UNL     1       3.534   7.345  16.778  0.00  0.00    +0.064 HD
BRANCH  44  52
ATOM     52  C   UNL     1       2.455   2.814  20.436  0.00  0.00    -0.037 C 
ATOM     53  H   UNL     1       1.446   3.147  20.698  0.00  0.00    +0.028 HD
ATOM     54  H   UNL     1       2.393   1.733  20.290  0.00  0.00    +0.028 HD
ATOM     55  H   UNL     1       3.138   2.970  21.277  0.00  0.00    +0.028 HD
ENDBRANCH  44  52
BRANCH  45  56
ATOM     56  C   UNL     1       3.846   1.386  18.207  0.00  0.00    -0.020 C 
ATOM     57  H   UNL     1       3.273   0.905  19.009  0.00  0.00    +0.029 HD
ATOM     58  H   UNL     1       4.904   1.174  18.385  0.00  0.00    +0.029 HD
ATOM     59  H   UNL     1       3.531   0.935  17.262  0.00  0.00    +0.029 HD
ENDBRANCH  45  56
BRANCH  42  60
ATOM     60  O   UNL     1       1.588   5.329  21.170  0.00  0.00    -0.506 OA
ATOM     61  H   UNL     1       0.825   5.869  21.430  0.00  0.00    +0.292 HD
ENDBRANCH  42  60
ENDBRANCH  37  40
ENDBRANCH  34  37
ENDBRANCH   4  34
TORSDOF 8
ENDMDL
MODEL 3
REMARK VINA RESULT:    -8.057      2.591     11.110
REMARK INTER + INTRA:          -9.667
REMARK INTER:                  -9.283
REMARK INTRA:                  -0.384
REMARK UNBOUND:                 1.216
REMARK  Name = 
REMARK  8 active torsions:
REMARK  status: ('A' for Active; 'I' for Inactive)
REMARK    1  A    between atoms: C_1  and  C_2
REMARK    2  A    between atoms: C_6  and  N_7
REMARK    3  A    between atoms: N_10  and  C_11
REMARK    4  A    between atoms: C_11  and  C_12
REMARK    5  A    between atoms: C_12  and  C_13
REMARK    6  A    between atoms: C_15  and  O_16
REMARK    7  A    between atoms: C_18  and  C_19
REMARK    8  A    between atoms: C_20  and  C_21
REMARK                            x       y       z     vdW  Elec       q    Type
REMARK                         _______ _______ _______ _____ _____    ______ ____
ROOT
ATOM      1  N   UNL     1       2.804   6.664  19.201  0.00  0.00    -0.327 N 
ATOM      2  C   UNL     1       2.013   7.595  18.362  0.00  0.00    +0.025 C 
ATOM      3  C   UNL     1       1.656   8.863  19.169  0.00  0.00    +0.015 C 
ATOM      4  N   UNL     1       0.786   8.597  20.345  0.00  0.00    -0.299 NA
ATOM      5  C   UNL     1       1.005   7.227  20.868  0.00  0.00    +0.015 C 
ATOM      6  C   UNL     1       2.414   6.640  20.630  0.00  0.00    +0.025 C 
ATOM      7  H   UNL     1       1.089   7.124  18.001  0.00  0.00    +0.048 HD
ATOM      8  H   UNL     1       2.602   7.886  17.484  0.00  0.00    +0.048 HD
ATOM      9  H   UNL     1       2.597   9.334  19.485  0.00  0.00    +0.044 HD
ATOM     10  H   UNL     1       1.144   9.568  18.505  0.00  0.00    +0.044 HD
ATOM     11  H   UNL     1       0.274   6.582  20.367  0.00  0.00    +0.044 HD
ATOM     12  H   UNL     1       0.759   7.164  21.935  0.00  0.00    +0.044 HD
ATOM     13  H   UNL     1       3.147   7.245  21.179  0.00  0.00    +0.048 HD
ATOM     14  H   UNL     1       2.475   5.631  21.058  0.00  0.00    +0.048 HD
ENDROOT
BRANCH   1  19
ATOM     15  C   UNL     1       5.779   4.779  15.540  0.00  0.00    +0.039 A 
ATOM     16  C   UNL     1       5.736   6.032  16.131  0.00  0.00    -0.040 A 
ATOM     17  C   UNL     1       4.803   6.256  17.137  0.00  0.00    -0.049 A 
ATOM     18  C   UNL     1       3.926   5.235  17.546  0.00  0.00    +0.021 A 
ATOM     19  C   UNL     1       2.954   5.405  18.575  0.00  0.00    +0.039 A 
ATOM     20  C   UNL     1       2.135   4.319  18.916  0.00  0.00    -0.040 A 
ATOM     21  C   UNL     1       2.273   3.095  18.269  0.00  0.00    -0.058 A 
ATOM     22  C   UNL     1       3.230   2.947  17.266  0.00  0.00    -0.036 A 
ATOM     23  C   UNL     1       4.060   3.991  16.889  0.00  0.00    +0.073 A 
ATOM     24  N   UNL     1       4.958   3.769  15.912  0.00  0.00    -0.252 NA
ATOM     25  H   UNL     1       6.412   6.821  15.823  0.00  0.00    +0.064 HD
ATOM     26  H   UNL     1       4.762   7.232  17.614  0.00  0.00    +0.063 HD
ATOM     27  H   UNL     1       1.371   4.420  19.681  0.00  0.00    +0.064 HD
ATOM     28  H   UNL     1       1.636   2.258  18.538  0.00  0.00    +0.062 HD
ATOM     29  H   UNL     1       3.333   1.989  16.762  0.00  0.00    +0.064 HD
BRANCH  15  30
ATOM     30  C   UNL     1       6.779   4.488  14.463  0.00  0.00    -0.022 C 
ATOM     31  H   UNL     1       6.366   4.752  13.486  0.00  0.00    +0.029 HD
ATOM     32  H   UNL     1       7.046   3.427  14.466  0.00  0.00    +0.029 HD
ATOM     33  H   UNL     1       7.695   5.068  14.615  0.00  0.00    +0.029 HD
ENDBRANCH  15  30
ENDBRANCH   1  19
BRANCH   4  34
ATOM     34  C   UNL     1       0.967   9.615  21.399  0.00  0.00    +0.003 C 
ATOM     35  H   UNL     1       0.145   9.543  22.122  0.00  0.00    +0.043 HD
ATOM     36  H   UNL     1       1.891   9.410  21.956  0.00  0.00    +0.043 HD
BRANCH  34  37
ATOM     37  C   UNL     1       1.004  11.068  20.883  0.00  0.00    -0.015 C 
ATOM     38  H   UNL     1       1.255  11.114  19.816  0.00  0.00    +0.033 HD
ATOM     39  H   UNL     1       1.825  11.590  21.392  0.00  0.00    +0.033 HD
BRANCH  37  40
ATOM     40  C   UNL     1      -0.280  11.826  21.132  0.00  0.00    -0.041 A 
ATOM     41  C   UNL     1      -1.259  11.928  20.150  0.00  0.00    -0.016 A 
ATOM     42  C   UNL     1      -2.448  12.615  20.416  0.00  0.00    +0.127 A 
ATOM     43  C   UNL     1      -2.707  13.236  21.671  0.00  0.00    +0.048 A 
ATOM     44  C   UNL     1      -3.885  13.962  22.042  0.00  0.00    -0.015 A 
ATOM     45  C   UNL     1      -3.960  14.490  23.334  0.00  0.00    +0.064 A 
ATOM     46  N   UNL     1      -2.955  14.337  24.218  0.00  0.00    -0.154 NA
ATOM     47  N   UNL     1      -1.830  13.651  23.867  0.00  0.00    -0.149 NA
ATOM     48  C   UNL     1      -1.700  13.118  22.649  0.00  0.00    +0.097 A 
ATOM     49  C   UNL     1      -0.525  12.427  22.371  0.00  0.00    -0.031 A 
ATOM     50  H   UNL     1      -1.093  11.461  19.184  0.00  0.00    +0.066 HD
ATOM     51  H   UNL     1       0.222  12.358  23.161  0.00  0.00    +0.064 HD
BRANCH  44  52
ATOM     52  C   UNL     1      -5.020  14.153  21.070  0.00  0.00    -0.037 C 
ATOM     53  H   UNL     1      -5.503  15.121  21.234  0.00  0.00    +0.028 HD
ATOM     54  H   UNL     1      -4.700  14.143  20.026  0.00  0.00    +0.028 HD
ATOM     55  H   UNL     1      -5.748  13.341  21.174  0.00  0.00    +0.028 HD
ENDBRANCH  44  52
BRANCH  45  56
ATOM     56  C   UNL     1      -5.141  15.258  23.845  0.00  0.00    -0.020 C 
ATOM     57  H   UNL     1      -4.972  15.597  24.874  0.00  0.00    +0.029 HD
ATOM     58  H   UNL     1      -6.036  14.628  23.849  0.00  0.00    +0.029 HD
ATOM     59  H   UNL     1      -5.316  16.146  23.230  0.00  0.00    +0.029 HD
ENDBRANCH  45  56
BRANCH  42  60
ATOM     60  O   UNL     1      -3.384  12.671  19.414  0.00  0.00    -0.506 OA
ATOM     61  H   UNL     1      -2.949  12.497  18.564  0.00  0.00    +0.292 HD
ENDBRANCH  42  60
ENDBRANCH  37  40
ENDBRANCH  34  37
ENDBRANCH   4  34
TORSDOF 8
ENDMDL
MODEL 4
REMARK VINA RESULT:    -8.032      1.834      2.874
REMARK INTER + INTRA:          -9.633
REMARK INTER:                  -9.176
REMARK INTRA:                  -0.457
REMARK UNBOUND:                 1.216
REMARK  Name = 
REMARK  8 active torsions:
REMARK  status: ('A' for Active; 'I' for Inactive)
REMARK    1  A    between atoms: C_1  and  C_2
REMARK    2  A    between atoms: C_6  and  N_7
REMARK    3  A    between atoms: N_10  and  C_11
REMARK    4  A    between atoms: C_11  and  C_12
REMARK    5  A    between atoms: C_12  and  C_13
REMARK    6  A    between atoms: C_15  and  O_16
REMARK    7  A    between atoms: C_18  and  C_19
REMARK    8  A    between atoms: C_20  and  C_21
REMARK                            x       y       z     vdW  Elec       q    Type
REMARK                         _______ _______ _______ _____ _____    ______ ____
ROOT
ATOM      1  N   UNL     1      -0.436  11.770  20.597  0.00  0.00    -0.327 N 
ATOM      2  C   UNL     1      -1.046  12.010  19.267  0.00  0.00    +0.025 C 
ATOM      3  C   UNL     1      -0.774  10.810  18.334  0.00  0.00    +0.015 C 
ATOM      4  N   UNL     1       0.668  10.593  18.044  0.00  0.00    -0.299 NA
ATOM      5  C   UNL     1       1.512  11.073  19.165  0.00  0.00    +0.015 C 
ATOM      6  C   UNL     1       0.851  11.038  20.561  0.00  0.00    +0.025 C 
ATOM      7  H   UNL     1      -0.651  12.925  18.805  0.00  0.00    +0.048 HD
ATOM      8  H   UNL     1      -2.130  12.136  19.380  0.00  0.00    +0.048 HD
ATOM      9  H   UNL     1      -1.211   9.918  18.802  0.00  0.00    +0.044 HD
ATOM     10  H   UNL     1      -1.302  10.975  17.388  0.00  0.00    +0.044 HD
ATOM     11  H   UNL     1       1.774  12.114  18.934  0.00  0.00    +0.044 HD
ATOM     12  H   UNL     1       2.469  10.539  19.200  0.00  0.00    +0.044 HD
ATOM     13  H   UNL     1       0.642   9.994  20.826  0.00  0.00    +0.048 HD
ATOM     14  H   UNL     1       1.557  11.405  21.317  0.00  0.00    +0.048 HD
ENDROOT
BRANCH   1  19
ATOM     15  C   UNL     1      -3.942  14.105  23.436  0.00  0.00    +0.039 A 
ATOM     16  C   UNL     1      -3.988  12.923  22.713  0.00  0.00    -0.040 A 
ATOM     17  C   UNL     1      -2.845  12.522  22.030  0.00  0.00    -0.049 A 
ATOM     18  C   UNL     1      -1.672  13.296  22.074  0.00  0.00    +0.021 A 
ATOM     19  C   UNL     1      -0.470  12.933  21.399  0.00  0.00    +0.039 A 
ATOM     20  C   UNL     1       0.650  13.769  21.517  0.00  0.00    -0.040 A 
ATOM     21  C   UNL     1       0.593  14.928  22.284  0.00  0.00    -0.058 A 
ATOM     22  C   UNL     1      -0.591  15.267  22.938  0.00  0.00    -0.036 A 
ATOM     23  C   UNL     1      -1.726  14.477  22.849  0.00  0.00    +0.073 A 
ATOM     24  N   UNL     1      -2.830  14.872  23.509  0.00  0.00    -0.252 NA
ATOM     25  H   UNL     1      -4.888  12.320  22.679  0.00  0.00    +0.064 HD
ATOM     26  H   UNL     1      -2.864  11.594  21.463  0.00  0.00    +0.063 HD
ATOM     27  H   UNL     1       1.575  13.533  21.000  0.00  0.00    +0.064 HD
ATOM     28  H   UNL     1       1.464  15.572  22.372  0.00  0.00    +0.062 HD
ATOM     29  H   UNL     1      -0.631  16.174  23.535  0.00  0.00    +0.064 HD
BRANCH  15  30
ATOM     30  C   UNL     1      -5.145  14.567  24.200  0.00  0.00    -0.022 C 
ATOM     31  H   UNL     1      -6.057  14.321  23.650  0.00  0.00    +0.029 HD
ATOM     32  H   UNL     1      -5.103  15.648  24.362  0.00  0.00    +0.029 HD
ATOM     33  H   UNL     1      -5.196  14.080  25.179  0.00  0.00    +0.029 HD
ENDBRANCH  15  30
ENDBRANCH   1  19
BRANCH   4  34
ATOM     34  C   UNL     1       0.953   9.182  17.718  0.00  0.00    +0.003 C 
ATOM     35  H   UNL     1       0.369   8.529  18.379  0.00  0.00    +0.043 HD
ATOM     36  H   UNL     1       0.621   8.964  16.694  0.00  0.00    +0.043 HD
BRANCH  34  37
ATOM     37  C   UNL     1       2.435   8.780  17.862  0.00  0.00    -0.015 C 
ATOM     38  H   UNL     1       2.980   9.472  18.515  0.00  0.00    +0.033 HD
ATOM     39  H   UNL     1       2.912   8.881  16.878  0.00  0.00    +0.033 HD
BRANCH  37  40
ATOM     40  C   UNL     1       2.628   7.364  18.352  0.00  0.00    -0.041 A 
ATOM     41  C   UNL     1       2.276   6.994  19.645  0.00  0.00    -0.016 A 
ATOM     42  C   UNL     1       2.444   5.671  20.065  0.00  0.00    +0.127 A 
ATOM     43  C   UNL     1       2.977   4.662  19.213  0.00  0.00    +0.048 A 
ATOM     44  C   UNL     1       3.190   3.284  19.545  0.00  0.00    -0.015 A 
ATOM     45  C   UNL     1       3.714   2.438  18.563  0.00  0.00    +0.064 A 
ATOM     46  N   UNL     1       4.024   2.893  17.333  0.00  0.00    -0.154 NA
ATOM     47  N   UNL     1       3.828   4.203  17.015  0.00  0.00    -0.149 NA
ATOM     48  C   UNL     1       3.325   5.061  17.908  0.00  0.00    +0.097 A 
ATOM     49  C   UNL     1       3.148   6.380  17.504  0.00  0.00    -0.031 A 
ATOM     50  H   UNL     1       1.863   7.740  20.317  0.00  0.00    +0.066 HD
ATOM     51  H   UNL     1       3.427   6.641  16.484  0.00  0.00    +0.064 HD
BRANCH  44  52
ATOM     52  C   UNL     1       2.858   2.753  20.915  0.00  0.00    -0.037 C 
ATOM     53  H   UNL     1       2.446   3.549  21.542  0.00  0.00    +0.028 HD
ATOM     54  H   UNL     1       2.110   1.956  20.899  0.00  0.00    +0.028 HD
ATOM     55  H   UNL     1       3.751   2.324  21.381  0.00  0.00    +0.028 HD
ENDBRANCH  44  52
BRANCH  45  56
ATOM     56  C   UNL     1       3.973   0.978  18.782  0.00  0.00    -0.020 C 
ATOM     57  H   UNL     1       4.471   0.534  17.913  0.00  0.00    +0.029 HD
ATOM     58  H   UNL     1       3.032   0.440  18.933  0.00  0.00    +0.029 HD
ATOM     59  H   UNL     1       4.626   0.830  19.647  0.00  0.00    +0.029 HD
ENDBRANCH  45  56
BRANCH  42  60
ATOM     60  O   UNL     1       2.066   5.361  21.346  0.00  0.00    -0.506 OA
ATOM     61  H   UNL     1       1.486   6.062  21.684  0.00  0.00    +0.292 HD
ENDBRANCH  42  60
ENDBRANCH  37  40
ENDBRANCH  34  37
ENDBRANCH   4  34
TORSDOF 8
ENDMDL
MODEL 5
REMARK VINA RESULT:    -7.978      2.851      4.982
REMARK INTER + INTRA:          -9.560
REMARK INTER:                  -8.791
REMARK INTRA:                  -0.768
REMARK UNBOUND:                 1.216
REMARK  Name = 
REMARK  8 active torsions:
REMARK  status: ('A' for Active; 'I' for Inactive)
REMARK    1  A    between atoms: C_1  and  C_2
REMARK    2  A    between atoms: C_6  and  N_7
REMARK    3  A    between atoms: N_10  and  C_11
REMARK    4  A    between atoms: C_11  and  C_12
REMARK    5  A    between atoms: C_12  and  C_13
REMARK    6  A    between atoms: C_15  and  O_16
REMARK    7  A    between atoms: C_18  and  C_19
REMARK    8  A    between atoms: C_20  and  C_21
REMARK                            x       y       z     vdW  Elec       q    Type
REMARK                         _______ _______ _______ _____ _____    ______ ____
ROOT
ATOM      1  N   UNL     1      -1.306  10.672  18.602  0.00  0.00    -0.327 N 
ATOM      2  C   UNL     1      -0.435  11.840  18.877  0.00  0.00    +0.025 C 
ATOM      3  C   UNL     1       0.835  11.388  19.631  0.00  0.00    +0.015 C 
ATOM      4  N   UNL     1       0.560  10.810  20.972  0.00  0.00    -0.299 NA
ATOM      5  C   UNL     1      -0.783  10.184  21.014  0.00  0.00    +0.015 C 
ATOM      6  C   UNL     1      -1.310   9.642  19.666  0.00  0.00    +0.025 C 
ATOM      7  H   UNL     1      -0.960  12.599  19.474  0.00  0.00    +0.048 HD
ATOM      8  H   UNL     1      -0.140  12.307  17.930  0.00  0.00    +0.048 HD
ATOM      9  H   UNL     1       1.358  10.660  18.997  0.00  0.00    +0.044 HD
ATOM     10  H   UNL     1       1.497  12.254  19.750  0.00  0.00    +0.044 HD
ATOM     11  H   UNL     1      -1.476  10.957  21.369  0.00  0.00    +0.044 HD
ATOM     12  H   UNL     1      -0.830   9.390  21.769  0.00  0.00    +0.044 HD
ATOM     13  H   UNL     1      -0.656   8.826  19.334  0.00  0.00    +0.048 HD
ATOM     14  H   UNL     1      -2.302   9.195  19.806  0.00  0.00    +0.048 HD
ENDROOT
BRANCH   1  19
ATOM     15  C   UNL     1      -3.838  10.153  14.228  0.00  0.00    +0.039 A 
ATOM     16  C   UNL     1      -2.601   9.677  14.633  0.00  0.00    -0.040 A 
ATOM     17  C   UNL     1      -2.166   9.975  15.919  0.00  0.00    -0.049 A 
ATOM     18  C   UNL     1      -2.963  10.741  16.789  0.00  0.00    +0.021 A 
ATOM     19  C   UNL     1      -2.572  11.074  18.118  0.00  0.00    +0.039 A 
ATOM     20  C   UNL     1      -3.446  11.833  18.909  0.00  0.00    -0.040 A 
ATOM     21  C   UNL     1      -4.676  12.249  18.409  0.00  0.00    -0.058 A 
ATOM     22  C   UNL     1      -5.042  11.913  17.106  0.00  0.00    -0.036 A 
ATOM     23  C   UNL     1      -4.212  11.169  16.284  0.00  0.00    +0.073 A 
ATOM     24  N   UNL     1      -4.636  10.886  15.038  0.00  0.00    -0.252 NA
ATOM     25  H   UNL     1      -1.984   9.082  13.969  0.00  0.00    +0.064 HD
ATOM     26  H   UNL     1      -1.201   9.602  16.253  0.00  0.00    +0.063 HD
ATOM     27  H   UNL     1      -3.171  12.122  19.920  0.00  0.00    +0.064 HD
ATOM     28  H   UNL     1      -5.349  12.837  19.027  0.00  0.00    +0.062 HD
ATOM     29  H   UNL     1      -6.004  12.242  16.720  0.00  0.00    +0.064 HD
BRANCH  15  30
ATOM     30  C   UNL     1      -4.353   9.843  12.856  0.00  0.00    -0.022 C 
ATOM     31  H   UNL     1      -4.316  10.737  12.229  0.00  0.00    +0.029 HD
ATOM     32  H   UNL     1      -5.384   9.482  12.908  0.00  0.00    +0.029 HD
ATOM     33  H   UNL     1      -3.746   9.066  12.379  0.00  0.00    +0.029 HD
ENDBRANCH  15  30
ENDBRANCH   1  19
BRANCH   4  34
ATOM     34  C   UNL     1       1.613   9.860  21.383  0.00  0.00    +0.003 C 
ATOM     35  H   UNL     1       2.359   9.772  20.582  0.00  0.00    +0.043 HD
ATOM     36  H   UNL     1       2.144  10.252  22.260  0.00  0.00    +0.043 HD
BRANCH  34  37
ATOM     37  C   UNL     1       1.103   8.439  21.698  0.00  0.00    -0.015 C 
ATOM     38  H   UNL     1       0.007   8.396  21.714  0.00  0.00    +0.033 HD
ATOM     39  H   UNL     1       1.413   8.185  22.720  0.00  0.00    +0.033 HD
BRANCH  37  40
ATOM     40  C   UNL     1       1.637   7.386  20.754  0.00  0.00    -0.041 A 
ATOM     41  C   UNL     1       2.274   7.738  19.569  0.00  0.00    -0.016 A 
ATOM     42  C   UNL     1       2.779   6.744  18.725  0.00  0.00    +0.127 A 
ATOM     43  C   UNL     1       2.663   5.356  19.024  0.00  0.00    +0.048 A 
ATOM     44  C   UNL     1       3.143   4.264  18.229  0.00  0.00    -0.015 A 
ATOM     45  C   UNL     1       2.944   2.963  18.701  0.00  0.00    +0.064 A 
ATOM     46  N   UNL     1       2.312   2.724  19.867  0.00  0.00    -0.154 NA
ATOM     47  N   UNL     1       1.851   3.760  20.623  0.00  0.00    -0.149 NA
ATOM     48  C   UNL     1       2.014   5.027  20.230  0.00  0.00    +0.097 A 
ATOM     49  C   UNL     1       1.521   6.027  21.061  0.00  0.00    -0.031 A 
ATOM     50  H   UNL     1       2.383   8.787  19.315  0.00  0.00    +0.066 HD
ATOM     51  H   UNL     1       1.031   5.723  21.985  0.00  0.00    +0.064 HD
BRANCH  44  52
ATOM     52  C   UNL     1       3.846   4.505  16.919  0.00  0.00    -0.037 C 
ATOM     53  H   UNL     1       3.173   5.000  16.211  0.00  0.00    +0.028 HD
ATOM     54  H   UNL     1       4.722   5.150  17.012  0.00  0.00    +0.028 HD
ATOM     55  H   UNL     1       4.205   3.558  16.504  0.00  0.00    +0.028 HD
ENDBRANCH  44  52
BRANCH  45  56
ATOM     56  C   UNL     1       3.406   1.740  17.969  0.00  0.00    -0.020 C 
ATOM     57  H   UNL     1       3.859   1.019  18.659  0.00  0.00    +0.029 HD
ATOM     58  H   UNL     1       4.164   2.002  17.224  0.00  0.00    +0.029 HD
ATOM     59  H   UNL     1       2.563   1.244  17.480  0.00  0.00    +0.029 HD
ENDBRANCH  45  56
BRANCH  42  60
ATOM     60  O   UNL     1       3.412   7.150  17.577  0.00  0.00    -0.506 OA
ATOM     61  H   UNL     1       3.049   8.007  17.301  0.00  0.00    +0.292 HD
ENDBRANCH  42  60
ENDBRANCH  37  40
ENDBRANCH  34  37
ENDBRANCH   4  34
TORSDOF 8
ENDMDL
MODEL 6
REMARK VINA RESULT:    -7.966      3.240      5.252
REMARK INTER + INTRA:          -9.544
REMARK INTER:                  -8.793
REMARK INTRA:                  -0.751
REMARK UNBOUND:                 1.216
REMARK  Name = 
REMARK  8 active torsions:
REMARK  status: ('A' for Active; 'I' for Inactive)
REMARK    1  A    between atoms: C_1  and  C_2
REMARK    2  A    between atoms: C_6  and  N_7
REMARK    3  A    between atoms: N_10  and  C_11
REMARK    4  A    between atoms: C_11  and  C_12
REMARK    5  A    between atoms: C_12  and  C_13
REMARK    6  A    between atoms: C_15  and  O_16
REMARK    7  A    between atoms: C_18  and  C_19
REMARK    8  A    between atoms: C_20  and  C_21
REMARK                            x       y       z     vdW  Elec       q    Type
REMARK                         _______ _______ _______ _____ _____    ______ ____
ROOT
ATOM      1  N   UNL     1      -1.239  10.521  18.606  0.00  0.00    -0.327 N 
ATOM      2  C   UNL     1      -0.401  11.643  19.091  0.00  0.00    +0.025 C 
ATOM      3  C   UNL     1       0.856  11.098  19.804  0.00  0.00    +0.015 C 
ATOM      4  N   UNL     1       0.553  10.310  21.027  0.00  0.00    -0.299 NA
ATOM      5  C   UNL     1      -0.778   9.664  20.926  0.00  0.00    +0.015 C 
ATOM      6  C   UNL     1      -1.253   9.335  19.493  0.00  0.00    +0.025 C 
ATOM      7  H   UNL     1      -0.959  12.290  19.782  0.00  0.00    +0.048 HD
ATOM      8  H   UNL     1      -0.088  12.260  18.239  0.00  0.00    +0.048 HD
ATOM      9  H   UNL     1       1.412  10.488  19.080  0.00  0.00    +0.044 HD
ATOM     10  H   UNL     1       1.496  11.944  20.080  0.00  0.00    +0.044 HD
ATOM     11  H   UNL     1      -1.497  10.360  21.376  0.00  0.00    +0.044 HD
ATOM     12  H   UNL     1      -0.830   8.760  21.544  0.00  0.00    +0.044 HD
ATOM     13  H   UNL     1      -0.573   8.592  19.057  0.00  0.00    +0.048 HD
ATOM     14  H   UNL     1      -2.240   8.856  19.528  0.00  0.00    +0.048 HD
ENDROOT
BRANCH   1  19
ATOM     15  C   UNL     1      -3.861  10.165  14.270  0.00  0.00    +0.039 A 
ATOM     16  C   UNL     1      -2.635   9.639  14.644  0.00  0.00    -0.040 A 
ATOM     17  C   UNL     1      -2.168   9.900  15.927  0.00  0.00    -0.049 A 
ATOM     18  C   UNL     1      -2.923  10.678  16.823  0.00  0.00    +0.021 A 
ATOM     19  C   UNL     1      -2.498  10.975  18.151  0.00  0.00    +0.039 A 
ATOM     20  C   UNL     1      -3.332  11.750  18.970  0.00  0.00    -0.040 A 
ATOM     21  C   UNL     1      -4.555  12.216  18.499  0.00  0.00    -0.058 A 
ATOM     22  C   UNL     1      -4.954  11.916  17.197  0.00  0.00    -0.036 A 
ATOM     23  C   UNL     1      -4.164  11.157  16.348  0.00  0.00    +0.073 A 
ATOM     24  N   UNL     1      -4.620  10.911  15.106  0.00  0.00    -0.252 NA
ATOM     25  H   UNL     1      -2.051   9.034  13.960  0.00  0.00    +0.064 HD
ATOM     26  H   UNL     1      -1.211   9.488  16.238  0.00  0.00    +0.063 HD
ATOM     27  H   UNL     1      -3.030  12.011  19.980  0.00  0.00    +0.064 HD
ATOM     28  H   UNL     1      -5.196  12.817  19.137  0.00  0.00    +0.062 HD
ATOM     29  H   UNL     1      -5.910  12.284  16.833  0.00  0.00    +0.064 HD
BRANCH  15  30
ATOM     30  C   UNL     1      -4.410   9.896  12.902  0.00  0.00    -0.022 C 
ATOM     31  H   UNL     1      -4.216  10.747  12.245  0.00  0.00    +0.029 HD
ATOM     32  H   UNL     1      -5.488   9.717  12.951  0.00  0.00    +0.029 HD
ATOM     33  H   UNL     1      -3.940   9.010  12.461  0.00  0.00    +0.029 HD
ENDBRANCH  15  30
ENDBRANCH   1  19
BRANCH   4  34
ATOM     34  C   UNL     1       1.613   9.323  21.316  0.00  0.00    +0.003 C 
ATOM     35  H   UNL     1       2.367   9.353  20.519  0.00  0.00    +0.043 HD
ATOM     36  H   UNL     1       2.131   9.598  22.244  0.00  0.00    +0.043 HD
BRANCH  34  37
ATOM     37  C   UNL     1       1.116   7.868  21.430  0.00  0.00    -0.015 C 
ATOM     38  H   UNL     1       0.032   7.796  21.278  0.00  0.00    +0.033 HD
ATOM     39  H   UNL     1       1.282   7.531  22.462  0.00  0.00    +0.033 HD
BRANCH  37  40
ATOM     40  C   UNL     1       1.822   6.917  20.490  0.00  0.00    -0.041 A 
ATOM     41  C   UNL     1       1.725   5.540  20.652  0.00  0.00    -0.016 A 
ATOM     42  C   UNL     1       2.369   4.683  19.754  0.00  0.00    +0.127 A 
ATOM     43  C   UNL     1       3.144   5.165  18.661  0.00  0.00    +0.048 A 
ATOM     44  C   UNL     1       3.842   4.375  17.690  0.00  0.00    -0.015 A 
ATOM     45  C   UNL     1       4.542   5.036  16.676  0.00  0.00    +0.064 A 
ATOM     46  N   UNL     1       4.576   6.381  16.604  0.00  0.00    -0.154 NA
ATOM     47  N   UNL     1       3.918   7.135  17.528  0.00  0.00    -0.149 NA
ATOM     48  C   UNL     1       3.226   6.564  18.519  0.00  0.00    +0.097 A 
ATOM     49  C   UNL     1       2.576   7.403  19.417  0.00  0.00    -0.031 A 
ATOM     50  H   UNL     1       1.137   5.141  21.473  0.00  0.00    +0.066 HD
ATOM     51  H   UNL     1       2.665   8.478  19.264  0.00  0.00    +0.064 HD
BRANCH  44  52
ATOM     52  C   UNL     1       3.825   2.870  17.752  0.00  0.00    -0.037 C 
ATOM     53  H   UNL     1       2.964   2.476  17.203  0.00  0.00    +0.028 HD
ATOM     54  H   UNL     1       4.710   2.410  17.308  0.00  0.00    +0.028 HD
ATOM     55  H   UNL     1       3.796   2.536  18.794  0.00  0.00    +0.028 HD
ENDBRANCH  44  52
BRANCH  45  56
ATOM     56  C   UNL     1       5.301   4.325  15.598  0.00  0.00    -0.020 C 
ATOM     57  H   UNL     1       5.076   4.752  14.613  0.00  0.00    +0.029 HD
ATOM     58  H   UNL     1       5.025   3.266  15.568  0.00  0.00    +0.029 HD
ATOM     59  H   UNL     1       6.379   4.421  15.760  0.00  0.00    +0.029 HD
ENDBRANCH  45  56
BRANCH  42  60
ATOM     60  O   UNL     1       2.226   3.333  19.953  0.00  0.00    -0.506 OA
ATOM     61  H   UNL     1       1.392   3.040  19.551  0.00  0.00    +0.292 HD
ENDBRANCH  42  60
ENDBRANCH  37  40
ENDBRANCH  34  37
ENDBRANCH   4  34
TORSDOF 8
ENDMDL
MODEL 7
REMARK VINA RESULT:    -7.871      4.206      9.590
REMARK INTER + INTRA:          -9.416
REMARK INTER:                  -9.358
REMARK INTRA:                  -0.057
REMARK UNBOUND:                 1.216
REMARK  Name = 
REMARK  8 active torsions:
REMARK  status: ('A' for Active; 'I' for Inactive)
REMARK    1  A    between atoms: C_1  and  C_2
REMARK    2  A    between atoms: C_6  and  N_7
REMARK    3  A    between atoms: N_10  and  C_11
REMARK    4  A    between atoms: C_11  and  C_12
REMARK    5  A    between atoms: C_12  and  C_13
REMARK    6  A    between atoms: C_15  and  O_16
REMARK    7  A    between atoms: C_18  and  C_19
REMARK    8  A    between atoms: C_20  and  C_21
REMARK                            x       y       z     vdW  Elec       q    Type
REMARK                         _______ _______ _______ _____ _____    ______ ____
ROOT
ATOM      1  N   UNL     1       1.959   8.435  19.661  0.00  0.00    -0.327 N 
ATOM      2  C   UNL     1       1.392   8.887  18.369  0.00  0.00    +0.025 C 
ATOM      3  C   UNL     1       0.919  10.353  18.482  0.00  0.00    +0.015 C 
ATOM      4  N   UNL     1      -0.184  10.552  19.458  0.00  0.00    -0.299 NA
ATOM      5  C   UNL     1      -0.125   9.538  20.538  0.00  0.00    +0.015 C 
ATOM      6  C   UNL     1       1.282   8.985  20.858  0.00  0.00    +0.025 C 
ATOM      7  H   UNL     1       0.547   8.257  18.059  0.00  0.00    +0.048 HD
ATOM      8  H   UNL     1       2.160   8.819  17.589  0.00  0.00    +0.048 HD
ATOM      9  H   UNL     1       1.790  10.965  18.755  0.00  0.00    +0.044 HD
ATOM     10  H   UNL     1       0.581  10.689  17.495  0.00  0.00    +0.044 HD
ATOM     11  H   UNL     1      -0.759   8.703  20.216  0.00  0.00    +0.044 HD
ATOM     12  H   UNL     1      -0.589   9.910  21.460  0.00  0.00    +0.044 HD
ATOM     13  H   UNL     1       1.905   9.803  21.240  0.00  0.00    +0.048 HD
ATOM     14  H   UNL     1       1.217   8.251  21.671  0.00  0.00    +0.048 HD
ENDROOT
BRANCH   1  19
ATOM     15  C   UNL     1       4.737   5.229  16.865  0.00  0.00    +0.039 A 
ATOM     16  C   UNL     1       4.606   6.608  16.818  0.00  0.00    -0.040 A 
ATOM     17  C   UNL     1       3.764   7.224  17.738  0.00  0.00    -0.049 A 
ATOM     18  C   UNL     1       3.065   6.465  18.694  0.00  0.00    +0.021 A 
ATOM     19  C   UNL     1       2.193   7.040  19.663  0.00  0.00    +0.039 A 
ATOM     20  C   UNL     1       1.551   6.196  20.581  0.00  0.00    -0.040 A 
ATOM     21  C   UNL     1       1.766   4.821  20.551  0.00  0.00    -0.058 A 
ATOM     22  C   UNL     1       2.623   4.276  19.595  0.00  0.00    -0.036 A 
ATOM     23  C   UNL     1       3.276   5.068  18.664  0.00  0.00    +0.073 A 
ATOM     24  N   UNL     1       4.087   4.466  17.774  0.00  0.00    -0.252 NA
ATOM     25  H   UNL     1       5.146   7.199  16.087  0.00  0.00    +0.064 HD
ATOM     26  H   UNL     1       3.656   8.305  17.718  0.00  0.00    +0.063 HD
ATOM     27  H   UNL     1       0.865   6.599  21.320  0.00  0.00    +0.064 HD
ATOM     28  H   UNL     1       1.266   4.172  21.264  0.00  0.00    +0.062 HD
ATOM     29  H   UNL     1       2.786   3.201  19.575  0.00  0.00    +0.064 HD
BRANCH  15  30
ATOM     30  C   UNL     1       5.645   4.526  15.903  0.00  0.00    -0.022 C 
ATOM     31  H   UNL     1       5.057   4.012  15.138  0.00  0.00    +0.029 HD
ATOM     32  H   UNL     1       6.267   3.796  16.429  0.00  0.00    +0.029 HD
ATOM     33  H   UNL     1       6.309   5.239  15.403  0.00  0.00    +0.029 HD
ENDBRANCH  15  30
ENDBRANCH   1  19
BRANCH   4  34
ATOM     34  C   UNL     1      -0.190  11.924  20.002  0.00  0.00    +0.003 C 
ATOM     35  H   UNL     1      -1.208  12.188  20.318  0.00  0.00    +0.043 HD
ATOM     36  H   UNL     1       0.436  11.968  20.903  0.00  0.00    +0.043 HD
BRANCH  34  37
ATOM     37  C   UNL     1       0.282  13.006  19.010  0.00  0.00    -0.015 C 
ATOM     38  H   UNL     1      -0.392  13.872  19.003  0.00  0.00    +0.033 HD
ATOM     39  H   UNL     1       0.220  12.589  17.996  0.00  0.00    +0.033 HD
BRANCH  37  40
ATOM     40  C   UNL     1       1.699  13.471  19.257  0.00  0.00    -0.041 A 
ATOM     41  C   UNL     1       2.521  13.866  18.208  0.00  0.00    -0.016 A 
ATOM     42  C   UNL     1       3.820  14.314  18.468  0.00  0.00    +0.127 A 
ATOM     43  C   UNL     1       4.357  14.378  19.785  0.00  0.00    +0.048 A 
ATOM     44  C   UNL     1       5.669  14.817  20.156  0.00  0.00    -0.015 A 
ATOM     45  C   UNL     1       6.009  14.821  21.513  0.00  0.00    +0.064 A 
ATOM     46  N   UNL     1       5.139  14.418  22.458  0.00  0.00    -0.154 NA
ATOM     47  N   UNL     1       3.891  13.995  22.109  0.00  0.00    -0.149 NA
ATOM     48  C   UNL     1       3.504  13.972  20.830  0.00  0.00    +0.097 A 
ATOM     49  C   UNL     1       2.212  13.534  20.557  0.00  0.00    -0.031 A 
ATOM     50  H   UNL     1       2.139  13.833  17.192  0.00  0.00    +0.066 HD
ATOM     51  H   UNL     1       1.589  13.235  21.398  0.00  0.00    +0.064 HD
BRANCH  44  52
ATOM     52  C   UNL     1       6.663  15.267  19.117  0.00  0.00    -0.037 C 
ATOM     53  H   UNL     1       7.426  14.498  18.963  0.00  0.00    +0.028 HD
ATOM     54  H   UNL     1       6.211  15.452  18.140  0.00  0.00    +0.028 HD
ATOM     55  H   UNL     1       7.128  16.210  19.422  0.00  0.00    +0.028 HD
ENDBRANCH  44  52
BRANCH  45  56
ATOM     56  C   UNL     1       7.344  15.267  22.028  0.00  0.00    -0.020 C 
ATOM     57  H   UNL     1       7.867  15.877  21.282  0.00  0.00    +0.029 HD
ATOM     58  H   UNL     1       7.977  14.403  22.251  0.00  0.00    +0.029 HD
ATOM     59  H   UNL     1       7.223  15.878  22.927  0.00  0.00    +0.029 HD
ENDBRANCH  45  56
BRANCH  42  60
ATOM     60  O   UNL     1       4.581  14.706  17.395  0.00  0.00    -0.506 OA
ATOM     61  H   UNL     1       4.072  14.569  16.579  0.00  0.00    +0.292 HD
ENDBRANCH  42  60
ENDBRANCH  37  40
ENDBRANCH  34  37
ENDBRANCH   4  34
TORSDOF 8
ENDMDL
MODEL 8
REMARK VINA RESULT:    -7.783      3.378      9.846
REMARK INTER + INTRA:          -9.296
REMARK INTER:                 -10.861
REMARK INTRA:                   1.565
REMARK UNBOUND:                 1.216
REMARK  Name = 
REMARK  8 active torsions:
REMARK  status: ('A' for Active; 'I' for Inactive)
REMARK    1  A    between atoms: C_1  and  C_2
REMARK    2  A    between atoms: C_6  and  N_7
REMARK    3  A    between atoms: N_10  and  C_11
REMARK    4  A    between atoms: C_11  and  C_12
REMARK    5  A    between atoms: C_12  and  C_13
REMARK    6  A    between atoms: C_15  and  O_16
REMARK    7  A    between atoms: C_18  and  C_19
REMARK    8  A    between atoms: C_20  and  C_21
REMARK                            x       y       z     vdW  Elec       q    Type
REMARK                         _______ _______ _______ _____ _____    ______ ____
ROOT
ATOM      1  N   UNL     1       2.412   7.143  19.749  0.00  0.00    -0.327 N 
ATOM      2  C   UNL     1       1.835   8.042  18.722  0.00  0.00    +0.025 C 
ATOM      3  C   UNL     1       1.597   9.446  19.319  0.00  0.00    +0.015 C 
ATOM      4  N   UNL     1       0.603   9.465  20.424  0.00  0.00    -0.299 NA
ATOM      5  C   UNL     1       0.580   8.166  21.138  0.00  0.00    +0.015 C 
ATOM      6  C   UNL     1       1.905   7.372  21.123  0.00  0.00    +0.025 C 
ATOM      7  H   UNL     1       0.886   7.648  18.332  0.00  0.00    +0.048 HD
ATOM      8  H   UNL     1       2.531   8.126  17.878  0.00  0.00    +0.048 HD
ATOM      9  H   UNL     1       2.566   9.830  19.666  0.00  0.00    +0.044 HD
ATOM     10  H   UNL     1       1.249  10.111  18.520  0.00  0.00    +0.044 HD
ATOM     11  H   UNL     1      -0.193   7.557  20.652  0.00  0.00    +0.044 HD
ATOM     12  H   UNL     1       0.239   8.286  22.173  0.00  0.00    +0.044 HD
ATOM     13  H   UNL     1       2.668   7.948  21.661  0.00  0.00    +0.048 HD
ATOM     14  H   UNL     1       1.785   6.435  21.681  0.00  0.00    +0.048 HD
ENDROOT
BRANCH   1  19
ATOM     15  C   UNL     1       5.006   4.523  16.254  0.00  0.00    +0.039 A 
ATOM     16  C   UNL     1       5.089   5.848  16.655  0.00  0.00    -0.040 A 
ATOM     17  C   UNL     1       4.241   6.287  17.665  0.00  0.00    -0.049 A 
ATOM     18  C   UNL     1       3.322   5.408  18.267  0.00  0.00    +0.021 A 
ATOM     19  C   UNL     1       2.432   5.800  19.309  0.00  0.00    +0.039 A 
ATOM     20  C   UNL     1       1.562   4.842  19.850  0.00  0.00    -0.040 A 
ATOM     21  C   UNL     1       1.572   3.531  19.384  0.00  0.00    -0.058 A 
ATOM     22  C   UNL     1       2.449   3.166  18.364  0.00  0.00    -0.036 A 
ATOM     23  C   UNL     1       3.325   4.076  17.794  0.00  0.00    +0.073 A 
ATOM     24  N   UNL     1       4.141   3.646  16.814  0.00  0.00    -0.252 NA
ATOM     25  H   UNL     1       5.798   6.529  16.199  0.00  0.00    +0.064 HD
ATOM     26  H   UNL     1       4.299   7.321  17.995  0.00  0.00    +0.063 HD
ATOM     27  H   UNL     1       0.858   5.112  20.631  0.00  0.00    +0.064 HD
ATOM     28  H   UNL     1       0.895   2.794  19.807  0.00  0.00    +0.062 HD
ATOM     29  H   UNL     1       2.452   2.141  18.003  0.00  0.00    +0.064 HD
BRANCH  15  30
ATOM     30  C   UNL     1       5.911   4.003  15.180  0.00  0.00    -0.022 C 
ATOM     31  H   UNL     1       6.113   2.941  15.341  0.00  0.00    +0.029 HD
ATOM     32  H   UNL     1       6.857   4.553  15.178  0.00  0.00    +0.029 HD
ATOM     33  H   UNL     1       5.450   4.118  14.193  0.00  0.00    +0.029 HD
ENDBRANCH  15  30
ENDBRANCH   1  19
BRANCH   4  34
ATOM     34  C   UNL     1       0.840  10.589  21.351  0.00  0.00    +0.003 C 
ATOM     35  H   UNL     1       1.016  10.198  22.362  0.00  0.00    +0.043 HD
ATOM     36  H   UNL     1       1.754  11.123  21.060  0.00  0.00    +0.043 HD
BRANCH  34  37
ATOM     37  C   UNL     1      -0.324  11.597  21.442  0.00  0.00    -0.015 C 
ATOM     38  H   UNL     1       0.039  12.626  21.554  0.00  0.00    +0.033 HD
ATOM     39  H   UNL     1      -0.884  11.390  22.364  0.00  0.00    +0.033 HD
BRANCH  37  40
ATOM     40  C   UNL     1      -1.276  11.522  20.270  0.00  0.00    -0.041 A 
ATOM     41  C   UNL     1      -2.474  12.227  20.269  0.00  0.00    -0.016 A 
ATOM     42  C   UNL     1      -3.326  12.158  19.161  0.00  0.00    +0.127 A 
ATOM     43  C   UNL     1      -3.021  11.375  18.012  0.00  0.00    +0.048 A 
ATOM     44  C   UNL     1      -3.822  11.235  16.832  0.00  0.00    -0.015 A 
ATOM     45  C   UNL     1      -3.343  10.427  15.796  0.00  0.00    +0.064 A 
ATOM     46  N   UNL     1      -2.165   9.782  15.893  0.00  0.00    -0.154 NA
ATOM     47  N   UNL     1      -1.402   9.908  17.015  0.00  0.00    -0.149 NA
ATOM     48  C   UNL     1      -1.801  10.671  18.038  0.00  0.00    +0.097 A 
ATOM     49  C   UNL     1      -0.963  10.754  19.144  0.00  0.00    -0.031 A 
ATOM     50  H   UNL     1      -2.733  12.837  21.129  0.00  0.00    +0.066 HD
ATOM     51  H   UNL     1      -0.028  10.195  19.116  0.00  0.00    +0.064 HD
BRANCH  44  52
ATOM     52  C   UNL     1      -5.147  11.941  16.703  0.00  0.00    -0.037 C 
ATOM     53  H   UNL     1      -5.834  11.606  17.485  0.00  0.00    +0.028 HD
ATOM     54  H   UNL     1      -5.070  13.025  16.805  0.00  0.00    +0.028 HD
ATOM     55  H   UNL     1      -5.578  11.757  15.713  0.00  0.00    +0.028 HD
ENDBRANCH  44  52
BRANCH  45  56
ATOM     56  C   UNL     1      -4.081  10.209  14.510  0.00  0.00    -0.020 C 
ATOM     57  H   UNL     1      -5.158  10.105  14.690  0.00  0.00    +0.029 HD
ATOM     58  H   UNL     1      -3.739   9.292  14.022  0.00  0.00    +0.029 HD
ATOM     59  H   UNL     1      -3.941  11.061  13.839  0.00  0.00    +0.029 HD
ENDBRANCH  45  56
BRANCH  42  60
ATOM     60  O   UNL     1      -4.487  12.886  19.210  0.00  0.00    -0.506 OA
ATOM     61  H   UNL     1      -4.344  13.741  18.771  0.00  0.00    +0.292 HD
ENDBRANCH  42  60
ENDBRANCH  37  40
ENDBRANCH  34  37
ENDBRANCH   4  34
TORSDOF 8
ENDMDL
MODEL 9
REMARK VINA RESULT:    -7.755      2.863      5.840
REMARK INTER + INTRA:          -9.259
REMARK INTER:                 -10.547
REMARK INTRA:                   1.288
REMARK UNBOUND:                 1.216
REMARK  Name = 
REMARK  8 active torsions:
REMARK  status: ('A' for Active; 'I' for Inactive)
REMARK    1  A    between atoms: C_1  and  C_2
REMARK    2  A    between atoms: C_6  and  N_7
REMARK    3  A    between atoms: N_10  and  C_11
REMARK    4  A    between atoms: C_11  and  C_12
REMARK    5  A    between atoms: C_12  and  C_13
REMARK    6  A    between atoms: C_15  and  O_16
REMARK    7  A    between atoms: C_18  and  C_19
REMARK    8  A    between atoms: C_20  and  C_21
REMARK                            x       y       z     vdW  Elec       q    Type
REMARK                         _______ _______ _______ _____ _____    ______ ____
ROOT
ATOM      1  N   UNL     1       2.295   6.526  19.535  0.00  0.00    -0.327 N 
ATOM      2  C   UNL     1       1.586   6.014  20.731  0.00  0.00    +0.025 C 
ATOM      3  C   UNL     1       1.796   4.488  20.859  0.00  0.00    +0.015 C 
ATOM      4  N   UNL     1       1.222   3.710  19.730  0.00  0.00    -0.299 NA
ATOM      5  C   UNL     1       1.202   4.517  18.486  0.00  0.00    +0.015 C 
ATOM      6  C   UNL     1       2.297   5.602  18.377  0.00  0.00    +0.025 C 
ATOM      7  H   UNL     1       0.510   6.229  20.683  0.00  0.00    +0.048 HD
ATOM      8  H   UNL     1       1.983   6.504  21.628  0.00  0.00    +0.048 HD
ATOM      9  H   UNL     1       2.875   4.306  20.943  0.00  0.00    +0.044 HD
ATOM     10  H   UNL     1       1.333   4.149  21.792  0.00  0.00    +0.044 HD
ATOM     11  H   UNL     1       0.223   5.010  18.450  0.00  0.00    +0.044 HD
ATOM     12  H   UNL     1       1.233   3.877  17.596  0.00  0.00    +0.044 HD
ATOM     13  H   UNL     1       3.278   5.113  18.350  0.00  0.00    +0.048 HD
ATOM     14  H   UNL     1       2.199   6.134  17.422  0.00  0.00    +0.048 HD
ENDROOT
BRANCH   1  19
ATOM     15  C   UNL     1      -0.236  10.177  22.001  0.00  0.00    +0.039 A 
ATOM     16  C   UNL     1       0.107   8.887  22.374  0.00  0.00    -0.040 A 
ATOM     17  C   UNL     1       0.827   8.107  21.476  0.00  0.00    -0.049 A 
ATOM     18  C   UNL     1       1.200   8.617  20.219  0.00  0.00    +0.021 A 
ATOM     19  C   UNL     1       1.942   7.868  19.260  0.00  0.00    +0.039 A 
ATOM     20  C   UNL     1       2.275   8.473  18.040  0.00  0.00    -0.040 A 
ATOM     21  C   UNL     1       1.894   9.784  17.771  0.00  0.00    -0.058 A 
ATOM     22  C   UNL     1       1.168  10.502  18.721  0.00  0.00    -0.036 A 
ATOM     23  C   UNL     1       0.812   9.947  19.940  0.00  0.00    +0.073 A 
ATOM     24  N   UNL     1       0.112  10.705  20.804  0.00  0.00    -0.252 NA
ATOM     25  H   UNL     1      -0.173   8.490  23.344  0.00  0.00    +0.064 HD
ATOM     26  H   UNL     1       1.109   7.096  21.758  0.00  0.00    +0.063 HD
ATOM     27  H   UNL     1       2.822   7.924  17.280  0.00  0.00    +0.064 HD
ATOM     28  H   UNL     1       2.153  10.248  16.824  0.00  0.00    +0.062 HD
ATOM     29  H   UNL     1       0.872  11.526  18.506  0.00  0.00    +0.064 HD
BRANCH  15  30
ATOM     30  C   UNL     1      -0.998  11.057  22.943  0.00  0.00    -0.022 C 
ATOM     31  H   UNL     1      -1.678  10.455  23.553  0.00  0.00    +0.029 HD
ATOM     32  H   UNL     1      -1.576  11.802  22.388  0.00  0.00    +0.029 HD
ATOM     33  H   UNL     1      -0.317  11.589  23.616  0.00  0.00    +0.029 HD
ENDBRANCH  15  30
ENDBRANCH   1  19
BRANCH   4  34
ATOM     34  C   UNL     1       1.930   2.430  19.535  0.00  0.00    +0.003 C 
ATOM     35  H   UNL     1       1.421   1.640  20.101  0.00  0.00    +0.043 HD
ATOM     36  H   UNL     1       1.880   2.137  18.478  0.00  0.00    +0.043 HD
BRANCH  34  37
ATOM     37  C   UNL     1       3.406   2.443  19.983  0.00  0.00    -0.015 C 
ATOM     38  H   UNL     1       3.800   1.427  20.108  0.00  0.00    +0.033 HD
ATOM     39  H   UNL     1       3.455   2.893  20.983  0.00  0.00    +0.033 HD
BRANCH  37  40
ATOM     40  C   UNL     1       4.308   3.224  19.055  0.00  0.00    -0.041 A 
ATOM     41  C   UNL     1       5.120   4.247  19.532  0.00  0.00    -0.016 A 
ATOM     42  C   UNL     1       5.962   4.938  18.655  0.00  0.00    +0.127 A 
ATOM     43  C   UNL     1       6.025   4.642  17.264  0.00  0.00    +0.048 A 
ATOM     44  C   UNL     1       6.849   5.288  16.286  0.00  0.00    -0.015 A 
ATOM     45  C   UNL     1       6.779   4.844  14.961  0.00  0.00    +0.064 A 
ATOM     46  N   UNL     1       5.958   3.840  14.597  0.00  0.00    -0.154 NA
ATOM     47  N   UNL     1       5.170   3.226  15.523  0.00  0.00    -0.149 NA
ATOM     48  C   UNL     1       5.194   3.601  16.806  0.00  0.00    +0.097 A 
ATOM     49  C   UNL     1       4.365   2.919  17.691  0.00  0.00    -0.031 A 
ATOM     50  H   UNL     1       5.098   4.493  20.589  0.00  0.00    +0.066 HD
ATOM     51  H   UNL     1       3.743   2.119  17.291  0.00  0.00    +0.064 HD
BRANCH  44  52
ATOM     52  C   UNL     1       7.770   6.417  16.667  0.00  0.00    -0.037 C 
ATOM     53  H   UNL     1       8.176   6.896  15.771  0.00  0.00    +0.028 HD
ATOM     54  H   UNL     1       7.274   7.204  17.239  0.00  0.00    +0.028 HD
ATOM     55  H   UNL     1       8.582   6.045  17.300  0.00  0.00    +0.028 HD
ENDBRANCH  44  52
BRANCH  45  56
ATOM     56  C   UNL     1       7.596   5.430  13.850  0.00  0.00    -0.020 C 
ATOM     57  H   UNL     1       7.434   4.882  12.915  0.00  0.00    +0.029 HD
ATOM     58  H   UNL     1       8.663   5.371  14.086  0.00  0.00    +0.029 HD
ATOM     59  H   UNL     1       7.313   6.472  13.675  0.00  0.00    +0.029 HD
ENDBRANCH  45  56
BRANCH  42  60
ATOM     60  O   UNL     1       6.752   5.928  19.185  0.00  0.00    -0.506 OA
ATOM     61  H   UNL     1       6.847   5.781  20.140  0.00  0.00    +0.292 HD
ENDBRANCH  42  60
ENDBRANCH  37  40
ENDBRANCH  34  37
ENDBRANCH   4  34
TORSDOF 8
ENDMDL
MODEL 10
REMARK VINA RESULT:    -7.708      1.381      1.618
REMARK INTER + INTRA:          -9.195
REMARK INTER:                  -8.872
REMARK INTRA:                  -0.323
REMARK UNBOUND:                 1.216
REMARK  Name = 
REMARK  8 active torsions:
REMARK  status: ('A' for Active; 'I' for Inactive)
REMARK    1  A    between atoms: C_1  and  C_2
REMARK    2  A    between atoms: C_6  and  N_7
REMARK    3  A    between atoms: N_10  and  C_11
REMARK    4  A    between atoms: C_11  and  C_12
REMARK    5  A    between atoms: C_12  and  C_13
REMARK    6  A    between atoms: C_15  and  O_16
REMARK    7  A    between atoms: C_18  and  C_19
REMARK    8  A    between atoms: C_20  and  C_21
REMARK                            x       y       z     vdW  Elec       q    Type
REMARK                         _______ _______ _______ _____ _____    ______ ____
ROOT
ATOM      1  N   UNL     1      -0.546  11.718  20.259  0.00  0.00    -0.327 N 
ATOM      2  C   UNL     1      -0.440  10.344  20.804  0.00  0.00    +0.025 C 
ATOM      3  C   UNL     1       0.874   9.684  20.331  0.00  0.00    +0.015 C 
ATOM      4  N   UNL     1       0.955   9.503  18.858  0.00  0.00    -0.299 NA
ATOM      5  C   UNL     1       0.160  10.537  18.153  0.00  0.00    +0.015 C 
ATOM      6  C   UNL     1       0.007  11.883  18.894  0.00  0.00    +0.025 C 
ATOM      7  H   UNL     1      -1.291   9.722  20.491  0.00  0.00    +0.048 HD
ATOM      8  H   UNL     1      -0.444  10.384  21.900  0.00  0.00    +0.048 HD
ATOM      9  H   UNL     1       1.706  10.305  20.689  0.00  0.00    +0.044 HD
ATOM     10  H   UNL     1       0.966   8.704  20.812  0.00  0.00    +0.044 HD
ATOM     11  H   UNL     1      -0.840  10.111  18.001  0.00  0.00    +0.044 HD
ATOM     12  H   UNL     1       0.548  10.718  17.143  0.00  0.00    +0.044 HD
ATOM     13  H   UNL     1       0.996  12.345  18.996  0.00  0.00    +0.048 HD
ATOM     14  H   UNL     1      -0.589  12.577  18.288  0.00  0.00    +0.048 HD
ENDROOT
BRANCH   1  19
ATOM     15  C   UNL     1      -2.715  14.462  23.943  0.00  0.00    +0.039 A 
ATOM     16  C   UNL     1      -1.416  14.004  23.786  0.00  0.00    -0.040 A 
ATOM     17  C   UNL     1      -1.107  13.272  22.645  0.00  0.00    -0.049 A 
ATOM     18  C   UNL     1      -2.089  13.005  21.673  0.00  0.00    +0.021 A 
ATOM     19  C   UNL     1      -1.829  12.266  20.483  0.00  0.00    +0.039 A 
ATOM     20  C   UNL     1      -2.876  12.065  19.571  0.00  0.00    -0.040 A 
ATOM     21  C   UNL     1      -4.143  12.584  19.819  0.00  0.00    -0.058 A 
ATOM     22  C   UNL     1      -4.378  13.304  20.989  0.00  0.00    -0.036 A 
ATOM     23  C   UNL     1      -3.378  13.526  21.923  0.00  0.00    +0.073 A 
ATOM     24  N   UNL     1      -3.684  14.232  23.028  0.00  0.00    -0.252 NA
ATOM     25  H   UNL     1      -0.654  14.210  24.529  0.00  0.00    +0.064 HD
ATOM     26  H   UNL     1      -0.091  12.912  22.504  0.00  0.00    +0.063 HD
ATOM     27  H   UNL     1      -2.718  11.490  18.664  0.00  0.00    +0.064 HD
ATOM     28  H   UNL     1      -4.950  12.424  19.109  0.00  0.00    +0.062 HD
ATOM     29  H   UNL     1      -5.370  13.706  21.179  0.00  0.00    +0.064 HD
BRANCH  15  30
ATOM     30  C   UNL     1      -3.089  15.267  25.150  0.00  0.00    -0.022 C 
ATOM     31  H   UNL     1      -2.632  14.837  26.045  0.00  0.00    +0.029 HD
ATOM     32  H   UNL     1      -4.175  15.288  25.274  0.00  0.00    +0.029 HD
ATOM     33  H   UNL     1      -2.739  16.300  25.052  0.00  0.00    +0.029 HD
ENDBRANCH  15  30
ENDBRANCH   1  19
BRANCH   4  34
ATOM     34  C   UNL     1       2.354   9.481  18.388  0.00  0.00    +0.003 C 
ATOM     35  H   UNL     1       2.587  10.431  17.888  0.00  0.00    +0.043 HD
ATOM     36  H   UNL     1       3.033   9.407  19.248  0.00  0.00    +0.043 HD
BRANCH  34  37
ATOM     37  C   UNL     1       2.675   8.345  17.395  0.00  0.00    -0.015 C 
ATOM     38  H   UNL     1       3.533   8.594  16.758  0.00  0.00    +0.033 HD
ATOM     39  H   UNL     1       1.827   8.245  16.705  0.00  0.00    +0.033 HD
BRANCH  37  40
ATOM     40  C   UNL     1       2.914   7.011  18.065  0.00  0.00    -0.041 A 
ATOM     41  C   UNL     1       4.063   6.273  17.811  0.00  0.00    -0.016 A 
ATOM     42  C   UNL     1       4.270   5.053  18.463  0.00  0.00    +0.127 A 
ATOM     43  C   UNL     1       3.333   4.515  19.391  0.00  0.00    +0.048 A 
ATOM     44  C   UNL     1       3.448   3.279  20.108  0.00  0.00    -0.015 A 
ATOM     45  C   UNL     1       2.423   2.926  20.991  0.00  0.00    +0.064 A 
ATOM     46  N   UNL     1       1.344   3.714  21.170  0.00  0.00    -0.154 NA
ATOM     47  N   UNL     1       1.229   4.887  20.487  0.00  0.00    -0.149 NA
ATOM     48  C   UNL     1       2.177   5.283  19.632  0.00  0.00    +0.097 A 
ATOM     49  C   UNL     1       1.988   6.497  18.979  0.00  0.00    -0.031 A 
ATOM     50  H   UNL     1       4.799   6.658  17.112  0.00  0.00    +0.066 HD
ATOM     51  H   UNL     1       1.081   7.057  19.201  0.00  0.00    +0.064 HD
BRANCH  44  52
ATOM     52  C   UNL     1       4.641   2.379  19.921  0.00  0.00    -0.037 C 
ATOM     53  H   UNL     1       4.746   1.704  20.775  0.00  0.00    +0.028 HD
ATOM     54  H   UNL     1       4.568   1.745  19.035  0.00  0.00    +0.028 HD
ATOM     55  H   UNL     1       5.549   2.977  19.794  0.00  0.00    +0.028 HD
ENDBRANCH  44  52
BRANCH  45  56
ATOM     56  C   UNL     1       2.431   1.668  21.805  0.00  0.00    -0.020 C 
ATOM     57  H   UNL     1       2.194   0.798  21.182  0.00  0.00    +0.029 HD
ATOM     58  H   UNL     1       1.680   1.719  22.599  0.00  0.00    +0.029 HD
ATOM     59  H   UNL     1       3.420   1.500  22.241  0.00  0.00    +0.029 HD
ENDBRANCH  45  56
BRANCH  42  60
ATOM     60  O   UNL     1       5.429   4.374  18.185  0.00  0.00    -0.506 OA
ATOM     61  H   UNL     1       5.679   4.539  17.261  0.00  0.00    +0.292 HD
ENDBRANCH  42  60
ENDBRANCH  37  40
ENDBRANCH  34  37
ENDBRANCH   4  34
TORSDOF 8
ENDMDL
MODEL 11
REMARK VINA RESULT:    -7.697      1.748      2.240
REMARK INTER + INTRA:          -9.181
REMARK INTER:                  -9.175
REMARK INTRA:                  -0.005
REMARK UNBOUND:                 1.216
REMARK  Name = 
REMARK  8 active torsions:
REMARK  status: ('A' for Active; 'I' for Inactive)
REMARK    1  A    between atoms: C_1  and  C_2
REMARK    2  A    between atoms: C_6  and  N_7
REMARK    3  A    between atoms: N_10  and  C_11
REMARK    4  A    between atoms: C_11  and  C_12
REMARK    5  A    between atoms: C_12  and  C_13
REMARK    6  A    between atoms: C_15  and  O_16
REMARK    7  A    between atoms: C_18  and  C_19
REMARK    8  A    between atoms: C_20  and  C_21
REMARK                            x       y       z     vdW  Elec       q    Type
REMARK                         _______ _______ _______ _____ _____    ______ ____
ROOT
ATOM      1  N   UNL     1      -1.735  11.512  20.205  0.00  0.00    -0.327 N 
ATOM      2  C   UNL     1      -2.031  10.805  18.937  0.00  0.00    +0.025 C 
ATOM      3  C   UNL     1      -0.786  10.026  18.460  0.00  0.00    +0.015 C 
ATOM      4  N   UNL     1       0.374  10.897  18.133  0.00  0.00    -0.299 NA
ATOM      5  C   UNL     1       0.342  12.145  18.934  0.00  0.00    +0.015 C 
ATOM      6  C   UNL     1      -0.353  12.038  20.309  0.00  0.00    +0.025 C 
ATOM      7  H   UNL     1      -2.344  11.506  18.151  0.00  0.00    +0.048 HD
ATOM      8  H   UNL     1      -2.854  10.097  19.098  0.00  0.00    +0.048 HD
ATOM      9  H   UNL     1      -0.519   9.309  19.247  0.00  0.00    +0.044 HD
ATOM     10  H   UNL     1      -1.055   9.449  17.568  0.00  0.00    +0.044 HD
ATOM     11  H   UNL     1      -0.196  12.888  18.332  0.00  0.00    +0.044 HD
ATOM     12  H   UNL     1       1.349  12.559  19.066  0.00  0.00    +0.044 HD
ATOM     13  H   UNL     1       0.215  11.342  20.940  0.00  0.00    +0.048 HD
ATOM     14  H   UNL     1      -0.317  13.007  20.822  0.00  0.00    +0.048 HD
ENDROOT
BRANCH   1  19
ATOM     15  C   UNL     1      -2.761  14.485  24.195  0.00  0.00    +0.039 A 
ATOM     16  C   UNL     1      -1.680  13.663  23.919  0.00  0.00    -0.040 A 
ATOM     17  C   UNL     1      -1.669  12.967  22.716  0.00  0.00    -0.049 A 
ATOM     18  C   UNL     1      -2.729  13.095  21.801  0.00  0.00    +0.021 A 
ATOM     19  C   UNL     1      -2.771  12.410  20.551  0.00  0.00    +0.039 A 
ATOM     20  C   UNL     1      -3.869  12.616  19.704  0.00  0.00    -0.040 A 
ATOM     21  C   UNL     1      -4.897  13.478  20.072  0.00  0.00    -0.058 A 
ATOM     22  C   UNL     1      -4.839  14.140  21.298  0.00  0.00    -0.036 A 
ATOM     23  C   UNL     1      -3.778  13.966  22.172  0.00  0.00    +0.073 A 
ATOM     24  N   UNL     1      -3.796  14.640  23.336  0.00  0.00    -0.252 NA
ATOM     25  H   UNL     1      -0.857  13.564  24.618  0.00  0.00    +0.064 HD
ATOM     26  H   UNL     1      -0.824  12.323  22.483  0.00  0.00    +0.063 HD
ATOM     27  H   UNL     1      -3.942  12.095  18.754  0.00  0.00    +0.064 HD
ATOM     28  H   UNL     1      -5.746  13.633  19.411  0.00  0.00    +0.062 HD
ATOM     29  H   UNL     1      -5.646  14.811  21.581  0.00  0.00    +0.064 HD
BRANCH  15  30
ATOM     30  C   UNL     1      -2.807  15.267  25.472  0.00  0.00    -0.022 C 
ATOM     31  H   UNL     1      -1.908  15.074  26.063  0.00  0.00    +0.029 HD
ATOM     32  H   UNL     1      -3.689  14.991  26.057  0.00  0.00    +0.029 HD
ATOM     33  H   UNL     1      -2.859  16.342  25.269  0.00  0.00    +0.029 HD
ENDBRANCH  15  30
ENDBRANCH   1  19
BRANCH   4  34
ATOM     34  C   UNL     1       1.655  10.182  18.294  0.00  0.00    +0.003 C 
ATOM     35  H   UNL     1       1.987   9.802  17.320  0.00  0.00    +0.043 HD
ATOM     36  H   UNL     1       2.429  10.882  18.636  0.00  0.00    +0.043 HD
BRANCH  34  37
ATOM     37  C   UNL     1       1.599   8.984  19.264  0.00  0.00    -0.015 C 
ATOM     38  H   UNL     1       0.567   8.726  19.530  0.00  0.00    +0.033 HD
ATOM     39  H   UNL     1       2.071   9.287  20.208  0.00  0.00    +0.033 HD
BRANCH  37  40
ATOM     40  C   UNL     1       2.309   7.755  18.741  0.00  0.00    -0.041 A 
ATOM     41  C   UNL     1       2.035   6.493  19.254  0.00  0.00    -0.016 A 
ATOM     42  C   UNL     1       2.689   5.370  18.735  0.00  0.00    +0.127 A 
ATOM     43  C   UNL     1       3.649   5.462  17.688  0.00  0.00    +0.048 A 
ATOM     44  C   UNL     1       4.373   4.379  17.091  0.00  0.00    -0.015 A 
ATOM     45  C   UNL     1       5.271   4.670  16.058  0.00  0.00    +0.064 A 
ATOM     46  N   UNL     1       5.467   5.932  15.630  0.00  0.00    -0.154 NA
ATOM     47  N   UNL     1       4.784   6.965  16.198  0.00  0.00    -0.149 NA
ATOM     48  C   UNL     1       3.908   6.752  17.186  0.00  0.00    +0.097 A 
ATOM     49  C   UNL     1       3.246   7.858  17.708  0.00  0.00    -0.031 A 
ATOM     50  H   UNL     1       1.304   6.389  20.049  0.00  0.00    +0.066 HD
ATOM     51  H   UNL     1       3.477   8.835  17.285  0.00  0.00    +0.064 HD
BRANCH  44  52
ATOM     52  C   UNL     1       4.177   2.961  17.557  0.00  0.00    -0.037 C 
ATOM     53  H   UNL     1       3.125   2.672  17.464  0.00  0.00    +0.028 HD
ATOM     54  H   UNL     1       4.748   2.233  16.977  0.00  0.00    +0.028 HD
ATOM     55  H   UNL     1       4.510   2.854  18.594  0.00  0.00    +0.028 HD
ENDBRANCH  44  52
BRANCH  45  56
ATOM     56  C   UNL     1       6.078   3.627  15.347  0.00  0.00    -0.020 C 
ATOM     57  H   UNL     1       5.824   2.623  15.709  0.00  0.00    +0.029 HD
ATOM     58  H   UNL     1       7.146   3.781  15.525  0.00  0.00    +0.029 HD
ATOM     59  H   UNL     1       5.874   3.651  14.273  0.00  0.00    +0.029 HD
ENDBRANCH  45  56
BRANCH  42  60
ATOM     60  O   UNL     1       2.368   4.148  19.270  0.00  0.00    -0.506 OA
ATOM     61  H   UNL     1       2.760   3.449  18.721  0.00  0.00    +0.292 HD
ENDBRANCH  42  60
ENDBRANCH  37  40
ENDBRANCH  34  37
ENDBRANCH   4  34
TORSDOF 8
ENDMDL
MODEL 12
REMARK VINA RESULT:    -7.651      3.363     11.118
REMARK INTER + INTRA:          -9.118
REMARK INTER:                  -8.507
REMARK INTRA:                  -0.611
REMARK UNBOUND:                 1.216
REMARK  Name = 
REMARK  8 active torsions:
REMARK  status: ('A' for Active; 'I' for Inactive)
REMARK    1  A    between atoms: C_1  and  C_2
REMARK    2  A    between atoms: C_6  and  N_7
REMARK    3  A    between atoms: N_10  and  C_11
REMARK    4  A    between atoms: C_11  and  C_12
REMARK    5  A    between atoms: C_12  and  C_13
REMARK    6  A    between atoms: C_15  and  O_16
REMARK    7  A    between atoms: C_18  and  C_19
REMARK    8  A    between atoms: C_20  and  C_21
REMARK                            x       y       z     vdW  Elec       q    Type
REMARK                         _______ _______ _______ _____ _____    ______ ____
ROOT
ATOM      1  N   UNL     1       3.735   5.398  18.661  0.00  0.00    -0.327 N 
ATOM      2  C   UNL     1       3.444   4.762  19.968  0.00  0.00    +0.025 C 
ATOM      3  C   UNL     1       2.025   5.147  20.441  0.00  0.00    +0.015 C 
ATOM      4  N   UNL     1       1.854   6.602  20.693  0.00  0.00    -0.299 NA
ATOM      5  C   UNL     1       2.767   7.399  19.840  0.00  0.00    +0.015 C 
ATOM      6  C   UNL     1       3.156   6.752  18.492  0.00  0.00    +0.025 C 
ATOM      7  H   UNL     1       4.174   5.062  20.731  0.00  0.00    +0.048 HD
ATOM      8  H   UNL     1       3.501   3.672  19.864  0.00  0.00    +0.048 HD
ATOM      9  H   UNL     1       1.314   4.802  19.678  0.00  0.00    +0.044 HD
ATOM     10  H   UNL     1       1.804   4.601  21.365  0.00  0.00    +0.044 HD
ATOM     11  H   UNL     1       3.682   7.556  20.424  0.00  0.00    +0.044 HD
ATOM     12  H   UNL     1       2.367   8.405  19.659  0.00  0.00    +0.044 HD
ATOM     13  H   UNL     1       2.255   6.647  17.876  0.00  0.00    +0.048 HD
ATOM     14  H   UNL     1       3.825   7.421  17.937  0.00  0.00    +0.048 HD
ENDROOT
BRANCH   1  19
ATOM     15  C   UNL     1       6.263   4.208  14.418  0.00  0.00    +0.039 A 
ATOM     16  C   UNL     1       4.909   4.375  14.661  0.00  0.00    -0.040 A 
ATOM     17  C   UNL     1       4.505   4.720  15.947  0.00  0.00    -0.049 A 
ATOM     18  C   UNL     1       5.450   4.896  16.974  0.00  0.00    +0.021 A 
ATOM     19  C   UNL     1       5.096   5.254  18.308  0.00  0.00    +0.039 A 
ATOM     20  C   UNL     1       6.116   5.418  19.256  0.00  0.00    -0.040 A 
ATOM     21  C   UNL     1       7.450   5.241  18.901  0.00  0.00    -0.058 A 
ATOM     22  C   UNL     1       7.777   4.892  17.592  0.00  0.00    -0.036 A 
ATOM     23  C   UNL     1       6.806   4.714  16.619  0.00  0.00    +0.073 A 
ATOM     24  N   UNL     1       7.201   4.377  15.378  0.00  0.00    -0.252 NA
ATOM     25  H   UNL     1       4.176   4.245  13.872  0.00  0.00    +0.064 HD
ATOM     26  H   UNL     1       3.447   4.861  16.151  0.00  0.00    +0.063 HD
ATOM     27  H   UNL     1       5.881   5.670  20.286  0.00  0.00    +0.064 HD
ATOM     28  H   UNL     1       8.236   5.369  19.641  0.00  0.00    +0.062 HD
ATOM     29  H   UNL     1       8.821   4.753  17.320  0.00  0.00    +0.064 HD
BRANCH  15  30
ATOM     30  C   UNL     1       6.743   3.852  13.045  0.00  0.00    -0.022 C 
ATOM     31  H   UNL     1       6.706   2.769  12.903  0.00  0.00    +0.029 HD
ATOM     32  H   UNL     1       7.770   4.200  12.897  0.00  0.00    +0.029 HD
ATOM     33  H   UNL     1       6.114   4.319  12.279  0.00  0.00    +0.029 HD
ENDBRANCH  15  30
ENDBRANCH   1  19
BRANCH   4  34
ATOM     34  C   UNL     1       0.448   7.023  20.525  0.00  0.00    +0.003 C 
ATOM     35  H   UNL     1       0.368   7.686  19.653  0.00  0.00    +0.043 HD
ATOM     36  H   UNL     1      -0.177   6.147  20.308  0.00  0.00    +0.043 HD
BRANCH  34  37
ATOM     37  C   UNL     1      -0.142   7.775  21.735  0.00  0.00    -0.015 C 
ATOM     38  H   UNL     1       0.436   7.589  22.649  0.00  0.00    +0.033 HD
ATOM     39  H   UNL     1      -1.139   7.362  21.939  0.00  0.00    +0.033 HD
BRANCH  37  40
ATOM     40  C   UNL     1      -0.270   9.264  21.512  0.00  0.00    -0.041 A 
ATOM     41  C   UNL     1      -0.599  10.123  22.555  0.00  0.00    -0.016 A 
ATOM     42  C   UNL     1      -0.688  11.500  22.326  0.00  0.00    +0.127 A 
ATOM     43  C   UNL     1      -0.460  12.076  21.044  0.00  0.00    +0.048 A 
ATOM     44  C   UNL     1      -0.527  13.467  20.705  0.00  0.00    -0.015 A 
ATOM     45  C   UNL     1      -0.255  13.843  19.386  0.00  0.00    +0.064 A 
ATOM     46  N   UNL     1       0.056  12.932  18.444  0.00  0.00    -0.154 NA
ATOM     47  N   UNL     1       0.117  11.608  18.761  0.00  0.00    -0.149 NA
ATOM     48  C   UNL     1      -0.127  11.185  20.005  0.00  0.00    +0.097 A 
ATOM     49  C   UNL     1      -0.038   9.819  20.250  0.00  0.00    -0.031 A 
ATOM     50  H   UNL     1      -0.775   9.714  23.545  0.00  0.00    +0.066 HD
ATOM     51  H   UNL     1       0.226   9.170  19.416  0.00  0.00    +0.064 HD
BRANCH  44  52
ATOM     52  C   UNL     1      -0.880  14.504  21.739  0.00  0.00    -0.037 C 
ATOM     53  H   UNL     1      -0.594  14.159  22.738  0.00  0.00    +0.028 HD
ATOM     54  H   UNL     1      -0.370  15.457  21.586  0.00  0.00    +0.028 HD
ATOM     55  H   UNL     1      -1.952  14.722  21.705  0.00  0.00    +0.028 HD
ENDBRANCH  44  52
BRANCH  45  56
ATOM     56  C   UNL     1      -0.283  15.263  18.910  0.00  0.00    -0.020 C 
ATOM     57  H   UNL     1       0.713  15.586  18.584  0.00  0.00    +0.029 HD
ATOM     58  H   UNL     1      -0.598  15.932  19.716  0.00  0.00    +0.029 HD
ATOM     59  H   UNL     1      -0.959  15.368  18.056  0.00  0.00    +0.029 HD
ENDBRANCH  45  56
BRANCH  42  60
ATOM     60  O   UNL     1      -1.002  12.300  23.395  0.00  0.00    -0.506 OA
ATOM     61  H   UNL     1      -1.763  12.856  23.163  0.00  0.00    +0.292 HD
ENDBRANCH  42  60
ENDBRANCH  37  40
ENDBRANCH  34  37
ENDBRANCH   4  34
TORSDOF 8
ENDMDL
MODEL 13
REMARK VINA RESULT:    -7.616      2.405      3.713
REMARK INTER + INTRA:          -9.071
REMARK INTER:                  -8.871
REMARK INTRA:                  -0.200
REMARK UNBOUND:                 1.216
REMARK  Name = 
REMARK  8 active torsions:
REMARK  status: ('A' for Active; 'I' for Inactive)
REMARK    1  A    between atoms: C_1  and  C_2
REMARK    2  A    between atoms: C_6  and  N_7
REMARK    3  A    between atoms: N_10  and  C_11
REMARK    4  A    between atoms: C_11  and  C_12
REMARK    5  A    between atoms: C_12  and  C_13
REMARK    6  A    between atoms: C_15  and  O_16
REMARK    7  A    between atoms: C_18  and  C_19
REMARK    8  A    between atoms: C_20  and  C_21
REMARK                            x       y       z     vdW  Elec       q    Type
REMARK                         _______ _______ _______ _____ _____    ______ ____
ROOT
ATOM      1  N   UNL     1       0.203  10.449  20.838  0.00  0.00    -0.327 N 
ATOM      2  C   UNL     1       1.091  10.111  19.700  0.00  0.00    +0.025 C 
ATOM      3  C   UNL     1       1.122   8.582  19.486  0.00  0.00    +0.015 C 
ATOM      4  N   UNL     1       1.692   7.829  20.634  0.00  0.00    -0.299 NA
ATOM      5  C   UNL     1       1.472   8.557  21.907  0.00  0.00    +0.015 C 
ATOM      6  C   UNL     1       0.225   9.468  21.948  0.00  0.00    +0.025 C 
ATOM      7  H   UNL     1       2.114  10.474  19.869  0.00  0.00    +0.048 HD
ATOM      8  H   UNL     1       0.715  10.592  18.789  0.00  0.00    +0.048 HD
ATOM      9  H   UNL     1       0.094   8.253  19.282  0.00  0.00    +0.044 HD
ATOM     10  H   UNL     1       1.718   8.366  18.592  0.00  0.00    +0.044 HD
ATOM     11  H   UNL     1       2.360   9.181  22.066  0.00  0.00    +0.044 HD
ATOM     12  H   UNL     1       1.450   7.869  22.760  0.00  0.00    +0.044 HD
ATOM     13  H   UNL     1      -0.672   8.844  21.851  0.00  0.00    +0.048 HD
ATOM     14  H   UNL     1       0.150   9.953  22.930  0.00  0.00    +0.048 HD
ENDROOT
BRANCH   1  19
ATOM     15  C   UNL     1      -2.508  13.694  23.653  0.00  0.00    +0.039 A 
ATOM     16  C   UNL     1      -2.684  12.346  23.385  0.00  0.00    -0.040 A 
ATOM     17  C   UNL     1      -1.754  11.706  22.573  0.00  0.00    -0.049 A 
ATOM     18  C   UNL     1      -0.660  12.411  22.038  0.00  0.00    +0.021 A 
ATOM     19  C   UNL     1       0.326  11.808  21.205  0.00  0.00    +0.039 A 
ATOM     20  C   UNL     1       1.385  12.597  20.732  0.00  0.00    -0.040 A 
ATOM     21  C   UNL     1       1.476  13.943  21.075  0.00  0.00    -0.058 A 
ATOM     22  C   UNL     1       0.501  14.515  21.892  0.00  0.00    -0.036 A 
ATOM     23  C   UNL     1      -0.566  13.779  22.381  0.00  0.00    +0.073 A 
ATOM     24  N   UNL     1      -1.465  14.404  23.163  0.00  0.00    -0.252 NA
ATOM     25  H   UNL     1      -3.522  11.796  23.799  0.00  0.00    +0.064 HD
ATOM     26  H   UNL     1      -1.875  10.647  22.360  0.00  0.00    +0.063 HD
ATOM     27  H   UNL     1       2.142  12.175  20.079  0.00  0.00    +0.064 HD
ATOM     28  H   UNL     1       2.298  14.549  20.706  0.00  0.00    +0.062 HD
ATOM     29  H   UNL     1       0.576  15.567  22.156  0.00  0.00    +0.064 HD
BRANCH  15  30
ATOM     30  C   UNL     1      -3.477  14.420  24.536  0.00  0.00    -0.022 C 
ATOM     31  H   UNL     1      -4.288  14.842  23.937  0.00  0.00    +0.029 HD
ATOM     32  H   UNL     1      -2.972  15.225  25.077  0.00  0.00    +0.029 HD
ATOM     33  H   UNL     1      -3.915  13.740  25.274  0.00  0.00    +0.029 HD
ENDBRANCH  15  30
ENDBRANCH   1  19
BRANCH   4  34
ATOM     34  C   UNL     1       1.164   6.452  20.699  0.00  0.00    +0.003 C 
ATOM     35  H   UNL     1       0.481   6.362  21.554  0.00  0.00    +0.043 HD
ATOM     36  H   UNL     1       0.567   6.241  19.802  0.00  0.00    +0.043 HD
BRANCH  34  37
ATOM     37  C   UNL     1       2.244   5.362  20.852  0.00  0.00    -0.015 C 
ATOM     38  H   UNL     1       1.822   4.425  21.235  0.00  0.00    +0.033 HD
ATOM     39  H   UNL     1       2.954   5.691  21.622  0.00  0.00    +0.033 HD
BRANCH  37  40
ATOM     40  C   UNL     1       3.006   5.088  19.576  0.00  0.00    -0.041 A 
ATOM     41  C   UNL     1       2.468   4.290  18.572  0.00  0.00    -0.016 A 
ATOM     42  C   UNL     1       3.185   4.073  17.391  0.00  0.00    +0.127 A 
ATOM     43  C   UNL     1       4.473   4.637  17.165  0.00  0.00    +0.048 A 
ATOM     44  C   UNL     1       5.287   4.476  15.997  0.00  0.00    -0.015 A 
ATOM     45  C   UNL     1       6.525   5.125  15.956  0.00  0.00    +0.064 A 
ATOM     46  N   UNL     1       6.960   5.880  16.984  0.00  0.00    -0.154 NA
ATOM     47  N   UNL     1       6.190   6.032  18.098  0.00  0.00    -0.149 NA
ATOM     48  C   UNL     1       4.995   5.442  18.197  0.00  0.00    +0.097 A 
ATOM     49  C   UNL     1       4.267   5.653  19.363  0.00  0.00    -0.031 A 
ATOM     50  H   UNL     1       1.486   3.850  18.713  0.00  0.00    +0.066 HD
ATOM     51  H   UNL     1       4.711   6.286  20.131  0.00  0.00    +0.064 HD
BRANCH  44  52
ATOM     52  C   UNL     1       4.827   3.631  14.838  0.00  0.00    -0.037 C 
ATOM     53  H   UNL     1       3.734   3.571  14.821  0.00  0.00    +0.028 HD
ATOM     54  H   UNL     1       5.128   4.031  13.867  0.00  0.00    +0.028 HD
ATOM     55  H   UNL     1       5.262   2.629  14.904  0.00  0.00    +0.028 HD
ENDBRANCH  44  52
BRANCH  45  56
ATOM     56  C   UNL     1       7.462   5.043  14.790  0.00  0.00    -0.020 C 
ATOM     57  H   UNL     1       8.485   5.295  15.091  0.00  0.00    +0.029 HD
ATOM     58  H   UNL     1       7.165   5.750  14.009  0.00  0.00    +0.029 HD
ATOM     59  H   UNL     1       7.480   4.028  14.383  0.00  0.00    +0.029 HD
ENDBRANCH  45  56
BRANCH  42  60
ATOM     60  O   UNL     1       2.599   3.289  16.430  0.00  0.00    -0.506 OA
ATOM     61  H   UNL     1       1.939   3.816  15.950  0.00  0.00    +0.292 HD
ENDBRANCH  42  60
ENDBRANCH  37  40
ENDBRANCH  34  37
ENDBRANCH   4  34
TORSDOF 8
ENDMDL
MODEL 14
REMARK VINA RESULT:    -7.614      2.853     10.528
REMARK INTER + INTRA:          -9.068
REMARK INTER:                  -8.824
REMARK INTRA:                  -0.245
REMARK UNBOUND:                 1.216
REMARK  Name = 
REMARK  8 active torsions:
REMARK  status: ('A' for Active; 'I' for Inactive)
REMARK    1  A    between atoms: C_1  and  C_2
REMARK    2  A    between atoms: C_6  and  N_7
REMARK    3  A    between atoms: N_10  and  C_11
REMARK    4  A    between atoms: C_11  and  C_12
REMARK    5  A    between atoms: C_12  and  C_13
REMARK    6  A    between atoms: C_15  and  O_16
REMARK    7  A    between atoms: C_18  and  C_19
REMARK    8  A    between atoms: C_20  and  C_21
REMARK                            x       y       z     vdW  Elec       q    Type
REMARK                         _______ _______ _______ _____ _____    ______ ____
ROOT
ATOM      1  N   UNL     1       1.968   7.370  18.701  0.00  0.00    -0.327 N 
ATOM      2  C   UNL     1       1.969   8.047  20.019  0.00  0.00    +0.025 C 
ATOM      3  C   UNL     1       1.094   9.319  19.964  0.00  0.00    +0.015 C 
ATOM      4  N   UNL     1       1.600  10.350  19.020  0.00  0.00    -0.299 NA
ATOM      5  C   UNL     1       2.355   9.726  17.908  0.00  0.00    +0.015 C 
ATOM      6  C   UNL     1       1.932   8.287  17.538  0.00  0.00    +0.025 C 
ATOM      7  H   UNL     1       2.987   8.320  20.329  0.00  0.00    +0.048 HD
ATOM      8  H   UNL     1       1.562   7.368  20.779  0.00  0.00    +0.048 HD
ATOM      9  H   UNL     1       0.076   9.012  19.690  0.00  0.00    +0.044 HD
ATOM     10  H   UNL     1       1.046   9.754  20.968  0.00  0.00    +0.044 HD
ATOM     11  H   UNL     1       3.407   9.707  18.218  0.00  0.00    +0.044 HD
ATOM     12  H   UNL     1       2.334  10.355  17.009  0.00  0.00    +0.044 HD
ATOM     13  H   UNL     1       0.899   8.306  17.168  0.00  0.00    +0.048 HD
ATOM     14  H   UNL     1       2.544   7.921  16.704  0.00  0.00    +0.048 HD
ENDROOT
BRANCH   1  19
ATOM     15  C   UNL     1       2.579   2.883  21.003  0.00  0.00    +0.039 A 
ATOM     16  C   UNL     1       1.563   3.822  21.082  0.00  0.00    -0.040 A 
ATOM     17  C   UNL     1       1.665   4.974  20.310  0.00  0.00    -0.049 A 
ATOM     18  C   UNL     1       2.773   5.179  19.467  0.00  0.00    +0.021 A 
ATOM     19  C   UNL     1       2.930   6.336  18.650  0.00  0.00    +0.039 A 
ATOM     20  C   UNL     1       4.067   6.438  17.835  0.00  0.00    -0.040 A 
ATOM     21  C   UNL     1       5.022   5.426  17.819  0.00  0.00    -0.058 A 
ATOM     22  C   UNL     1       4.851   4.302  18.625  0.00  0.00    -0.036 A 
ATOM     23  C   UNL     1       3.748   4.156  19.450  0.00  0.00    +0.073 A 
ATOM     24  N   UNL     1       3.656   3.041  20.198  0.00  0.00    -0.252 NA
ATOM     25  H   UNL     1       0.704   3.668  21.726  0.00  0.00    +0.064 HD
ATOM     26  H   UNL     1       0.873   5.716  20.356  0.00  0.00    +0.063 HD
ATOM     27  H   UNL     1       4.228   7.315  17.215  0.00  0.00    +0.064 HD
ATOM     28  H   UNL     1       5.901   5.512  17.186  0.00  0.00    +0.062 HD
ATOM     29  H   UNL     1       5.601   3.515  18.610  0.00  0.00    +0.064 HD
BRANCH  15  30
ATOM     30  C   UNL     1       2.502   1.620  21.806  0.00  0.00    -0.022 C 
ATOM     31  H   UNL     1       3.506   1.295  22.091  0.00  0.00    +0.029 HD
ATOM     32  H   UNL     1       2.018   0.828  21.227  0.00  0.00    +0.029 HD
ATOM     33  H   UNL     1       1.920   1.776  22.720  0.00  0.00    +0.029 HD
ENDBRANCH  15  30
ENDBRANCH   1  19
BRANCH   4  34
ATOM     34  C   UNL     1       0.510  11.211  18.519  0.00  0.00    +0.003 C 
ATOM     35  H   UNL     1       0.611  12.216  18.949  0.00  0.00    +0.043 HD
ATOM     36  H   UNL     1       0.601  11.328  17.431  0.00  0.00    +0.043 HD
BRANCH  34  37
ATOM     37  C   UNL     1      -0.908  10.706  18.854  0.00  0.00    -0.015 C 
ATOM     38  H   UNL     1      -0.888   9.698  19.286  0.00  0.00    +0.033 HD
ATOM     39  H   UNL     1      -1.464  10.601  17.913  0.00  0.00    +0.033 HD
BRANCH  37  40
ATOM     40  C   UNL     1      -1.676  11.633  19.769  0.00  0.00    -0.041 A 
ATOM     41  C   UNL     1      -2.906  12.160  19.393  0.00  0.00    -0.016 A 
ATOM     42  C   UNL     1      -3.606  12.997  20.268  0.00  0.00    +0.127 A 
ATOM     43  C   UNL     1      -3.103  13.348  21.553  0.00  0.00    +0.048 A 
ATOM     44  C   UNL     1      -3.737  14.195  22.520  0.00  0.00    -0.015 A 
ATOM     45  C   UNL     1      -3.088  14.412  23.740  0.00  0.00    +0.064 A 
ATOM     46  N   UNL     1      -1.893  13.854  24.011  0.00  0.00    -0.154 NA
ATOM     47  N   UNL     1      -1.284  13.052  23.092  0.00  0.00    -0.149 NA
ATOM     48  C   UNL     1      -1.855  12.801  21.910  0.00  0.00    +0.097 A 
ATOM     49  C   UNL     1      -1.174  11.966  21.031  0.00  0.00    -0.031 A 
ATOM     50  H   UNL     1      -3.318  11.906  18.421  0.00  0.00    +0.066 HD
ATOM     51  H   UNL     1      -0.215  11.564  21.353  0.00  0.00    +0.064 HD
BRANCH  44  52
ATOM     52  C   UNL     1      -5.071  14.836  22.237  0.00  0.00    -0.037 C 
ATOM     53  H   UNL     1      -4.933  15.776  21.693  0.00  0.00    +0.028 HD
ATOM     54  H   UNL     1      -5.725  14.217  21.620  0.00  0.00    +0.028 HD
ATOM     55  H   UNL     1      -5.611  15.014  23.173  0.00  0.00    +0.028 HD
ENDBRANCH  44  52
BRANCH  45  56
ATOM     56  C   UNL     1      -3.652  15.267  24.833  0.00  0.00    -0.020 C 
ATOM     57  H   UNL     1      -4.014  14.650  25.664  0.00  0.00    +0.029 HD
ATOM     58  H   UNL     1      -4.499  15.853  24.465  0.00  0.00    +0.029 HD
ATOM     59  H   UNL     1      -2.883  15.936  25.231  0.00  0.00    +0.029 HD
ENDBRANCH  45  56
BRANCH  42  60
ATOM     60  O   UNL     1      -4.821  13.475  19.850  0.00  0.00    -0.506 OA
ATOM     61  H   UNL     1      -5.103  12.980  19.063  0.00  0.00    +0.292 HD
ENDBRANCH  42  60
ENDBRANCH  37  40
ENDBRANCH  34  37
ENDBRANCH   4  34
TORSDOF 8
ENDMDL
MODEL 15
REMARK VINA RESULT:    -7.609      4.460      9.683
REMARK INTER + INTRA:          -9.061
REMARK INTER:                  -8.914
REMARK INTRA:                  -0.148
REMARK UNBOUND:                 1.216
REMARK  Name = 
REMARK  8 active torsions:
REMARK  status: ('A' for Active; 'I' for Inactive)
REMARK    1  A    between atoms: C_1  and  C_2
REMARK    2  A    between atoms: C_6  and  N_7
REMARK    3  A    between atoms: N_10  and  C_11
REMARK    4  A    between atoms: C_11  and  C_12
REMARK    5  A    between atoms: C_12  and  C_13
REMARK    6  A    between atoms: C_15  and  O_16
REMARK    7  A    between atoms: C_18  and  C_19
REMARK    8  A    between atoms: C_20  and  C_21
REMARK                            x       y       z     vdW  Elec       q    Type
REMARK                         _______ _______ _______ _____ _____    ______ ____
ROOT
ATOM      1  N   UNL     1       1.917   8.553  19.642  0.00  0.00    -0.327 N 
ATOM      2  C   UNL     1       1.326   9.052  18.378  0.00  0.00    +0.025 C 
ATOM      3  C   UNL     1       0.907  10.531  18.535  0.00  0.00    +0.015 C 
ATOM      4  N   UNL     1      -0.157  10.745  19.549  0.00  0.00    -0.299 NA
ATOM      5  C   UNL     1      -0.100   9.707  20.607  0.00  0.00    +0.015 C 
ATOM      6  C   UNL     1       1.296   9.100  20.871  0.00  0.00    +0.025 C 
ATOM      7  H   UNL     1       0.451   8.457  18.082  0.00  0.00    +0.048 HD
ATOM      8  H   UNL     1       2.067   8.975  17.573  0.00  0.00    +0.048 HD
ATOM      9  H   UNL     1       1.807  11.106  18.793  0.00  0.00    +0.044 HD
ATOM     10  H   UNL     1       0.550  10.898  17.566  0.00  0.00    +0.044 HD
ATOM     11  H   UNL     1      -0.772   8.901  20.288  0.00  0.00    +0.044 HD
ATOM     12  H   UNL     1      -0.522  10.075  21.550  0.00  0.00    +0.044 HD
ATOM     13  H   UNL     1       1.959   9.889  21.249  0.00  0.00    +0.048 HD
ATOM     14  H   UNL     1       1.232   8.352  21.671  0.00  0.00    +0.048 HD
ENDROOT
BRANCH   1  19
ATOM     15  C   UNL     1       4.633   5.332  16.804  0.00  0.00    +0.039 A 
ATOM     16  C   UNL     1       4.550   6.715  16.794  0.00  0.00    -0.040 A 
ATOM     17  C   UNL     1       3.714   7.334  17.716  0.00  0.00    -0.049 A 
ATOM     18  C   UNL     1       2.971   6.573  18.638  0.00  0.00    +0.021 A 
ATOM     19  C   UNL     1       2.102   7.152  19.608  0.00  0.00    +0.039 A 
ATOM     20  C   UNL     1       1.416   6.305  20.490  0.00  0.00    -0.040 A 
ATOM     21  C   UNL     1       1.584   4.925  20.425  0.00  0.00    -0.058 A 
ATOM     22  C   UNL     1       2.438   4.377  19.469  0.00  0.00    -0.036 A 
ATOM     23  C   UNL     1       3.136   5.171  18.572  0.00  0.00    +0.073 A 
ATOM     24  N   UNL     1       3.941   4.567  17.679  0.00  0.00    -0.252 NA
ATOM     25  H   UNL     1       5.124   7.307  16.089  0.00  0.00    +0.064 HD
ATOM     26  H   UNL     1       3.644   8.419  17.725  0.00  0.00    +0.063 HD
ATOM     27  H   UNL     1       0.731   6.711  21.229  0.00  0.00    +0.064 HD
ATOM     28  H   UNL     1       1.049   4.274  21.110  0.00  0.00    +0.062 HD
ATOM     29  H   UNL     1       2.565   3.299  19.421  0.00  0.00    +0.064 HD
BRANCH  15  30
ATOM     30  C   UNL     1       5.534   4.624  15.838  0.00  0.00    -0.022 C 
ATOM     31  H   UNL     1       4.958   4.266  14.980  0.00  0.00    +0.029 HD
ATOM     32  H   UNL     1       6.022   3.774  16.324  0.00  0.00    +0.029 HD
ATOM     33  H   UNL     1       6.314   5.298  15.469  0.00  0.00    +0.029 HD
ENDBRANCH  15  30
ENDBRANCH   1  19
BRANCH   4  34
ATOM     34  C   UNL     1      -0.099  12.105  20.122  0.00  0.00    +0.003 C 
ATOM     35  H   UNL     1      -1.106  12.414  20.432  0.00  0.00    +0.043 HD
ATOM     36  H   UNL     1       0.518  12.099  21.029  0.00  0.00    +0.043 HD
BRANCH  34  37
ATOM     37  C   UNL     1       0.438  13.181  19.156  0.00  0.00    -0.015 C 
ATOM     38  H   UNL     1      -0.231  14.048  19.103  0.00  0.00    +0.033 HD
ATOM     39  H   UNL     1       0.439  12.759  18.142  0.00  0.00    +0.033 HD
BRANCH  37  40
ATOM     40  C   UNL     1       1.838  13.642  19.490  0.00  0.00    -0.041 A 
ATOM     41  C   UNL     1       2.194  13.980  20.791  0.00  0.00    -0.016 A 
ATOM     42  C   UNL     1       3.503  14.381  21.076  0.00  0.00    +0.127 A 
ATOM     43  C   UNL     1       4.511  14.469  20.074  0.00  0.00    +0.048 A 
ATOM     44  C   UNL     1       5.874  14.868  20.260  0.00  0.00    -0.015 A 
ATOM     45  C   UNL     1       6.722  14.878  19.148  0.00  0.00    +0.064 A 
ATOM     46  N   UNL     1       6.280  14.531  17.923  0.00  0.00    -0.154 NA
ATOM     47  N   UNL     1       4.983  14.156  17.741  0.00  0.00    -0.149 NA
ATOM     48  C   UNL     1       4.125  14.120  18.765  0.00  0.00    +0.097 A 
ATOM     49  C   UNL     1       2.820  13.718  18.497  0.00  0.00    -0.031 A 
ATOM     50  H   UNL     1       1.450  13.919  21.578  0.00  0.00    +0.066 HD
ATOM     51  H   UNL     1       2.571  13.455  17.471  0.00  0.00    +0.064 HD
BRANCH  44  52
ATOM     52  C   UNL     1       6.390  15.267  21.619  0.00  0.00    -0.037 C 
ATOM     53  H   UNL     1       7.478  15.158  21.660  0.00  0.00    +0.028 HD
ATOM     54  H   UNL     1       6.175  16.307  21.873  0.00  0.00    +0.028 HD
ATOM     55  H   UNL     1       5.917  14.658  22.396  0.00  0.00    +0.028 HD
ENDBRANCH  44  52
BRANCH  45  56
ATOM     56  C   UNL     1       8.167  15.265  19.215  0.00  0.00    -0.020 C 
ATOM     57  H   UNL     1       8.558  15.143  20.232  0.00  0.00    +0.029 HD
ATOM     58  H   UNL     1       8.297  16.316  18.936  0.00  0.00    +0.029 HD
ATOM     59  H   UNL     1       8.765  14.631  18.554  0.00  0.00    +0.029 HD
ENDBRANCH  45  56
BRANCH  42  60
ATOM     60  O   UNL     1       3.801  14.689  22.380  0.00  0.00    -0.506 OA
ATOM     61  H   UNL     1       2.974  14.802  22.876  0.00  0.00    +0.292 HD
ENDBRANCH  42  60
ENDBRANCH  37  40
ENDBRANCH  34  37
ENDBRANCH   4  34
TORSDOF 8
ENDMDL
MODEL 16
REMARK VINA RESULT:    -7.605      4.537      9.580
REMARK INTER + INTRA:          -9.057
REMARK INTER:                  -8.980
REMARK INTRA:                  -0.077
REMARK UNBOUND:                 1.216
REMARK  Name = 
REMARK  8 active torsions:
REMARK  status: ('A' for Active; 'I' for Inactive)
REMARK    1  A    between atoms: C_1  and  C_2
REMARK    2  A    between atoms: C_6  and  N_7
REMARK    3  A    between atoms: N_10  and  C_11
REMARK    4  A    between atoms: C_11  and  C_12
REMARK    5  A    between atoms: C_12  and  C_13
REMARK    6  A    between atoms: C_15  and  O_16
REMARK    7  A    between atoms: C_18  and  C_19
REMARK    8  A    between atoms: C_20  and  C_21
REMARK                            x       y       z     vdW  Elec       q    Type
REMARK                         _______ _______ _______ _____ _____    ______ ____
ROOT
ATOM      1  N   UNL     1       1.559   8.379  18.851  0.00  0.00    -0.327 N 
ATOM      2  C   UNL     1       1.734   8.968  20.200  0.00  0.00    +0.025 C 
ATOM      3  C   UNL     1       0.835  10.214  20.356  0.00  0.00    +0.015 C 
ATOM      4  N   UNL     1       1.180  11.319  19.424  0.00  0.00    -0.299 NA
ATOM      5  C   UNL     1       1.782  10.792  18.176  0.00  0.00    +0.015 C 
ATOM      6  C   UNL     1       1.339   9.369  17.770  0.00  0.00    +0.025 C 
ATOM      7  H   UNL     1       2.781   9.250  20.381  0.00  0.00    +0.048 HD
ATOM      8  H   UNL     1       1.454   8.229  20.960  0.00  0.00    +0.048 HD
ATOM      9  H   UNL     1      -0.205   9.895  20.208  0.00  0.00    +0.044 HD
ATOM     10  H   UNL     1       0.922  10.581  21.385  0.00  0.00    +0.044 HD
ATOM     11  H   UNL     1       2.867  10.784  18.332  0.00  0.00    +0.044 HD
ATOM     12  H   UNL     1       1.620  11.478  17.335  0.00  0.00    +0.044 HD
ATOM     13  H   UNL     1       0.264   9.381  17.552  0.00  0.00    +0.048 HD
ATOM     14  H   UNL     1       1.833   9.077  16.835  0.00  0.00    +0.048 HD
ENDROOT
BRANCH   1  19
ATOM     15  C   UNL     1       2.606   3.787  20.754  0.00  0.00    +0.039 A 
ATOM     16  C   UNL     1       1.594   4.689  21.042  0.00  0.00    -0.040 A 
ATOM     17  C   UNL     1       1.554   5.885  20.336  0.00  0.00    -0.049 A 
ATOM     18  C   UNL     1       2.517   6.173  19.352  0.00  0.00    +0.021 A 
ATOM     19  C   UNL     1       2.525   7.379  18.593  0.00  0.00    +0.039 A 
ATOM     20  C   UNL     1       3.524   7.563  17.626  0.00  0.00    -0.040 A 
ATOM     21  C   UNL     1       4.487   6.584  17.406  0.00  0.00    -0.058 A 
ATOM     22  C   UNL     1       4.464   5.410  18.158  0.00  0.00    -0.036 A 
ATOM     23  C   UNL     1       3.501   5.183  19.127  0.00  0.00    +0.073 A 
ATOM     24  N   UNL     1       3.546   4.024  19.810  0.00  0.00    -0.252 NA
ATOM     25  H   UNL     1       0.845   4.471  21.796  0.00  0.00    +0.064 HD
ATOM     26  H   UNL     1       0.761   6.600  20.545  0.00  0.00    +0.063 HD
ATOM     27  H   UNL     1       3.570   8.479  17.045  0.00  0.00    +0.064 HD
ATOM     28  H   UNL     1       5.259   6.733  16.656  0.00  0.00    +0.062 HD
ATOM     29  H   UNL     1       5.220   4.648  17.982  0.00  0.00    +0.064 HD
BRANCH  15  30
ATOM     30  C   UNL     1       2.678   2.478  21.480  0.00  0.00    -0.022 C 
ATOM     31  H   UNL     1       3.680   2.051  21.386  0.00  0.00    +0.029 HD
ATOM     32  H   UNL     1       1.946   1.775  21.073  0.00  0.00    +0.029 HD
ATOM     33  H   UNL     1       2.463   2.612  22.546  0.00  0.00    +0.029 HD
ENDBRANCH  15  30
ENDBRANCH   1  19
BRANCH   4  34
ATOM     34  C   UNL     1       0.013  12.179  19.142  0.00  0.00    +0.003 C 
ATOM     35  H   UNL     1      -0.282  12.062  18.092  0.00  0.00    +0.043 HD
ATOM     36  H   UNL     1      -0.844  11.849  19.745  0.00  0.00    +0.043 HD
BRANCH  34  37
ATOM     37  C   UNL     1       0.253  13.682  19.391  0.00  0.00    -0.015 C 
ATOM     38  H   UNL     1      -0.379  14.065  20.201  0.00  0.00    +0.033 HD
ATOM     39  H   UNL     1      -0.068  14.231  18.495  0.00  0.00    +0.033 HD
BRANCH  37  40
ATOM     40  C   UNL     1       1.699  14.020  19.675  0.00  0.00    -0.041 A 
ATOM     41  C   UNL     1       2.153  14.207  20.975  0.00  0.00    -0.016 A 
ATOM     42  C   UNL     1       3.501  14.496  21.211  0.00  0.00    +0.127 A 
ATOM     43  C   UNL     1       4.451  14.618  20.158  0.00  0.00    +0.048 A 
ATOM     44  C   UNL     1       5.847  14.912  20.291  0.00  0.00    -0.015 A 
ATOM     45  C   UNL     1       6.626  14.979  19.132  0.00  0.00    +0.064 A 
ATOM     46  N   UNL     1       6.090  14.782  17.911  0.00  0.00    -0.154 NA
ATOM     47  N   UNL     1       4.762  14.507  17.779  0.00  0.00    -0.149 NA
ATOM     48  C   UNL     1       3.966  14.424  18.849  0.00  0.00    +0.097 A 
ATOM     49  C   UNL     1       2.623  14.133  18.631  0.00  0.00    -0.031 A 
ATOM     50  H   UNL     1       1.454  14.115  21.801  0.00  0.00    +0.066 HD
ATOM     51  H   UNL     1       2.296  13.987  17.603  0.00  0.00    +0.064 HD
BRANCH  44  52
ATOM     52  C   UNL     1       6.468  15.143  21.644  0.00  0.00    -0.037 C 
ATOM     53  H   UNL     1       7.043  16.073  21.645  0.00  0.00    +0.028 HD
ATOM     54  H   UNL     1       5.732  15.236  22.446  0.00  0.00    +0.028 HD
ATOM     55  H   UNL     1       7.109  14.298  21.915  0.00  0.00    +0.028 HD
ENDBRANCH  44  52
BRANCH  45  56
ATOM     56  C   UNL     1       8.096  15.267  19.140  0.00  0.00    -0.020 C 
ATOM     57  H   UNL     1       8.507  15.234  18.124  0.00  0.00    +0.029 HD
ATOM     58  H   UNL     1       8.630  14.521  19.736  0.00  0.00    +0.029 HD
ATOM     59  H   UNL     1       8.288  16.267  19.540  0.00  0.00    +0.029 HD
ENDBRANCH  45  56
BRANCH  42  60
ATOM     60  O   UNL     1       3.895  14.654  22.515  0.00  0.00    -0.506 OA
ATOM     61  H   UNL     1       3.655  13.859  23.018  0.00  0.00    +0.292 HD
ENDBRANCH  42  60
ENDBRANCH  37  40
ENDBRANCH  34  37
ENDBRANCH   4  34
TORSDOF 8
ENDMDL
MODEL 17
REMARK VINA RESULT:    -7.496      1.548      2.537
REMARK INTER + INTRA:          -8.909
REMARK INTER:                  -8.427
REMARK INTRA:                  -0.482
REMARK UNBOUND:                 1.216
REMARK  Name = 
REMARK  8 active torsions:
REMARK  status: ('A' for Active; 'I' for Inactive)
REMARK    1  A    between atoms: C_1  and  C_2
REMARK    2  A    between atoms: C_6  and  N_7
REMARK    3  A    between atoms: N_10  and  C_11
REMARK    4  A    between atoms: C_11  and  C_12
REMARK    5  A    between atoms: C_12  and  C_13
REMARK    6  A    between atoms: C_15  and  O_16
REMARK    7  A    between atoms: C_18  and  C_19
REMARK    8  A    between atoms: C_20  and  C_21
REMARK                            x       y       z     vdW  Elec       q    Type
REMARK                         _______ _______ _______ _____ _____    ______ ____
ROOT
ATOM      1  N   UNL     1      -0.458  11.757  20.597  0.00  0.00    -0.327 N 
ATOM      2  C   UNL     1      -1.043  12.003  19.258  0.00  0.00    +0.025 C 
ATOM      3  C   UNL     1      -0.779  10.794  18.334  0.00  0.00    +0.015 C 
ATOM      4  N   UNL     1       0.663  10.550  18.067  0.00  0.00    -0.299 NA
ATOM      5  C   UNL     1       1.498  11.020  19.198  0.00  0.00    +0.015 C 
ATOM      6  C   UNL     1       0.817  11.003  20.584  0.00  0.00    +0.025 C 
ATOM      7  H   UNL     1      -0.626  12.909  18.798  0.00  0.00    +0.048 HD
ATOM      8  H   UNL     1      -2.126  12.148  19.354  0.00  0.00    +0.048 HD
ATOM      9  H   UNL     1      -1.239   9.912  18.799  0.00  0.00    +0.044 HD
ATOM     10  H   UNL     1      -1.290  10.965  17.380  0.00  0.00    +0.044 HD
ATOM     11  H   UNL     1       1.782  12.055  18.967  0.00  0.00    +0.044 HD
ATOM     12  H   UNL     1       2.445  10.470  19.250  0.00  0.00    +0.044 HD
ATOM     13  H   UNL     1       0.584   9.964  20.850  0.00  0.00    +0.048 HD
ATOM     14  H   UNL     1       1.517  11.360  21.349  0.00  0.00    +0.048 HD
ENDROOT
BRANCH   1  19
ATOM     15  C   UNL     1      -3.947  14.134  23.424  0.00  0.00    +0.039 A 
ATOM     16  C   UNL     1      -4.001  12.950  22.706  0.00  0.00    -0.040 A 
ATOM     17  C   UNL     1      -2.862  12.536  22.025  0.00  0.00    -0.049 A 
ATOM     18  C   UNL     1      -1.682  13.301  22.067  0.00  0.00    +0.021 A 
ATOM     19  C   UNL     1      -0.483  12.925  21.394  0.00  0.00    +0.039 A 
ATOM     20  C   UNL     1       0.644  13.752  21.509  0.00  0.00    -0.040 A 
ATOM     21  C   UNL     1       0.596  14.915  22.271  0.00  0.00    -0.058 A 
ATOM     22  C   UNL     1      -0.586  15.267  22.922  0.00  0.00    -0.036 A 
ATOM     23  C   UNL     1      -1.727  14.485  22.836  0.00  0.00    +0.073 A 
ATOM     24  N   UNL     1      -2.829  14.892  23.494  0.00  0.00    -0.252 NA
ATOM     25  H   UNL     1      -4.906  12.353  22.674  0.00  0.00    +0.064 HD
ATOM     26  H   UNL     1      -2.887  11.606  21.463  0.00  0.00    +0.063 HD
ATOM     27  H   UNL     1       1.567  13.506  20.994  0.00  0.00    +0.064 HD
ATOM     28  H   UNL     1       1.472  15.552  22.356  0.00  0.00    +0.062 HD
ATOM     29  H   UNL     1      -0.619  16.177  23.515  0.00  0.00    +0.064 HD
BRANCH  15  30
ATOM     30  C   UNL     1      -5.147  14.610  24.184  0.00  0.00    -0.022 C 
ATOM     31  H   UNL     1      -5.646  15.412  23.636  0.00  0.00    +0.029 HD
ATOM     32  H   UNL     1      -4.852  14.977  25.172  0.00  0.00    +0.029 HD
ATOM     33  H   UNL     1      -5.865  13.795  24.327  0.00  0.00    +0.029 HD
ENDBRANCH  15  30
ENDBRANCH   1  19
BRANCH   4  34
ATOM     34  C   UNL     1       0.927   9.133  17.751  0.00  0.00    +0.003 C 
ATOM     35  H   UNL     1       0.472   8.495  18.520  0.00  0.00    +0.043 HD
ATOM     36  H   UNL     1       0.443   8.868  16.801  0.00  0.00    +0.043 HD
BRANCH  34  37
ATOM     37  C   UNL     1       2.423   8.765  17.671  0.00  0.00    -0.015 C 
ATOM     38  H   UNL     1       3.050   9.502  18.188  0.00  0.00    +0.033 HD
ATOM     39  H   UNL     1       2.731   8.818  16.618  0.00  0.00    +0.033 HD
BRANCH  37  40
ATOM     40  C   UNL     1       2.730   7.382  18.196  0.00  0.00    -0.041 A 
ATOM     41  C   UNL     1       3.765   6.622  17.663  0.00  0.00    -0.016 A 
ATOM     42  C   UNL     1       4.042   5.354  18.185  0.00  0.00    +0.127 A 
ATOM     43  C   UNL     1       3.293   4.788  19.255  0.00  0.00    +0.048 A 
ATOM     44  C   UNL     1       3.494   3.504  19.858  0.00  0.00    -0.015 A 
ATOM     45  C   UNL     1       2.659   3.128  20.915  0.00  0.00    +0.064 A 
ATOM     46  N   UNL     1       1.681   3.939  21.362  0.00  0.00    -0.154 NA
ATOM     47  N   UNL     1       1.483   5.159  20.789  0.00  0.00    -0.149 NA
ATOM     48  C   UNL     1       2.251   5.578  19.778  0.00  0.00    +0.097 A 
ATOM     49  C   UNL     1       1.991   6.840  19.252  0.00  0.00    -0.031 A 
ATOM     50  H   UNL     1       4.357   7.027  16.849  0.00  0.00    +0.066 HD
ATOM     51  H   UNL     1       1.177   7.415  19.692  0.00  0.00    +0.064 HD
BRANCH  44  52
ATOM     52  C   UNL     1       4.577   2.577  19.372  0.00  0.00    -0.037 C 
ATOM     53  H   UNL     1       5.254   2.317  20.192  0.00  0.00    +0.028 HD
ATOM     54  H   UNL     1       4.193   1.632  18.980  0.00  0.00    +0.028 HD
ATOM     55  H   UNL     1       5.134   3.043  18.552  0.00  0.00    +0.028 HD
ENDBRANCH  44  52
BRANCH  45  56
ATOM     56  C   UNL     1       2.775   1.818  21.633  0.00  0.00    -0.020 C 
ATOM     57  H   UNL     1       2.215   1.838  22.576  0.00  0.00    +0.029 HD
ATOM     58  H   UNL     1       3.820   1.605  21.877  0.00  0.00    +0.029 HD
ATOM     59  H   UNL     1       2.364   1.009  21.023  0.00  0.00    +0.029 HD
ENDBRANCH  45  56
BRANCH  42  60
ATOM     60  O   UNL     1       5.084   4.655  17.629  0.00  0.00    -0.506 OA
ATOM     61  H   UNL     1       5.770   5.281  17.346  0.00  0.00    +0.292 HD
ENDBRANCH  42  60
ENDBRANCH  37  40
ENDBRANCH  34  37
ENDBRANCH   4  34
TORSDOF 8
ENDMDL
MODEL 18
REMARK VINA RESULT:    -7.457      2.718      5.217
REMARK INTER + INTRA:          -8.856
REMARK INTER:                  -9.335
REMARK INTRA:                   0.478
REMARK UNBOUND:                 1.216
REMARK  Name = 
REMARK  8 active torsions:
REMARK  status: ('A' for Active; 'I' for Inactive)
REMARK    1  A    between atoms: C_1  and  C_2
REMARK    2  A    between atoms: C_6  and  N_7
REMARK    3  A    between atoms: N_10  and  C_11
REMARK    4  A    between atoms: C_11  and  C_12
REMARK    5  A    between atoms: C_12  and  C_13
REMARK    6  A    between atoms: C_15  and  O_16
REMARK    7  A    between atoms: C_18  and  C_19
REMARK    8  A    between atoms: C_20  and  C_21
REMARK                            x       y       z     vdW  Elec       q    Type
REMARK                         _______ _______ _______ _____ _____    ______ ____
ROOT
ATOM      1  N   UNL     1       1.994   7.758  19.803  0.00  0.00    -0.327 N 
ATOM      2  C   UNL     1       1.258   6.766  20.621  0.00  0.00    +0.025 C 
ATOM      3  C   UNL     1       2.076   5.461  20.736  0.00  0.00    +0.015 C 
ATOM      4  N   UNL     1       2.294   4.776  19.435  0.00  0.00    -0.299 NA
ATOM      5  C   UNL     1       2.303   5.751  18.318  0.00  0.00    +0.015 C 
ATOM      6  C   UNL     1       2.769   7.179  18.682  0.00  0.00    +0.025 C 
ATOM      7  H   UNL     1       0.274   6.540  20.188  0.00  0.00    +0.048 HD
ATOM      8  H   UNL     1       1.092   7.173  21.627  0.00  0.00    +0.048 HD
ATOM      9  H   UNL     1       3.037   5.710  21.206  0.00  0.00    +0.044 HD
ATOM     10  H   UNL     1       1.550   4.777  21.411  0.00  0.00    +0.044 HD
ATOM     11  H   UNL     1       1.273   5.809  17.946  0.00  0.00    +0.044 HD
ATOM     12  H   UNL     1       2.892   5.380  17.470  0.00  0.00    +0.044 HD
ATOM     13  H   UNL     1       3.820   7.138  18.996  0.00  0.00    +0.048 HD
ATOM     14  H   UNL     1       2.746   7.817  17.789  0.00  0.00    +0.048 HD
ENDROOT
BRANCH   1  19
ATOM     15  C   UNL     1      -0.957  10.940  22.444  0.00  0.00    +0.039 A 
ATOM     16  C   UNL     1      -0.150   9.888  22.850  0.00  0.00    -0.040 A 
ATOM     17  C   UNL     1       0.565   9.192  21.882  0.00  0.00    -0.049 A 
ATOM     18  C   UNL     1       0.472   9.547  20.525  0.00  0.00    +0.021 A 
ATOM     19  C   UNL     1       1.184   8.874  19.490  0.00  0.00    +0.039 A 
ATOM     20  C   UNL     1       1.031   9.314  18.167  0.00  0.00    -0.040 A 
ATOM     21  C   UNL     1       0.205  10.394  17.870  0.00  0.00    -0.058 A 
ATOM     22  C   UNL     1      -0.484  11.040  18.895  0.00  0.00    -0.036 A 
ATOM     23  C   UNL     1      -0.370  10.640  20.217  0.00  0.00    +0.073 A 
ATOM     24  N   UNL     1      -1.067  11.316  21.149  0.00  0.00    -0.252 NA
ATOM     25  H   UNL     1      -0.071   9.613  23.896  0.00  0.00    +0.064 HD
ATOM     26  H   UNL     1       1.207   8.369  22.186  0.00  0.00    +0.063 HD
ATOM     27  H   UNL     1       1.543   8.811  17.353  0.00  0.00    +0.064 HD
ATOM     28  H   UNL     1       0.090  10.730  16.843  0.00  0.00    +0.062 HD
ATOM     29  H   UNL     1      -1.129  11.882  18.657  0.00  0.00    +0.064 HD
BRANCH  15  30
ATOM     30  C   UNL     1      -1.733  11.728  23.455  0.00  0.00    -0.022 C 
ATOM     31  H   UNL     1      -2.415  11.070  24.001  0.00  0.00    +0.029 HD
ATOM     32  H   UNL     1      -2.310  12.517  22.964  0.00  0.00    +0.029 HD
ATOM     33  H   UNL     1      -1.061  12.200  24.179  0.00  0.00    +0.029 HD
ENDBRANCH  15  30
ENDBRANCH   1  19
BRANCH   4  34
ATOM     34  C   UNL     1       3.522   3.956  19.449  0.00  0.00    +0.003 C 
ATOM     35  H   UNL     1       3.538   3.338  20.356  0.00  0.00    +0.043 HD
ATOM     36  H   UNL     1       3.512   3.262  18.599  0.00  0.00    +0.043 HD
BRANCH  34  37
ATOM     37  C   UNL     1       4.832   4.770  19.419  0.00  0.00    -0.015 C 
ATOM     38  H   UNL     1       5.570   4.374  20.127  0.00  0.00    +0.033 HD
ATOM     39  H   UNL     1       4.611   5.785  19.775  0.00  0.00    +0.033 HD
BRANCH  37  40
ATOM     40  C   UNL     1       5.450   4.862  18.043  0.00  0.00    -0.041 A 
ATOM     41  C   UNL     1       6.457   5.779  17.765  0.00  0.00    -0.016 A 
ATOM     42  C   UNL     1       7.027   5.827  16.489  0.00  0.00    +0.127 A 
ATOM     43  C   UNL     1       6.611   4.967  15.434  0.00  0.00    +0.048 A 
ATOM     44  C   UNL     1       7.126   4.937  14.097  0.00  0.00    -0.015 A 
ATOM     45  C   UNL     1       6.594   4.004  13.201  0.00  0.00    +0.064 A 
ATOM     46  N   UNL     1       5.616   3.154  13.567  0.00  0.00    -0.154 NA
ATOM     47  N   UNL     1       5.120   3.182  14.836  0.00  0.00    -0.149 NA
ATOM     48  C   UNL     1       5.589   4.046  15.741  0.00  0.00    +0.097 A 
ATOM     49  C   UNL     1       5.035   4.007  17.016  0.00  0.00    -0.031 A 
ATOM     50  H   UNL     1       6.799   6.446  18.550  0.00  0.00    +0.066 HD
ATOM     51  H   UNL     1       4.252   3.276  17.207  0.00  0.00    +0.064 HD
BRANCH  44  52
ATOM     52  C   UNL     1       8.215   5.882  13.662  0.00  0.00    -0.037 C 
ATOM     53  H   UNL     1       8.716   5.500  12.767  0.00  0.00    +0.028 HD
ATOM     54  H   UNL     1       7.845   6.877  13.405  0.00  0.00    +0.028 HD
ATOM     55  H   UNL     1       8.938   6.025  14.471  0.00  0.00    +0.028 HD
ENDBRANCH  44  52
BRANCH  45  56
ATOM     56  C   UNL     1       7.055   3.867  11.782  0.00  0.00    -0.020 C 
ATOM     57  H   UNL     1       6.787   2.885  11.377  0.00  0.00    +0.029 HD
ATOM     58  H   UNL     1       8.143   3.963  11.721  0.00  0.00    +0.029 HD
ATOM     59  H   UNL     1       6.581   4.624  11.150  0.00  0.00    +0.029 HD
ENDBRANCH  45  56
BRANCH  42  60
ATOM     60  O   UNL     1       8.027   6.742  16.277  0.00  0.00    -0.506 OA
ATOM     61  H   UNL     1       8.211   6.796  15.325  0.00  0.00    +0.292 HD
ENDBRANCH  42  60
ENDBRANCH  37  40
ENDBRANCH  34  37
ENDBRANCH   4  34
TORSDOF 8
ENDMDL
MODEL 19
REMARK VINA RESULT:    -7.293      2.980     11.407
REMARK INTER + INTRA:          -8.635
REMARK INTER:                  -8.451
REMARK INTRA:                  -0.184
REMARK UNBOUND:                 1.216
REMARK  Name = 
REMARK  8 active torsions:
REMARK  status: ('A' for Active; 'I' for Inactive)
REMARK    1  A    between atoms: C_1  and  C_2
REMARK    2  A    between atoms: C_6  and  N_7
REMARK    3  A    between atoms: N_10  and  C_11
REMARK    4  A    between atoms: C_11  and  C_12
REMARK    5  A    between atoms: C_12  and  C_13
REMARK    6  A    between atoms: C_15  and  O_16
REMARK    7  A    between atoms: C_18  and  C_19
REMARK    8  A    between atoms: C_20  and  C_21
REMARK                            x       y       z     vdW  Elec       q    Type
REMARK                         _______ _______ _______ _____ _____    ______ ____
ROOT
ATOM      1  N   UNL     1       3.800   5.925  18.143  0.00  0.00    -0.327 N 
ATOM      2  C   UNL     1       3.497   5.910  19.594  0.00  0.00    +0.025 C 
ATOM      3  C   UNL     1       2.144   6.605  19.861  0.00  0.00    +0.015 C 
ATOM      4  N   UNL     1       2.131   8.046  19.497  0.00  0.00    -0.299 NA
ATOM      5  C   UNL     1       3.086   8.324  18.397  0.00  0.00    +0.015 C 
ATOM      6  C   UNL     1       3.355   7.147  17.433  0.00  0.00    +0.025 C 
ATOM      7  H   UNL     1       4.283   6.413  20.173  0.00  0.00    +0.048 HD
ATOM      8  H   UNL     1       3.440   4.872  19.944  0.00  0.00    +0.048 HD
ATOM      9  H   UNL     1       1.372   6.059  19.301  0.00  0.00    +0.044 HD
ATOM     10  H   UNL     1       1.905   6.508  20.926  0.00  0.00    +0.044 HD
ATOM     11  H   UNL     1       4.034   8.605  18.872  0.00  0.00    +0.044 HD
ATOM     12  H   UNL     1       2.783   9.206  17.820  0.00  0.00    +0.044 HD
ATOM     13  H   UNL     1       2.424   6.900  16.908  0.00  0.00    +0.048 HD
ATOM     14  H   UNL     1       4.066   7.456  16.657  0.00  0.00    +0.048 HD
ENDROOT
BRANCH   1  19
ATOM     15  C   UNL     1       6.299   4.100  14.114  0.00  0.00    +0.039 A 
ATOM     16  C   UNL     1       4.992   4.539  14.260  0.00  0.00    -0.040 A 
ATOM     17  C   UNL     1       4.587   5.005  15.505  0.00  0.00    -0.049 A 
ATOM     18  C   UNL     1       5.482   5.032  16.590  0.00  0.00    +0.021 A 
ATOM     19  C   UNL     1       5.125   5.503  17.887  0.00  0.00    +0.039 A 
ATOM     20  C   UNL     1       6.096   5.500  18.898  0.00  0.00    -0.040 A 
ATOM     21  C   UNL     1       7.388   5.052  18.640  0.00  0.00    -0.058 A 
ATOM     22  C   UNL     1       7.719   4.595  17.365  0.00  0.00    -0.036 A 
ATOM     23  C   UNL     1       6.794   4.574  16.333  0.00  0.00    +0.073 A 
ATOM     24  N   UNL     1       7.191   4.118  15.131  0.00  0.00    -0.252 NA
ATOM     25  H   UNL     1       4.299   4.525  13.426  0.00  0.00    +0.064 HD
ATOM     26  H   UNL     1       3.567   5.358  15.633  0.00  0.00    +0.063 HD
ATOM     27  H   UNL     1       5.853   5.833  19.902  0.00  0.00    +0.064 HD
ATOM     28  H   UNL     1       8.136   5.051  19.427  0.00  0.00    +0.062 HD
ATOM     29  H   UNL     1       8.730   4.244  17.168  0.00  0.00    +0.064 HD
BRANCH  15  30
ATOM     30  C   UNL     1       6.783   3.604  12.786  0.00  0.00    -0.022 C 
ATOM     31  H   UNL     1       6.666   2.519  12.724  0.00  0.00    +0.029 HD
ATOM     32  H   UNL     1       7.837   3.862  12.643  0.00  0.00    +0.029 HD
ATOM     33  H   UNL     1       6.211   4.057  11.969  0.00  0.00    +0.029 HD
ENDBRANCH  15  30
ENDBRANCH   1  19
BRANCH   4  34
ATOM     34  C   UNL     1       0.770   8.512  19.163  0.00  0.00    +0.003 C 
ATOM     35  H   UNL     1       0.335   7.854  18.399  0.00  0.00    +0.043 HD
ATOM     36  H   UNL     1       0.124   8.431  20.047  0.00  0.00    +0.043 HD
BRANCH  34  37
ATOM     37  C   UNL     1       0.704   9.955  18.623  0.00  0.00    -0.015 C 
ATOM     38  H   UNL     1       0.549   9.975  17.538  0.00  0.00    +0.033 HD
ATOM     39  H   UNL     1       1.686  10.422  18.780  0.00  0.00    +0.033 HD
BRANCH  37  40
ATOM     40  C   UNL     1      -0.349  10.802  19.301  0.00  0.00    -0.041 A 
ATOM     41  C   UNL     1      -1.493  11.208  18.622  0.00  0.00    -0.016 A 
ATOM     42  C   UNL     1      -2.462  11.972  19.280  0.00  0.00    +0.127 A 
ATOM     43  C   UNL     1      -2.328  12.368  20.641  0.00  0.00    +0.048 A 
ATOM     44  C   UNL     1      -3.258  13.147  21.404  0.00  0.00    -0.015 A 
ATOM     45  C   UNL     1      -2.953  13.424  22.740  0.00  0.00    +0.064 A 
ATOM     46  N   UNL     1      -1.815  12.983  23.309  0.00  0.00    -0.154 NA
ATOM     47  N   UNL     1      -0.926  12.246  22.586  0.00  0.00    -0.149 NA
ATOM     48  C   UNL     1      -1.161  11.943  21.306  0.00  0.00    +0.097 A 
ATOM     49  C   UNL     1      -0.208  11.180  20.640  0.00  0.00    -0.031 A 
ATOM     50  H   UNL     1      -1.626  10.918  17.585  0.00  0.00    +0.066 HD
ATOM     51  H   UNL     1       0.676  10.871  21.197  0.00  0.00    +0.064 HD
BRANCH  44  52
ATOM     52  C   UNL     1      -4.534  13.657  20.788  0.00  0.00    -0.037 C 
ATOM     53  H   UNL     1      -4.319  14.216  19.872  0.00  0.00    +0.028 HD
ATOM     54  H   UNL     1      -5.226  12.860  20.506  0.00  0.00    +0.028 HD
ATOM     55  H   UNL     1      -5.072  14.290  21.502  0.00  0.00    +0.028 HD
ENDBRANCH  44  52
BRANCH  45  56
ATOM     56  C   UNL     1      -3.847  14.218  23.643  0.00  0.00    -0.020 C 
ATOM     57  H   UNL     1      -3.865  15.274  23.347  0.00  0.00    +0.029 HD
ATOM     58  H   UNL     1      -3.489  14.172  24.676  0.00  0.00    +0.029 HD
ATOM     59  H   UNL     1      -4.874  13.845  23.591  0.00  0.00    +0.029 HD
ENDBRANCH  45  56
BRANCH  42  60
ATOM     60  O   UNL     1      -3.577  12.331  18.565  0.00  0.00    -0.506 OA
ATOM     61  H   UNL     1      -4.241  12.692  19.174  0.00  0.00    +0.292 HD
ENDBRANCH  42  60
ENDBRANCH  37  40
ENDBRANCH  34  37
ENDBRANCH   4  34
TORSDOF 8
ENDMDL
MODEL 20
REMARK VINA RESULT:    -7.257      2.252      3.083
REMARK INTER + INTRA:          -8.586
REMARK INTER:                  -8.732
REMARK INTRA:                   0.146
REMARK UNBOUND:                 1.216
REMARK  Name = 
REMARK  8 active torsions:
REMARK  status: ('A' for Active; 'I' for Inactive)
REMARK    1  A    between atoms: C_1  and  C_2
REMARK    2  A    between atoms: C_6  and  N_7
REMARK    3  A    between atoms: N_10  and  C_11
REMARK    4  A    between atoms: C_11  and  C_12
REMARK    5  A    between atoms: C_12  and  C_13
REMARK    6  A    between atoms: C_15  and  O_16
REMARK    7  A    between atoms: C_18  and  C_19
REMARK    8  A    between atoms: C_20  and  C_21
REMARK                            x       y       z     vdW  Elec       q    Type
REMARK                         _______ _______ _______ _____ _____    ______ ____
ROOT
ATOM      1  N   UNL     1       0.079  11.668  21.555  0.00  0.00    -0.327 N 
ATOM      2  C   UNL     1      -0.936  10.621  21.817  0.00  0.00    +0.025 C 
ATOM      3  C   UNL     1      -0.250   9.247  21.985  0.00  0.00    +0.015 C 
ATOM      4  N   UNL     1       0.455   8.778  20.764  0.00  0.00    -0.299 NA
ATOM      5  C   UNL     1       0.921   9.925  19.948  0.00  0.00    +0.015 C 
ATOM      6  C   UNL     1       1.227  11.222  20.731  0.00  0.00    +0.025 C 
ATOM      7  H   UNL     1      -1.671  10.562  21.002  0.00  0.00    +0.048 HD
ATOM      8  H   UNL     1      -1.481  10.863  22.738  0.00  0.00    +0.048 HD
ATOM      9  H   UNL     1       0.449   9.325  22.828  0.00  0.00    +0.044 HD
ATOM     10  H   UNL     1      -1.011   8.508  22.258  0.00  0.00    +0.044 HD
ATOM     11  H   UNL     1       0.124  10.138  19.226  0.00  0.00    +0.044 HD
ATOM     12  H   UNL     1       1.792   9.653  19.339  0.00  0.00    +0.044 HD
ATOM     13  H   UNL     1       2.065  11.034  21.413  0.00  0.00    +0.048 HD
ATOM     14  H   UNL     1       1.569  12.002  20.040  0.00  0.00    +0.048 HD
ENDROOT
BRANCH   1  19
ATOM     15  C   UNL     1      -3.636  14.598  23.403  0.00  0.00    +0.039 A 
ATOM     16  C   UNL     1      -3.073  13.425  23.879  0.00  0.00    -0.040 A 
ATOM     17  C   UNL     1      -2.041  12.844  23.150  0.00  0.00    -0.049 A 
ATOM     18  C   UNL     1      -1.580  13.435  21.960  0.00  0.00    +0.021 A 
ATOM     19  C   UNL     1      -0.524  12.889  21.174  0.00  0.00    +0.039 A 
ATOM     20  C   UNL     1      -0.130  13.563  20.009  0.00  0.00    -0.040 A 
ATOM     21  C   UNL     1      -0.754  14.748  19.629  0.00  0.00    -0.058 A 
ATOM     22  C   UNL     1      -1.786  15.267  20.410  0.00  0.00    -0.036 A 
ATOM     23  C   UNL     1      -2.214  14.636  21.568  0.00  0.00    +0.073 A 
ATOM     24  N   UNL     1      -3.215  15.201  22.267  0.00  0.00    -0.252 NA
ATOM     25  H   UNL     1      -3.421  12.967  24.798  0.00  0.00    +0.064 HD
ATOM     26  H   UNL     1      -1.584  11.927  23.514  0.00  0.00    +0.063 HD
ATOM     27  H   UNL     1       0.657  13.164  19.376  0.00  0.00    +0.064 HD
ATOM     28  H   UNL     1      -0.446  15.265  18.725  0.00  0.00    +0.062 HD
ATOM     29  H   UNL     1      -2.271  16.192  20.109  0.00  0.00    +0.064 HD
BRANCH  15  30
ATOM     30  C   UNL     1      -4.740  15.267  24.165  0.00  0.00    -0.022 C 
ATOM     31  H   UNL     1      -4.695  16.349  24.020  0.00  0.00    +0.029 HD
ATOM     32  H   UNL     1      -4.658  15.042  25.232  0.00  0.00    +0.029 HD
ATOM     33  H   UNL     1      -5.719  14.916  23.820  0.00  0.00    +0.029 HD
ENDBRANCH  15  30
ENDBRANCH   1  19
BRANCH   4  34
ATOM     34  C   UNL     1       1.564   7.861  21.093  0.00  0.00    +0.003 C 
ATOM     35  H   UNL     1       2.460   8.154  20.531  0.00  0.00    +0.043 HD
ATOM     36  H   UNL     1       1.820   7.956  22.157  0.00  0.00    +0.043 HD
BRANCH  34  37
ATOM     37  C   UNL     1       1.282   6.379  20.775  0.00  0.00    -0.015 C 
ATOM     38  H   UNL     1       0.237   6.219  20.483  0.00  0.00    +0.033 HD
ATOM     39  H   UNL     1       1.411   5.801  21.700  0.00  0.00    +0.033 HD
BRANCH  37  40
ATOM     40  C   UNL     1       2.195   5.808  19.715  0.00  0.00    -0.041 A 
ATOM     41  C   UNL     1       2.322   4.435  19.536  0.00  0.00    -0.016 A 
ATOM     42  C   UNL     1       3.157   3.934  18.532  0.00  0.00    +0.127 A 
ATOM     43  C   UNL     1       3.906   4.783  17.669  0.00  0.00    +0.048 A 
ATOM     44  C   UNL     1       4.787   4.372  16.615  0.00  0.00    -0.015 A 
ATOM     45  C   UNL     1       5.428   5.362  15.862  0.00  0.00    +0.064 A 
ATOM     46  N   UNL     1       5.239   6.671  16.114  0.00  0.00    -0.154 NA
ATOM     47  N   UNL     1       4.406   7.066  17.118  0.00  0.00    -0.149 NA
ATOM     48  C   UNL     1       3.760   6.169  17.870  0.00  0.00    +0.097 A 
ATOM     49  C   UNL     1       2.922   6.652  18.869  0.00  0.00    -0.031 A 
ATOM     50  H   UNL     1       1.760   3.762  20.176  0.00  0.00    +0.066 HD
ATOM     51  H   UNL     1       2.838   7.732  18.984  0.00  0.00    +0.064 HD
BRANCH  44  52
ATOM     52  C   UNL     1       5.020   2.914  16.319  0.00  0.00    -0.037 C 
ATOM     53  H   UNL     1       5.674   2.472  17.077  0.00  0.00    +0.028 HD
ATOM     54  H   UNL     1       4.103   2.321  16.322  0.00  0.00    +0.028 HD
ATOM     55  H   UNL     1       5.457   2.796  15.323  0.00  0.00    +0.028 HD
ENDBRANCH  44  52
BRANCH  45  56
ATOM     56  C   UNL     1       6.362   5.062  14.730  0.00  0.00    -0.020 C 
ATOM     57  H   UNL     1       5.806   4.780  13.828  0.00  0.00    +0.029 HD
ATOM     58  H   UNL     1       7.019   4.225  14.986  0.00  0.00    +0.029 HD
ATOM     59  H   UNL     1       6.963   5.942  14.485  0.00  0.00    +0.029 HD
ENDBRANCH  45  56
BRANCH  42  60
ATOM     60  O   UNL     1       3.231   2.571  18.392  0.00  0.00    -0.506 OA
ATOM     61  H   UNL     1       2.333   2.204  18.387  0.00  0.00    +0.292 HD
ENDBRANCH  42  60
ENDBRANCH  37  40
ENDBRANCH  34  37
ENDBRANCH   4  34
TORSDOF 8
ENDMDL
MODEL 21
REMARK VINA RESULT:    -7.226      2.175      2.993
REMARK INTER + INTRA:          -8.545
REMARK INTER:                  -8.924
REMARK INTRA:                   0.379
REMARK UNBOUND:                 1.216
REMARK  Name = 
REMARK  8 active torsions:
REMARK  status: ('A' for Active; 'I' for Inactive)
REMARK    1  A    between atoms: C_1  and  C_2
REMARK    2  A    between atoms: C_6  and  N_7
REMARK    3  A    between atoms: N_10  and  C_11
REMARK    4  A    between atoms: C_11  and  C_12
REMARK    5  A    between atoms: C_12  and  C_13
REMARK    6  A    between atoms: C_15  and  O_16
REMARK    7  A    between atoms: C_18  and  C_19
REMARK    8  A    between atoms: C_20  and  C_21
REMARK                            x       y       z     vdW  Elec       q    Type
REMARK                         _______ _______ _______ _____ _____    ______ ____
ROOT
ATOM      1  N   UNL     1      -1.299  10.936  18.886  0.00  0.00    -0.327 N 
ATOM      2  C   UNL     1      -0.339  11.921  19.438  0.00  0.00    +0.025 C 
ATOM      3  C   UNL     1       0.972  11.213  19.846  0.00  0.00    +0.015 C 
ATOM      4  N   UNL     1       0.799  10.217  20.935  0.00  0.00    -0.299 NA
ATOM      5  C   UNL     1      -0.568   9.642  20.916  0.00  0.00    +0.015 C 
ATOM      6  C   UNL     1      -1.257   9.604  19.534  0.00  0.00    +0.025 C 
ATOM      7  H   UNL     1      -0.756  12.442  20.311  0.00  0.00    +0.048 HD
ATOM      8  H   UNL     1      -0.113  12.677  18.677  0.00  0.00    +0.048 HD
ATOM      9  H   UNL     1       1.386  10.734  18.948  0.00  0.00    +0.044 HD
ATOM     10  H   UNL     1       1.692  11.971  20.173  0.00  0.00    +0.044 HD
ATOM     11  H   UNL     1      -1.176  10.262  21.587  0.00  0.00    +0.044 HD
ATOM     12  H   UNL     1      -0.585   8.640  21.360  0.00  0.00    +0.044 HD
ATOM     13  H   UNL     1      -0.688   8.937  18.874  0.00  0.00    +0.048 HD
ATOM     14  H   UNL     1      -2.254   9.158  19.627  0.00  0.00    +0.048 HD
ENDROOT
BRANCH   1  19
ATOM     15  C   UNL     1      -4.419  13.751  21.739  0.00  0.00    +0.039 A 
ATOM     16  C   UNL     1      -3.141  13.273  21.979  0.00  0.00    -0.040 A 
ATOM     17  C   UNL     1      -2.518  12.525  20.986  0.00  0.00    -0.049 A 
ATOM     18  C   UNL     1      -3.171  12.261  19.768  0.00  0.00    +0.021 A 
ATOM     19  C   UNL     1      -2.581  11.505  18.713  0.00  0.00    +0.039 A 
ATOM     20  C   UNL     1      -3.312  11.309  17.532  0.00  0.00    -0.040 A 
ATOM     21  C   UNL     1      -4.587  11.849  17.389  0.00  0.00    -0.058 A 
ATOM     22  C   UNL     1      -5.147  12.586  18.432  0.00  0.00    -0.036 A 
ATOM     23  C   UNL     1      -4.467  12.803  19.619  0.00  0.00    +0.073 A 
ATOM     24  N   UNL     1      -5.076  13.525  20.578  0.00  0.00    -0.252 NA
ATOM     25  H   UNL     1      -2.631  13.477  22.914  0.00  0.00    +0.064 HD
ATOM     26  H   UNL     1      -1.513  12.148  21.157  0.00  0.00    +0.063 HD
ATOM     27  H   UNL     1      -2.901  10.722  16.717  0.00  0.00    +0.064 HD
ATOM     28  H   UNL     1      -5.148  11.693  16.472  0.00  0.00    +0.062 HD
ATOM     29  H   UNL     1      -6.144  13.004  18.315  0.00  0.00    +0.064 HD
BRANCH  15  30
ATOM     30  C   UNL     1      -5.122  14.575  22.775  0.00  0.00    -0.022 C 
ATOM     31  H   UNL     1      -5.204  14.014  23.709  0.00  0.00    +0.029 HD
ATOM     32  H   UNL     1      -6.123  14.850  22.430  0.00  0.00    +0.029 HD
ATOM     33  H   UNL     1      -4.568  15.498  22.979  0.00  0.00    +0.029 HD
ENDBRANCH  15  30
ENDBRANCH   1  19
BRANCH   4  34
ATOM     34  C   UNL     1       1.831   9.162  20.879  0.00  0.00    +0.003 C 
ATOM     35  H   UNL     1       2.331   9.192  19.903  0.00  0.00    +0.043 HD
ATOM     36  H   UNL     1       2.605   9.361  21.632  0.00  0.00    +0.043 HD
BRANCH  34  37
ATOM     37  C   UNL     1       1.292   7.731  21.080  0.00  0.00    -0.015 C 
ATOM     38  H   UNL     1       0.209   7.679  20.914  0.00  0.00    +0.033 HD
ATOM     39  H   UNL     1       1.432   7.459  22.135  0.00  0.00    +0.033 HD
BRANCH  37  40
ATOM     40  C   UNL     1       1.986   6.702  20.218  0.00  0.00    -0.041 A 
ATOM     41  C   UNL     1       1.811   5.341  20.439  0.00  0.00    -0.016 A 
ATOM     42  C   UNL     1       2.447   4.410  19.611  0.00  0.00    +0.127 A 
ATOM     43  C   UNL     1       3.290   4.799  18.532  0.00  0.00    +0.048 A 
ATOM     44  C   UNL     1       3.986   3.929  17.630  0.00  0.00    -0.015 A 
ATOM     45  C   UNL     1       4.761   4.504  16.618  0.00  0.00    +0.064 A 
ATOM     46  N   UNL     1       4.867   5.840  16.486  0.00  0.00    -0.154 NA
ATOM     47  N   UNL     1       4.211   6.671  17.344  0.00  0.00    -0.149 NA
ATOM     48  C   UNL     1       3.450   6.183  18.328  0.00  0.00    +0.097 A 
ATOM     49  C   UNL     1       2.807   7.097  19.157  0.00  0.00    -0.031 A 
ATOM     50  H   UNL     1       1.170   5.012  21.251  0.00  0.00    +0.066 HD
ATOM     51  H   UNL     1       2.958   8.157  18.958  0.00  0.00    +0.064 HD
BRANCH  44  52
ATOM     52  C   UNL     1       3.888   2.432  17.763  0.00  0.00    -0.037 C 
ATOM     53  H   UNL     1       3.482   1.994  16.846  0.00  0.00    +0.028 HD
ATOM     54  H   UNL     1       4.854   1.950  17.932  0.00  0.00    +0.028 HD
ATOM     55  H   UNL     1       3.261   2.168  18.620  0.00  0.00    +0.028 HD
ENDBRANCH  44  52
BRANCH  45  56
ATOM     56  C   UNL     1       5.526   3.704  15.609  0.00  0.00    -0.020 C 
ATOM     57  H   UNL     1       5.806   4.323  14.749  0.00  0.00    +0.029 HD
ATOM     58  H   UNL     1       4.918   2.875  15.235  0.00  0.00    +0.029 HD
ATOM     59  H   UNL     1       6.450   3.315  16.049  0.00  0.00    +0.029 HD
ENDBRANCH  45  56
BRANCH  42  60
ATOM     60  O   UNL     1       2.226   3.080  19.867  0.00  0.00    -0.506 OA
ATOM     61  H   UNL     1       2.425   2.566  19.068  0.00  0.00    +0.292 HD
ENDBRANCH  42  60
ENDBRANCH  37  40
ENDBRANCH  34  37
ENDBRANCH   4  34
TORSDOF 8
ENDMDL
MODEL 22
REMARK VINA RESULT:    -7.193      2.735     10.677
REMARK INTER + INTRA:          -8.500
REMARK INTER:                  -9.281
REMARK INTRA:                   0.781
REMARK UNBOUND:                 1.216
REMARK  Name = 
REMARK  8 active torsions:
REMARK  status: ('A' for Active; 'I' for Inactive)
REMARK    1  A    between atoms: C_1  and  C_2
REMARK    2  A    between atoms: C_6  and  N_7
REMARK    3  A    between atoms: N_10  and  C_11
REMARK    4  A    between atoms: C_11  and  C_12
REMARK    5  A    between atoms: C_12  and  C_13
REMARK    6  A    between atoms: C_15  and  O_16
REMARK    7  A    between atoms: C_18  and  C_19
REMARK    8  A    between atoms: C_20  and  C_21
REMARK                            x       y       z     vdW  Elec       q    Type
REMARK                         _______ _______ _______ _____ _____    ______ ____
ROOT
ATOM      1  N   UNL     1       2.528   7.814  19.220  0.00  0.00    -0.327 N 
ATOM      2  C   UNL     1       2.505   8.298  17.819  0.00  0.00    +0.025 C 
ATOM      3  C   UNL     1       2.204   9.812  17.786  0.00  0.00    +0.015 C 
ATOM      4  N   UNL     1       0.863  10.167  18.320  0.00  0.00    -0.299 NA
ATOM      5  C   UNL     1       0.419   9.182  19.336  0.00  0.00    +0.015 C 
ATOM      6  C   UNL     1       1.548   8.472  20.116  0.00  0.00    +0.025 C 
ATOM      7  H   UNL     1       1.750   7.765  17.224  0.00  0.00    +0.048 HD
ATOM      8  H   UNL     1       3.482   8.118  17.355  0.00  0.00    +0.048 HD
ATOM      9  H   UNL     1       2.993  10.321  18.356  0.00  0.00    +0.044 HD
ATOM     10  H   UNL     1       2.273  10.160  16.750  0.00  0.00    +0.044 HD
ATOM     11  H   UNL     1      -0.160   8.420  18.798  0.00  0.00    +0.044 HD
ATOM     12  H   UNL     1      -0.288   9.630  20.044  0.00  0.00    +0.044 HD
ATOM     13  H   UNL     1       2.095   9.219  20.705  0.00  0.00    +0.048 HD
ATOM     14  H   UNL     1       1.117   7.773  20.842  0.00  0.00    +0.048 HD
ENDROOT
BRANCH   1  19
ATOM     15  C   UNL     1       4.933   4.165  16.629  0.00  0.00    +0.039 A 
ATOM     16  C   UNL     1       4.986   5.547  16.529  0.00  0.00    -0.040 A 
ATOM     17  C   UNL     1       4.209   6.303  17.400  0.00  0.00    -0.049 A 
ATOM     18  C   UNL     1       3.389   5.680  18.358  0.00  0.00    +0.021 A 
ATOM     19  C   UNL     1       2.575   6.402  19.278  0.00  0.00    +0.039 A 
ATOM     20  C   UNL     1       1.802   5.685  20.204  0.00  0.00    -0.040 A 
ATOM     21  C   UNL     1       1.834   4.294  20.229  0.00  0.00    -0.058 A 
ATOM     22  C   UNL     1       2.637   3.605  19.321  0.00  0.00    -0.036 A 
ATOM     23  C   UNL     1       3.415   4.267  18.384  0.00  0.00    +0.073 A 
ATOM     24  N   UNL     1       4.163   3.530  17.543  0.00  0.00    -0.252 NA
ATOM     25  H   UNL     1       5.620   6.033  15.796  0.00  0.00    +0.064 HD
ATOM     26  H   UNL     1       4.245   7.387  17.338  0.00  0.00    +0.063 HD
ATOM     27  H   UNL     1       1.156   6.203  20.906  0.00  0.00    +0.064 HD
ATOM     28  H   UNL     1       1.233   3.744  20.947  0.00  0.00    +0.062 HD
ATOM     29  H   UNL     1       2.657   2.518  19.343  0.00  0.00    +0.064 HD
BRANCH  15  30
ATOM     30  C   UNL     1       5.765   3.312  15.722  0.00  0.00    -0.022 C 
ATOM     31  H   UNL     1       6.028   3.868  14.819  0.00  0.00    +0.029 HD
ATOM     32  H   UNL     1       5.219   2.406  15.441  0.00  0.00    +0.029 HD
ATOM     33  H   UNL     1       6.693   3.007  16.218  0.00  0.00    +0.029 HD
ENDBRANCH  15  30
ENDBRANCH   1  19
BRANCH   4  34
ATOM     34  C   UNL     1       0.835  11.544  18.853  0.00  0.00    +0.003 C 
ATOM     35  H   UNL     1       1.579  12.155  18.326  0.00  0.00    +0.043 HD
ATOM     36  H   UNL     1      -0.143  11.999  18.650  0.00  0.00    +0.043 HD
BRANCH  34  37
ATOM     37  C   UNL     1       1.134  11.650  20.363  0.00  0.00    -0.015 C 
ATOM     38  H   UNL     1       1.936  12.370  20.567  0.00  0.00    +0.033 HD
ATOM     39  H   UNL     1       1.528  10.682  20.701  0.00  0.00    +0.033 HD
BRANCH  37  40
ATOM     40  C   UNL     1      -0.080  11.996  21.193  0.00  0.00    -0.041 A 
ATOM     41  C   UNL     1      -0.605  11.095  22.112  0.00  0.00    -0.016 A 
ATOM     42  C   UNL     1      -1.716  11.450  22.884  0.00  0.00    +0.127 A 
ATOM     43  C   UNL     1      -2.355  12.716  22.765  0.00  0.00    +0.048 A 
ATOM     44  C   UNL     1      -3.494  13.176  23.504  0.00  0.00    -0.015 A 
ATOM     45  C   UNL     1      -3.972  14.466  23.253  0.00  0.00    +0.064 A 
ATOM     46  N   UNL     1      -3.391  15.267  22.339  0.00  0.00    -0.154 NA
ATOM     47  N   UNL     1      -2.311  14.832  21.631  0.00  0.00    -0.149 NA
ATOM     48  C   UNL     1      -1.804  13.612  21.827  0.00  0.00    +0.097 A 
ATOM     49  C   UNL     1      -0.696  13.246  21.070  0.00  0.00    -0.031 A 
ATOM     50  H   UNL     1      -0.138  10.122  22.229  0.00  0.00    +0.066 HD
ATOM     51  H   UNL     1      -0.303  13.973  20.361  0.00  0.00    +0.064 HD
BRANCH  44  52
ATOM     52  C   UNL     1      -4.164  12.296  24.527  0.00  0.00    -0.037 C 
ATOM     53  H   UNL     1      -5.244  12.267  24.354  0.00  0.00    +0.028 HD
ATOM     54  H   UNL     1      -3.820  11.261  24.497  0.00  0.00    +0.028 HD
ATOM     55  H   UNL     1      -3.950  12.661  25.537  0.00  0.00    +0.028 HD
ENDBRANCH  44  52
BRANCH  45  56
ATOM     56  C   UNL     1      -5.146  15.064  23.966  0.00  0.00    -0.020 C 
ATOM     57  H   UNL     1      -5.580  15.886  23.384  0.00  0.00    +0.029 HD
ATOM     58  H   UNL     1      -4.841  15.472  24.934  0.00  0.00    +0.029 HD
ATOM     59  H   UNL     1      -5.929  14.314  24.110  0.00  0.00    +0.029 HD
ENDBRANCH  45  56
BRANCH  42  60
ATOM     60  O   UNL     1      -2.182  10.526  23.785  0.00  0.00    -0.506 OA
ATOM     61  H   UNL     1      -1.439  10.206  24.323  0.00  0.00    +0.292 HD
ENDBRANCH  42  60
ENDBRANCH  37  40
ENDBRANCH  34  37
ENDBRANCH   4  34
TORSDOF 8
ENDMDL
MODEL 23
REMARK VINA RESULT:    -7.175      3.976      9.804
REMARK INTER + INTRA:          -8.475
REMARK INTER:                  -8.610
REMARK INTRA:                   0.135
REMARK UNBOUND:                 1.216
REMARK  Name = 
REMARK  8 active torsions:
REMARK  status: ('A' for Active; 'I' for Inactive)
REMARK    1  A    between atoms: C_1  and  C_2
REMARK    2  A    between atoms: C_6  and  N_7
REMARK    3  A    between atoms: N_10  and  C_11
REMARK    4  A    between atoms: C_11  and  C_12
REMARK    5  A    between atoms: C_12  and  C_13
REMARK    6  A    between atoms: C_15  and  O_16
REMARK    7  A    between atoms: C_18  and  C_19
REMARK    8  A    between atoms: C_20  and  C_21
REMARK                            x       y       z     vdW  Elec       q    Type
REMARK                         _______ _______ _______ _____ _____    ______ ____
ROOT
ATOM      1  N   UNL     1       1.762   7.832  18.555  0.00  0.00    -0.327 N 
ATOM      2  C   UNL     1       1.940   8.152  19.991  0.00  0.00    +0.025 C 
ATOM      3  C   UNL     1       0.879   9.180  20.442  0.00  0.00    +0.015 C 
ATOM      4  N   UNL     1       0.992  10.494  19.756  0.00  0.00    -0.299 NA
ATOM      5  C   UNL     1       1.578  10.337  18.403  0.00  0.00    +0.015 C 
ATOM      6  C   UNL     1       1.325   8.974  17.719  0.00  0.00    +0.025 C 
ATOM      7  H   UNL     1       2.942   8.554  20.191  0.00  0.00    +0.048 HD
ATOM      8  H   UNL     1       1.825   7.237  20.586  0.00  0.00    +0.048 HD
ATOM      9  H   UNL     1      -0.111   8.737  20.266  0.00  0.00    +0.044 HD
ATOM     10  H   UNL     1       0.980   9.337  21.521  0.00  0.00    +0.044 HD
ATOM     11  H   UNL     1       2.661  10.470  18.515  0.00  0.00    +0.044 HD
ATOM     12  H   UNL     1       1.259  11.145  17.734  0.00  0.00    +0.044 HD
ATOM     13  H   UNL     1       0.247   8.860  17.547  0.00  0.00    +0.048 HD
ATOM     14  H   UNL     1       1.792   8.963  16.727  0.00  0.00    +0.048 HD
ENDROOT
BRANCH   1  19
ATOM     15  C   UNL     1       2.969   2.899  18.434  0.00  0.00    +0.039 A 
ATOM     16  C   UNL     1       1.845   3.555  18.909  0.00  0.00    -0.040 A 
ATOM     17  C   UNL     1       1.789   4.940  18.793  0.00  0.00    -0.049 A 
ATOM     18  C   UNL     1       2.848   5.656  18.206  0.00  0.00    +0.021 A 
ATOM     19  C   UNL     1       2.845   7.073  18.056  0.00  0.00    +0.039 A 
ATOM     20  C   UNL     1       3.946   7.690  17.445  0.00  0.00    -0.040 A 
ATOM     21  C   UNL     1       5.021   6.933  16.987  0.00  0.00    -0.058 A 
ATOM     22  C   UNL     1       5.006   5.548  17.143  0.00  0.00    -0.036 A 
ATOM     23  C   UNL     1       3.943   4.892  17.743  0.00  0.00    +0.073 A 
ATOM     24  N   UNL     1       4.004   3.552  17.856  0.00  0.00    -0.252 NA
ATOM     25  H   UNL     1       1.023   3.009  19.358  0.00  0.00    +0.064 HD
ATOM     26  H   UNL     1       0.911   5.468  19.155  0.00  0.00    +0.063 HD
ATOM     27  H   UNL     1       3.986   8.770  17.333  0.00  0.00    +0.064 HD
ATOM     28  H   UNL     1       5.871   7.417  16.516  0.00  0.00    +0.062 HD
ATOM     29  H   UNL     1       5.848   4.961  16.785  0.00  0.00    +0.064 HD
BRANCH  15  30
ATOM     30  C   UNL     1       3.065   1.407  18.524  0.00  0.00    -0.022 C 
ATOM     31  H   UNL     1       2.370   0.942  17.819  0.00  0.00    +0.029 HD
ATOM     32  H   UNL     1       2.829   1.069  19.537  0.00  0.00    +0.029 HD
ATOM     33  H   UNL     1       4.077   1.066  18.280  0.00  0.00    +0.029 HD
ENDBRANCH  15  30
ENDBRANCH   1  19
BRANCH   4  34
ATOM     34  C   UNL     1      -0.306  11.196  19.705  0.00  0.00    +0.003 C 
ATOM     35  H   UNL     1      -0.937  10.743  18.929  0.00  0.00    +0.043 HD
ATOM     36  H   UNL     1      -0.838  11.059  20.656  0.00  0.00    +0.043 HD
BRANCH  34  37
ATOM     37  C   UNL     1      -0.204  12.704  19.398  0.00  0.00    -0.015 C 
ATOM     38  H   UNL     1      -0.843  13.297  20.064  0.00  0.00    +0.033 HD
ATOM     39  H   UNL     1      -0.606  12.875  18.391  0.00  0.00    +0.033 HD
BRANCH  37  40
ATOM     40  C   UNL     1       1.211  13.233  19.451  0.00  0.00    -0.041 A 
ATOM     41  C   UNL     1       1.856  13.679  18.304  0.00  0.00    -0.016 A 
ATOM     42  C   UNL     1       3.157  14.186  18.386  0.00  0.00    +0.127 A 
ATOM     43  C   UNL     1       3.872  14.261  19.615  0.00  0.00    +0.048 A 
ATOM     44  C   UNL     1       5.202  14.759  19.805  0.00  0.00    -0.015 A 
ATOM     45  C   UNL     1       5.730  14.764  21.100  0.00  0.00    +0.064 A 
ATOM     46  N   UNL     1       5.022  14.308  22.152  0.00  0.00    -0.154 NA
ATOM     47  N   UNL     1       3.759  13.829  21.974  0.00  0.00    -0.149 NA
ATOM     48  C   UNL     1       3.195  13.803  20.763  0.00  0.00    +0.097 A 
ATOM     49  C   UNL     1       1.900  13.306  20.666  0.00  0.00    -0.031 A 
ATOM     50  H   UNL     1       1.336  13.639  17.352  0.00  0.00    +0.066 HD
ATOM     51  H   UNL     1       1.416  12.968  21.582  0.00  0.00    +0.064 HD
BRANCH  44  52
ATOM     52  C   UNL     1       6.016  15.267  18.644  0.00  0.00    -0.037 C 
ATOM     53  H   UNL     1       7.060  14.954  18.745  0.00  0.00    +0.028 HD
ATOM     54  H   UNL     1       5.674  14.888  17.679  0.00  0.00    +0.028 HD
ATOM     55  H   UNL     1       5.950  16.358  18.585  0.00  0.00    +0.028 HD
ENDBRANCH  44  52
BRANCH  45  56
ATOM     56  C   UNL     1       7.102  15.267  21.430  0.00  0.00    -0.020 C 
ATOM     57  H   UNL     1       7.423  14.911  22.416  0.00  0.00    +0.029 HD
ATOM     58  H   UNL     1       7.114  16.361  21.455  0.00  0.00    +0.029 HD
ATOM     59  H   UNL     1       7.830  14.906  20.697  0.00  0.00    +0.029 HD
ENDBRANCH  45  56
BRANCH  42  60
ATOM     60  O   UNL     1       3.739  14.626  17.224  0.00  0.00    -0.506 OA
ATOM     61  H   UNL     1       3.108  15.188  16.746  0.00  0.00    +0.292 HD
ENDBRANCH  42  60
ENDBRANCH  37  40
ENDBRANCH  34  37
ENDBRANCH   4  34
TORSDOF 8
ENDMDL
MODEL 24
REMARK VINA RESULT:    -7.096      1.877      3.095
REMARK INTER + INTRA:          -8.368
REMARK INTER:                  -8.397
REMARK INTRA:                   0.029
REMARK UNBOUND:                 1.216
REMARK  Name = 
REMARK  8 active torsions:
REMARK  status: ('A' for Active; 'I' for Inactive)
REMARK    1  A    between atoms: C_1  and  C_2
REMARK    2  A    between atoms: C_6  and  N_7
REMARK    3  A    between atoms: N_10  and  C_11
REMARK    4  A    between atoms: C_11  and  C_12
REMARK    5  A    between atoms: C_12  and  C_13
REMARK    6  A    between atoms: C_15  and  O_16
REMARK    7  A    between atoms: C_18  and  C_19
REMARK    8  A    between atoms: C_20  and  C_21
REMARK                            x       y       z     vdW  Elec       q    Type
REMARK                         _______ _______ _______ _____ _____    ______ ____
ROOT
ATOM      1  N   UNL     1      -0.596  11.254  21.266  0.00  0.00    -0.327 N 
ATOM      2  C   UNL     1       0.338  11.040  20.135  0.00  0.00    +0.025 C 
ATOM      3  C   UNL     1       0.467   9.531  19.833  0.00  0.00    +0.015 C 
ATOM      4  N   UNL     1       1.056   8.746  20.950  0.00  0.00    -0.299 NA
ATOM      5  C   UNL     1       0.762   9.382  22.257  0.00  0.00    +0.015 C 
ATOM      6  C   UNL     1      -0.540  10.212  22.318  0.00  0.00    +0.025 C 
ATOM      7  H   UNL     1       1.332  11.453  20.353  0.00  0.00    +0.048 HD
ATOM      8  H   UNL     1      -0.046  11.550  19.243  0.00  0.00    +0.048 HD
ATOM      9  H   UNL     1      -0.533   9.154  19.582  0.00  0.00    +0.044 HD
ATOM     10  H   UNL     1       1.096   9.405  18.945  0.00  0.00    +0.044 HD
ATOM     11  H   UNL     1       1.606  10.048  22.476  0.00  0.00    +0.044 HD
ATOM     12  H   UNL     1       0.762   8.644  23.068  0.00  0.00    +0.044 HD
ATOM     13  H   UNL     1      -1.394   9.542  22.160  0.00  0.00    +0.048 HD
ATOM     14  H   UNL     1      -0.668  10.632  23.323  0.00  0.00    +0.048 HD
ENDROOT
BRANCH   1  19
ATOM     15  C   UNL     1      -3.963  14.457  23.318  0.00  0.00    +0.039 A 
ATOM     16  C   UNL     1      -4.073  13.126  22.949  0.00  0.00    -0.040 A 
ATOM     17  C   UNL     1      -2.956  12.494  22.414  0.00  0.00    -0.049 A 
ATOM     18  C   UNL     1      -1.744  13.190  22.253  0.00  0.00    +0.021 A 
ATOM     19  C   UNL     1      -0.566  12.594  21.715  0.00  0.00    +0.039 A 
ATOM     20  C   UNL     1       0.596  13.373  21.607  0.00  0.00    -0.040 A 
ATOM     21  C   UNL     1       0.602  14.700  22.024  0.00  0.00    -0.058 A 
ATOM     22  C   UNL     1      -0.560  15.266  22.547  0.00  0.00    -0.036 A 
ATOM     23  C   UNL     1      -1.734  14.540  22.670  0.00  0.00    +0.073 A 
ATOM     24  N   UNL     1      -2.813  15.158  23.186  0.00  0.00    -0.252 NA
ATOM     25  H   UNL     1      -5.003  12.583  23.075  0.00  0.00    +0.064 HD
ATOM     26  H   UNL     1      -3.024  11.448  22.126  0.00  0.00    +0.063 HD
ATOM     27  H   UNL     1       1.505  12.956  21.184  0.00  0.00    +0.064 HD
ATOM     28  H   UNL     1       1.505  15.298  21.937  0.00  0.00    +0.062 HD
ATOM     29  H   UNL     1      -0.550  16.304  22.870  0.00  0.00    +0.064 HD
BRANCH  15  30
ATOM     30  C   UNL     1      -5.137  15.173  23.913  0.00  0.00    -0.022 C 
ATOM     31  H   UNL     1      -5.419  14.709  24.862  0.00  0.00    +0.029 HD
ATOM     32  H   UNL     1      -5.990  15.143  23.229  0.00  0.00    +0.029 HD
ATOM     33  H   UNL     1      -4.895  16.224  24.106  0.00  0.00    +0.029 HD
ENDBRANCH  15  30
ENDBRANCH   1  19
BRANCH   4  34
ATOM     34  C   UNL     1       0.612   7.338  20.920  0.00  0.00    +0.003 C 
ATOM     35  H   UNL     1      -0.082   7.156  21.751  0.00  0.00    +0.043 HD
ATOM     36  H   UNL     1       0.050   7.147  19.997  0.00  0.00    +0.043 HD
BRANCH  34  37
ATOM     37  C   UNL     1       1.754   6.308  21.036  0.00  0.00    -0.015 C 
ATOM     38  H   UNL     1       1.384   5.329  21.366  0.00  0.00    +0.033 HD
ATOM     39  H   UNL     1       2.432   6.639  21.834  0.00  0.00    +0.033 HD
BRANCH  37  40
ATOM     40  C   UNL     1       2.548   6.145  19.761  0.00  0.00    -0.041 A 
ATOM     41  C   UNL     1       2.765   7.219  18.905  0.00  0.00    -0.016 A 
ATOM     42  C   UNL     1       3.523   7.046  17.743  0.00  0.00    +0.127 A 
ATOM     43  C   UNL     1       4.091   5.791  17.382  0.00  0.00    +0.048 A 
ATOM     44  C   UNL     1       4.878   5.509  16.218  0.00  0.00    -0.015 A 
ATOM     45  C   UNL     1       5.361   4.209  16.043  0.00  0.00    +0.064 A 
ATOM     46  N   UNL     1       5.096   3.232  16.932  0.00  0.00    -0.154 NA
ATOM     47  N   UNL     1       4.343   3.495  18.037  0.00  0.00    -0.149 NA
ATOM     48  C   UNL     1       3.857   4.719  18.265  0.00  0.00    +0.097 A 
ATOM     49  C   UNL     1       3.105   4.908  19.420  0.00  0.00    -0.031 A 
ATOM     50  H   UNL     1       2.349   8.190  19.156  0.00  0.00    +0.066 HD
ATOM     51  H   UNL     1       2.954   4.051  20.074  0.00  0.00    +0.064 HD
BRANCH  44  52
ATOM     52  C   UNL     1       5.183   6.582  15.206  0.00  0.00    -0.037 C 
ATOM     53  H   UNL     1       6.264   6.732  15.124  0.00  0.00    +0.028 HD
ATOM     54  H   UNL     1       4.829   6.341  14.201  0.00  0.00    +0.028 HD
ATOM     55  H   UNL     1       4.690   7.518  15.487  0.00  0.00    +0.028 HD
ENDBRANCH  44  52
BRANCH  45  56
ATOM     56  C   UNL     1       6.203   3.791  14.875  0.00  0.00    -0.020 C 
ATOM     57  H   UNL     1       7.172   4.302  14.889  0.00  0.00    +0.029 HD
ATOM     58  H   UNL     1       5.708   4.049  13.934  0.00  0.00    +0.029 HD
ATOM     59  H   UNL     1       6.397   2.715  14.908  0.00  0.00    +0.029 HD
ENDBRANCH  45  56
BRANCH  42  60
ATOM     60  O   UNL     1       3.718   8.145  16.945  0.00  0.00    -0.506 OA
ATOM     61  H   UNL     1       4.026   8.885  17.493  0.00  0.00    +0.292 HD
ENDBRANCH  42  60
ENDBRANCH  37  40
ENDBRANCH  34  37
ENDBRANCH   4  34
TORSDOF 8
ENDMDL
MODEL 25
REMARK VINA RESULT:    -7.089      3.236     10.729
REMARK INTER + INTRA:          -8.360
REMARK INTER:                  -8.501
REMARK INTRA:                   0.142
REMARK UNBOUND:                 1.216
REMARK  Name = 
REMARK  8 active torsions:
REMARK  status: ('A' for Active; 'I' for Inactive)
REMARK    1  A    between atoms: C_1  and  C_2
REMARK    2  A    between atoms: C_6  and  N_7
REMARK    3  A    between atoms: N_10  and  C_11
REMARK    4  A    between atoms: C_11  and  C_12
REMARK    5  A    between atoms: C_12  and  C_13
REMARK    6  A    between atoms: C_15  and  O_16
REMARK    7  A    between atoms: C_18  and  C_19
REMARK    8  A    between atoms: C_20  and  C_21
REMARK                            x       y       z     vdW  Elec       q    Type
REMARK                         _______ _______ _______ _____ _____    ______ ____
ROOT
ATOM      1  N   UNL     1       3.521   5.800  19.098  0.00  0.00    -0.327 N 
ATOM      2  C   UNL     1       2.770   6.808  18.313  0.00  0.00    +0.025 C 
ATOM      3  C   UNL     1       2.263   7.933  19.241  0.00  0.00    +0.015 C 
ATOM      4  N   UNL     1       1.294   7.470  20.267  0.00  0.00    -0.299 NA
ATOM      5  C   UNL     1       1.534   6.050  20.620  0.00  0.00    +0.015 C 
ATOM      6  C   UNL     1       2.990   5.559  20.460  0.00  0.00    +0.025 C 
ATOM      7  H   UNL     1       1.916   6.355  17.792  0.00  0.00    +0.048 HD
ATOM      8  H   UNL     1       3.430   7.243  17.552  0.00  0.00    +0.048 HD
ATOM      9  H   UNL     1       3.140   8.392  19.718  0.00  0.00    +0.044 HD
ATOM     10  H   UNL     1       1.784   8.704  18.627  0.00  0.00    +0.044 HD
ATOM     11  H   UNL     1       0.894   5.452  19.959  0.00  0.00    +0.044 HD
ATOM     12  H   UNL     1       1.183   5.826  21.635  0.00  0.00    +0.044 HD
ATOM     13  H   UNL     1       3.628   6.109  21.162  0.00  0.00    +0.048 HD
ATOM     14  H   UNL     1       3.061   4.503  20.751  0.00  0.00    +0.048 HD
ENDROOT
BRANCH   1  19
ATOM     15  C   UNL     1       6.334   4.804  14.987  0.00  0.00    +0.039 A 
ATOM     16  C   UNL     1       6.153   5.971  15.712  0.00  0.00    -0.040 A 
ATOM     17  C   UNL     1       5.315   5.937  16.821  0.00  0.00    -0.049 A 
ATOM     18  C   UNL     1       4.669   4.746  17.198  0.00  0.00    +0.021 A 
ATOM     19  C   UNL     1       3.804   4.649  18.327  0.00  0.00    +0.039 A 
ATOM     20  C   UNL     1       3.218   3.411  18.624  0.00  0.00    -0.040 A 
ATOM     21  C   UNL     1       3.480   2.293  17.837  0.00  0.00    -0.058 A 
ATOM     22  C   UNL     1       4.329   2.407  16.737  0.00  0.00    -0.036 A 
ATOM     23  C   UNL     1       4.930   3.610  16.399  0.00  0.00    +0.073 A 
ATOM     24  N   UNL     1       5.736   3.638  15.322  0.00  0.00    -0.252 NA
ATOM     25  H   UNL     1       6.652   6.891  15.429  0.00  0.00    +0.064 HD
ATOM     26  H   UNL     1       5.169   6.843  17.404  0.00  0.00    +0.063 HD
ATOM     27  H   UNL     1       2.538   3.307  19.465  0.00  0.00    +0.064 HD
ATOM     28  H   UNL     1       3.023   1.337  18.073  0.00  0.00    +0.062 HD
ATOM     29  H   UNL     1       4.530   1.532  16.124  0.00  0.00    +0.064 HD
BRANCH  15  30
ATOM     30  C   UNL     1       7.240   4.792  13.793  0.00  0.00    -0.022 C 
ATOM     31  H   UNL     1       7.139   3.846  13.254  0.00  0.00    +0.029 HD
ATOM     32  H   UNL     1       8.282   4.920  14.103  0.00  0.00    +0.029 HD
ATOM     33  H   UNL     1       6.989   5.606  13.106  0.00  0.00    +0.029 HD
ENDBRANCH  15  30
ENDBRANCH   1  19
BRANCH   4  34
ATOM     34  C   UNL     1       1.310   8.335  21.463  0.00  0.00    +0.003 C 
ATOM     35  H   UNL     1       0.401   8.160  22.054  0.00  0.00    +0.043 HD
ATOM     36  H   UNL     1       2.157   8.062  22.107  0.00  0.00    +0.043 HD
BRANCH  34  37
ATOM     37  C   UNL     1       1.379   9.845  21.157  0.00  0.00    -0.015 C 
ATOM     38  H   UNL     1       2.183  10.079  20.448  0.00  0.00    +0.033 HD
ATOM     39  H   UNL     1       1.655  10.368  22.083  0.00  0.00    +0.033 HD
BRANCH  37  40
ATOM     40  C   UNL     1       0.075  10.415  20.649  0.00  0.00    -0.041 A 
ATOM     41  C   UNL     1      -0.654  11.329  21.402  0.00  0.00    -0.016 A 
ATOM     42  C   UNL     1      -1.846  11.858  20.897  0.00  0.00    +0.127 A 
ATOM     43  C   UNL     1      -2.365  11.492  19.623  0.00  0.00    +0.048 A 
ATOM     44  C   UNL     1      -3.572  11.972  19.018  0.00  0.00    -0.015 A 
ATOM     45  C   UNL     1      -3.909  11.501  17.745  0.00  0.00    +0.064 A 
ATOM     46  N   UNL     1      -3.134  10.613  17.094  0.00  0.00    -0.154 NA
ATOM     47  N   UNL     1      -1.988  10.150  17.668  0.00  0.00    -0.149 NA
ATOM     48  C   UNL     1      -1.608  10.565  18.880  0.00  0.00    +0.097 A 
ATOM     49  C   UNL     1      -0.421  10.051  19.393  0.00  0.00    -0.031 A 
ATOM     50  H   UNL     1      -0.282  11.631  22.376  0.00  0.00    +0.066 HD
ATOM     51  H   UNL     1       0.132   9.341  18.780  0.00  0.00    +0.064 HD
BRANCH  44  52
ATOM     52  C   UNL     1      -4.459  12.960  19.729  0.00  0.00    -0.037 C 
ATOM     53  H   UNL     1      -4.005  13.267  20.676  0.00  0.00    +0.028 HD
ATOM     54  H   UNL     1      -4.628  13.876  19.158  0.00  0.00    +0.028 HD
ATOM     55  H   UNL     1      -5.447  12.523  19.904  0.00  0.00    +0.028 HD
ENDBRANCH  44  52
BRANCH  45  56
ATOM     56  C   UNL     1      -5.137  11.934  17.003  0.00  0.00    -0.020 C 
ATOM     57  H   UNL     1      -4.880  12.311  16.007  0.00  0.00    +0.029 HD
ATOM     58  H   UNL     1      -5.645  12.742  17.539  0.00  0.00    +0.029 HD
ATOM     59  H   UNL     1      -5.822  11.092  16.870  0.00  0.00    +0.029 HD
ENDBRANCH  45  56
BRANCH  42  60
ATOM     60  O   UNL     1      -2.515  12.767  21.678  0.00  0.00    -0.506 OA
ATOM     61  H   UNL     1      -1.871  13.276  22.195  0.00  0.00    +0.292 HD
ENDBRANCH  42  60
ENDBRANCH  37  40
ENDBRANCH  34  37
ENDBRANCH   4  34
TORSDOF 8
ENDMDL
MODEL 26
REMARK VINA RESULT:    -6.971      3.053     11.098
REMARK INTER + INTRA:          -8.200
REMARK INTER:                  -7.927
REMARK INTRA:                  -0.273
REMARK UNBOUND:                 1.216
REMARK  Name = 
REMARK  8 active torsions:
REMARK  status: ('A' for Active; 'I' for Inactive)
REMARK    1  A    between atoms: C_1  and  C_2
REMARK    2  A    between atoms: C_6  and  N_7
REMARK    3  A    between atoms: N_10  and  C_11
REMARK    4  A    between atoms: C_11  and  C_12
REMARK    5  A    between atoms: C_12  and  C_13
REMARK    6  A    between atoms: C_15  and  O_16
REMARK    7  A    between atoms: C_18  and  C_19
REMARK    8  A    between atoms: C_20  and  C_21
REMARK                            x       y       z     vdW  Elec       q    Type
REMARK                         _______ _______ _______ _____ _____    ______ ____
ROOT
ATOM      1  N   UNL     1       2.821   6.632  19.297  0.00  0.00    -0.327 N 
ATOM      2  C   UNL     1       2.209   7.668  18.431  0.00  0.00    +0.025 C 
ATOM      3  C   UNL     1       1.910   8.939  19.255  0.00  0.00    +0.015 C 
ATOM      4  N   UNL     1       0.913   8.729  20.337  0.00  0.00    -0.299 NA
ATOM      5  C   UNL     1       0.944   7.328  20.821  0.00  0.00    +0.015 C 
ATOM      6  C   UNL     1       2.302   6.603  20.684  0.00  0.00    +0.025 C 
ATOM      7  H   UNL     1       1.279   7.307  17.970  0.00  0.00    +0.048 HD
ATOM      8  H   UNL     1       2.904   7.923  17.621  0.00  0.00    +0.048 HD
ATOM      9  H   UNL     1       2.861   9.299  19.671  0.00  0.00    +0.044 HD
ATOM     10  H   UNL     1       1.536   9.715  18.578  0.00  0.00    +0.044 HD
ATOM     11  H   UNL     1       0.199   6.778  20.231  0.00  0.00    +0.044 HD
ATOM     12  H   UNL     1       0.595   7.256  21.858  0.00  0.00    +0.044 HD
ATOM     13  H   UNL     1       3.038   7.111  21.320  0.00  0.00    +0.048 HD
ATOM     14  H   UNL     1       2.220   5.581  21.074  0.00  0.00    +0.048 HD
ENDROOT
BRANCH   1  19
ATOM     15  C   UNL     1       5.670   4.694  15.564  0.00  0.00    +0.039 A 
ATOM     16  C   UNL     1       5.697   5.931  16.189  0.00  0.00    -0.040 A 
ATOM     17  C   UNL     1       4.784   6.176  17.208  0.00  0.00    -0.049 A 
ATOM     18  C   UNL     1       3.856   5.193  17.595  0.00  0.00    +0.021 A 
ATOM     19  C   UNL     1       2.900   5.385  18.635  0.00  0.00    +0.039 A 
ATOM     20  C   UNL     1       2.026   4.335  18.953  0.00  0.00    -0.040 A 
ATOM     21  C   UNL     1       2.094   3.124  18.271  0.00  0.00    -0.058 A 
ATOM     22  C   UNL     1       3.036   2.954  17.257  0.00  0.00    -0.036 A 
ATOM     23  C   UNL     1       3.919   3.962  16.903  0.00  0.00    +0.073 A 
ATOM     24  N   UNL     1       4.798   3.720  15.914  0.00  0.00    -0.252 NA
ATOM     25  H   UNL     1       6.413   6.691  15.899  0.00  0.00    +0.064 HD
ATOM     26  H   UNL     1       4.797   7.139  17.713  0.00  0.00    +0.063 HD
ATOM     27  H   UNL     1       1.273   4.456  19.725  0.00  0.00    +0.064 HD
ATOM     28  H   UNL     1       1.414   2.315  18.521  0.00  0.00    +0.062 HD
ATOM     29  H   UNL     1       3.084   2.006  16.726  0.00  0.00    +0.064 HD
BRANCH  15  30
ATOM     30  C   UNL     1       6.646   4.380  14.472  0.00  0.00    -0.022 C 
ATOM     31  H   UNL     1       6.116   4.027  13.584  0.00  0.00    +0.029 HD
ATOM     32  H   UNL     1       7.352   3.612  14.799  0.00  0.00    +0.029 HD
ATOM     33  H   UNL     1       7.220   5.271  14.195  0.00  0.00    +0.029 HD
ENDBRANCH  15  30
ENDBRANCH   1  19
BRANCH   4  34
ATOM     34  C   UNL     1       1.099   9.688  21.444  0.00  0.00    +0.003 C 
ATOM     35  H   UNL     1       2.075   9.515  21.917  0.00  0.00    +0.043 HD
ATOM     36  H   UNL     1       1.123  10.711  21.047  0.00  0.00    +0.043 HD
BRANCH  34  37
ATOM     37  C   UNL     1       0.027   9.602  22.549  0.00  0.00    -0.015 C 
ATOM     38  H   UNL     1       0.474   9.628  23.551  0.00  0.00    +0.033 HD
ATOM     39  H   UNL     1      -0.458   8.619  22.479  0.00  0.00    +0.033 HD
BRANCH  37  40
ATOM     40  C   UNL     1      -1.033  10.674  22.441  0.00  0.00    -0.041 A 
ATOM     41  C   UNL     1      -1.683  11.161  23.570  0.00  0.00    -0.016 A 
ATOM     42  C   UNL     1      -2.644  12.170  23.443  0.00  0.00    +0.127 A 
ATOM     43  C   UNL     1      -3.002  12.730  22.184  0.00  0.00    +0.048 A 
ATOM     44  C   UNL     1      -3.969  13.760  21.947  0.00  0.00    -0.015 A 
ATOM     45  C   UNL     1      -4.173  14.190  20.632  0.00  0.00    +0.064 A 
ATOM     46  N   UNL     1      -3.490  13.653  19.602  0.00  0.00    -0.154 NA
ATOM     47  N   UNL     1      -2.573  12.670  19.822  0.00  0.00    -0.149 NA
ATOM     48  C   UNL     1      -2.329  12.219  21.056  0.00  0.00    +0.097 A 
ATOM     49  C   UNL     1      -1.372  11.220  21.199  0.00  0.00    -0.031 A 
ATOM     50  H   UNL     1      -1.429  10.758  24.545  0.00  0.00    +0.066 HD
ATOM     51  H   UNL     1      -0.876  10.860  20.299  0.00  0.00    +0.064 HD
BRANCH  44  52
ATOM     52  C   UNL     1      -4.750  14.371  23.081  0.00  0.00    -0.037 C 
ATOM     53  H   UNL     1      -4.181  15.186  23.539  0.00  0.00    +0.028 HD
ATOM     54  H   UNL     1      -5.704  14.799  22.767  0.00  0.00    +0.028 HD
ATOM     55  H   UNL     1      -4.989  13.608  23.829  0.00  0.00    +0.028 HD
ENDBRANCH  44  52
BRANCH  45  56
ATOM     56  C   UNL     1      -5.147  15.264  20.256  0.00  0.00    -0.020 C 
ATOM     57  H   UNL     1      -5.207  15.374  19.167  0.00  0.00    +0.029 HD
ATOM     58  H   UNL     1      -4.832  16.228  20.667  0.00  0.00    +0.029 HD
ATOM     59  H   UNL     1      -6.149  15.017  20.618  0.00  0.00    +0.029 HD
ENDBRANCH  45  56
BRANCH  42  60
ATOM     60  O   UNL     1      -3.241  12.622  24.592  0.00  0.00    -0.506 OA
ATOM     61  H   UNL     1      -2.561  12.990  25.180  0.00  0.00    +0.292 HD
ENDBRANCH  42  60
ENDBRANCH  37  40
ENDBRANCH  34  37
ENDBRANCH   4  34
TORSDOF 8
ENDMDL
MODEL 27
REMARK VINA RESULT:    -6.906      1.754      2.472
REMARK INTER + INTRA:          -8.112
REMARK INTER:                  -8.498
REMARK INTRA:                   0.386
REMARK UNBOUND:                 1.216
REMARK  Name = 
REMARK  8 active torsions:
REMARK  status: ('A' for Active; 'I' for Inactive)
REMARK    1  A    between atoms: C_1  and  C_2
REMARK    2  A    between atoms: C_6  and  N_7
REMARK    3  A    between atoms: N_10  and  C_11
REMARK    4  A    between atoms: C_11  and  C_12
REMARK    5  A    between atoms: C_12  and  C_13
REMARK    6  A    between atoms: C_15  and  O_16
REMARK    7  A    between atoms: C_18  and  C_19
REMARK    8  A    between atoms: C_20  and  C_21
REMARK                            x       y       z     vdW  Elec       q    Type
REMARK                         _______ _______ _______ _____ _____    ______ ____
ROOT
ATOM      1  N   UNL     1      -1.312  10.937  18.801  0.00  0.00    -0.327 N 
ATOM      2  C   UNL     1      -0.302  11.962  19.155  0.00  0.00    +0.025 C 
ATOM      3  C   UNL     1       1.015  11.282  19.591  0.00  0.00    +0.015 C 
ATOM      4  N   UNL     1       0.882  10.456  20.820  0.00  0.00    -0.299 NA
ATOM      5  C   UNL     1      -0.496   9.925  20.955  0.00  0.00    +0.015 C 
ATOM      6  C   UNL     1      -1.261   9.710  19.631  0.00  0.00    +0.025 C 
ATOM      7  H   UNL     1      -0.658  12.614  19.965  0.00  0.00    +0.048 HD
ATOM      8  H   UNL     1      -0.103  12.596  18.282  0.00  0.00    +0.048 HD
ATOM      9  H   UNL     1       1.367  10.668  18.751  0.00  0.00    +0.044 HD
ATOM     10  H   UNL     1       1.768  12.058  19.768  0.00  0.00    +0.044 HD
ATOM     11  H   UNL     1      -1.052  10.651  21.561  0.00  0.00    +0.044 HD
ATOM     12  H   UNL     1      -0.509   8.996  21.539  0.00  0.00    +0.044 HD
ATOM     13  H   UNL     1      -0.745   8.940  19.045  0.00  0.00    +0.048 HD
ATOM     14  H   UNL     1      -2.262   9.310  19.839  0.00  0.00    +0.048 HD
ENDROOT
BRANCH   1  19
ATOM     15  C   UNL     1      -4.440  13.778  21.620  0.00  0.00    +0.039 A 
ATOM     16  C   UNL     1      -3.167  13.293  21.872  0.00  0.00    -0.040 A 
ATOM     17  C   UNL     1      -2.540  12.538  20.887  0.00  0.00    -0.049 A 
ATOM     18  C   UNL     1      -3.184  12.275  19.664  0.00  0.00    +0.021 A 
ATOM     19  C   UNL     1      -2.590  11.512  18.616  0.00  0.00    +0.039 A 
ATOM     20  C   UNL     1      -3.312  11.317  17.430  0.00  0.00    -0.040 A 
ATOM     21  C   UNL     1      -4.582  11.863  17.274  0.00  0.00    -0.058 A 
ATOM     22  C   UNL     1      -5.147  12.606  18.310  0.00  0.00    -0.036 A 
ATOM     23  C   UNL     1      -4.476  12.824  19.503  0.00  0.00    +0.073 A 
ATOM     24  N   UNL     1      -5.089  13.552  20.454  0.00  0.00    -0.252 NA
ATOM     25  H   UNL     1      -2.663  13.497  22.810  0.00  0.00    +0.064 HD
ATOM     26  H   UNL     1      -1.538  12.157  21.067  0.00  0.00    +0.063 HD
ATOM     27  H   UNL     1      -2.897  10.725  16.620  0.00  0.00    +0.064 HD
ATOM     28  H   UNL     1      -5.137  11.708  16.353  0.00  0.00    +0.062 HD
ATOM     29  H   UNL     1      -6.140  13.029  18.184  0.00  0.00    +0.064 HD
BRANCH  15  30
ATOM     30  C   UNL     1      -5.147  14.608  22.648  0.00  0.00    -0.022 C 
ATOM     31  H   UNL     1      -4.457  14.880  23.451  0.00  0.00    +0.029 HD
ATOM     32  H   UNL     1      -5.992  14.057  23.070  0.00  0.00    +0.029 HD
ATOM     33  H   UNL     1      -5.534  15.531  22.203  0.00  0.00    +0.029 HD
ENDBRANCH  15  30
ENDBRANCH   1  19
BRANCH   4  34
ATOM     34  C   UNL     1       1.886   9.375  20.862  0.00  0.00    +0.003 C 
ATOM     35  H   UNL     1       2.377   9.294  19.883  0.00  0.00    +0.043 HD
ATOM     36  H   UNL     1       2.673   9.629  21.584  0.00  0.00    +0.043 HD
BRANCH  34  37
ATOM     37  C   UNL     1       1.314   7.986  21.209  0.00  0.00    -0.015 C 
ATOM     38  H   UNL     1       0.221   7.964  21.121  0.00  0.00    +0.033 HD
ATOM     39  H   UNL     1       1.518   7.789  22.270  0.00  0.00    +0.033 HD
BRANCH  37  40
ATOM     40  C   UNL     1       1.910   6.868  20.385  0.00  0.00    -0.041 A 
ATOM     41  C   UNL     1       2.633   7.132  19.228  0.00  0.00    -0.016 A 
ATOM     42  C   UNL     1       3.194   6.080  18.497  0.00  0.00    +0.127 A 
ATOM     43  C   UNL     1       3.051   4.718  18.887  0.00  0.00    +0.048 A 
ATOM     44  C   UNL     1       3.582   3.572  18.211  0.00  0.00    -0.015 A 
ATOM     45  C   UNL     1       3.344   2.308  18.761  0.00  0.00    +0.064 A 
ATOM     46  N   UNL     1       2.629   2.154  19.892  0.00  0.00    -0.154 NA
ATOM     47  N   UNL     1       2.118   3.241  20.535  0.00  0.00    -0.149 NA
ATOM     48  C   UNL     1       2.315   4.477  20.064  0.00  0.00    +0.097 A 
ATOM     49  C   UNL     1       1.767   5.534  20.783  0.00  0.00    -0.031 A 
ATOM     50  H   UNL     1       2.764   8.161  18.906  0.00  0.00    +0.066 HD
ATOM     51  H   UNL     1       1.210   5.298  21.688  0.00  0.00    +0.064 HD
BRANCH  44  52
ATOM     52  C   UNL     1       4.379   3.717  16.941  0.00  0.00    -0.037 C 
ATOM     53  H   UNL     1       5.446   3.798  17.169  0.00  0.00    +0.028 HD
ATOM     54  H   UNL     1       4.272   2.865  16.266  0.00  0.00    +0.028 HD
ATOM     55  H   UNL     1       4.041   4.595  16.382  0.00  0.00    +0.028 HD
ENDBRANCH  44  52
BRANCH  45  56
ATOM     56  C   UNL     1       3.853   1.035  18.155  0.00  0.00    -0.020 C 
ATOM     57  H   UNL     1       4.949   1.014  18.155  0.00  0.00    +0.029 HD
ATOM     58  H   UNL     1       3.522   0.945  17.116  0.00  0.00    +0.029 HD
ATOM     59  H   UNL     1       3.507   0.172  18.730  0.00  0.00    +0.029 HD
ENDBRANCH  45  56
BRANCH  42  60
ATOM     60  O   UNL     1       3.909   6.402  17.371  0.00  0.00    -0.506 OA
ATOM     61  H   UNL     1       3.381   7.002  16.820  0.00  0.00    +0.292 HD
ENDBRANCH  42  60
ENDBRANCH  37  40
ENDBRANCH  34  37
ENDBRANCH   4  34
TORSDOF 8
ENDMDL
MODEL 28
REMARK VINA RESULT:    -6.825      2.411      4.260
REMARK INTER + INTRA:          -8.003
REMARK INTER:                  -8.044
REMARK INTRA:                   0.041
REMARK UNBOUND:                 1.216
REMARK  Name = 
REMARK  8 active torsions:
REMARK  status: ('A' for Active; 'I' for Inactive)
REMARK    1  A    between atoms: C_1  and  C_2
REMARK    2  A    between atoms: C_6  and  N_7
REMARK    3  A    between atoms: N_10  and  C_11
REMARK    4  A    between atoms: C_11  and  C_12
REMARK    5  A    between atoms: C_12  and  C_13
REMARK    6  A    between atoms: C_15  and  O_16
REMARK    7  A    between atoms: C_18  and  C_19
REMARK    8  A    between atoms: C_20  and  C_21
REMARK                            x       y       z     vdW  Elec       q    Type
REMARK                         _______ _______ _______ _____ _____    ______ ____
ROOT
ATOM      1  N   UNL     1       0.776   9.954  19.096  0.00  0.00    -0.327 N 
ATOM      2  C   UNL     1       1.813   9.211  18.342  0.00  0.00    +0.025 C 
ATOM      3  C   UNL     1       1.698   7.698  18.632  0.00  0.00    +0.015 C 
ATOM      4  N   UNL     1       1.949   7.341  20.052  0.00  0.00    -0.299 NA
ATOM      5  C   UNL     1       1.586   8.462  20.953  0.00  0.00    +0.015 C 
ATOM      6  C   UNL     1       0.472   9.400  20.436  0.00  0.00    +0.025 C 
ATOM      7  H   UNL     1       2.823   9.554  18.605  0.00  0.00    +0.048 HD
ATOM      8  H   UNL     1       1.674   9.380  17.267  0.00  0.00    +0.048 HD
ATOM      9  H   UNL     1       0.694   7.376  18.325  0.00  0.00    +0.044 HD
ATOM     10  H   UNL     1       2.419   7.166  18.002  0.00  0.00    +0.044 HD
ATOM     11  H   UNL     1       2.498   9.055  21.095  0.00  0.00    +0.044 HD
ATOM     12  H   UNL     1       1.323   8.099  21.954  0.00  0.00    +0.044 HD
ATOM     13  H   UNL     1      -0.460   8.827  20.349  0.00  0.00    +0.048 HD
ATOM     14  H   UNL     1       0.275  10.186  21.175  0.00  0.00    +0.048 HD
ENDROOT
BRANCH   1  19
ATOM     15  C   UNL     1      -1.856  14.085  20.444  0.00  0.00    +0.039 A 
ATOM     16  C   UNL     1      -2.132  12.735  20.590  0.00  0.00    -0.040 A 
ATOM     17  C   UNL     1      -1.199  11.815  20.126  0.00  0.00    -0.049 A 
ATOM     18  C   UNL     1      -0.002  12.246  19.524  0.00  0.00    +0.021 A 
ATOM     19  C   UNL     1       0.993  11.350  19.034  0.00  0.00    +0.039 A 
ATOM     20  C   UNL     1       2.157  11.882  18.462  0.00  0.00    -0.040 A 
ATOM     21  C   UNL     1       2.343  13.259  18.378  0.00  0.00    -0.058 A 
ATOM     22  C   UNL     1       1.358  14.119  18.863  0.00  0.00    -0.036 A 
ATOM     23  C   UNL     1       0.188  13.643  19.434  0.00  0.00    +0.073 A 
ATOM     24  N   UNL     1      -0.713  14.538  19.878  0.00  0.00    -0.252 NA
ATOM     25  H   UNL     1      -3.050  12.397  21.057  0.00  0.00    +0.064 HD
ATOM     26  H   UNL     1      -1.398  10.753  20.240  0.00  0.00    +0.063 HD
ATOM     27  H   UNL     1       2.926  11.228  18.061  0.00  0.00    +0.064 HD
ATOM     28  H   UNL     1       3.246  13.664  17.933  0.00  0.00    +0.062 HD
ATOM     29  H   UNL     1       1.507  15.194  18.794  0.00  0.00    +0.064 HD
BRANCH  15  30
ATOM     30  C   UNL     1      -2.826  15.111  20.944  0.00  0.00    -0.022 C 
ATOM     31  H   UNL     1      -3.550  15.356  20.162  0.00  0.00    +0.029 HD
ATOM     32  H   UNL     1      -2.299  16.021  21.244  0.00  0.00    +0.029 HD
ATOM     33  H   UNL     1      -3.376  14.736  21.813  0.00  0.00    +0.029 HD
ENDBRANCH  15  30
ENDBRANCH   1  19
BRANCH   4  34
ATOM     34  C   UNL     1       1.255   6.094  20.432  0.00  0.00    +0.003 C 
ATOM     35  H   UNL     1       0.723   6.246  21.380  0.00  0.00    +0.043 HD
ATOM     36  H   UNL     1       0.491   5.852  19.681  0.00  0.00    +0.043 HD
BRANCH  34  37
ATOM     37  C   UNL     1       2.185   4.877  20.613  0.00  0.00    -0.015 C 
ATOM     38  H   UNL     1       1.624   3.935  20.610  0.00  0.00    +0.033 HD
ATOM     39  H   UNL     1       2.635   4.938  21.613  0.00  0.00    +0.033 HD
BRANCH  37  40
ATOM     40  C   UNL     1       3.293   4.809  19.587  0.00  0.00    -0.041 A 
ATOM     41  C   UNL     1       4.617   5.044  19.939  0.00  0.00    -0.016 A 
ATOM     42  C   UNL     1       5.625   4.952  18.974  0.00  0.00    +0.127 A 
ATOM     43  C   UNL     1       5.352   4.629  17.615  0.00  0.00    +0.048 A 
ATOM     44  C   UNL     1       6.308   4.512  16.553  0.00  0.00    -0.015 A 
ATOM     45  C   UNL     1       5.845   4.171  15.278  0.00  0.00    +0.064 A 
ATOM     46  N   UNL     1       4.536   3.963  15.036  0.00  0.00    -0.154 NA
ATOM     47  N   UNL     1       3.624   4.078  16.042  0.00  0.00    -0.149 NA
ATOM     48  C   UNL     1       4.003   4.396  17.283  0.00  0.00    +0.097 A 
ATOM     49  C   UNL     1       3.013   4.486  18.255  0.00  0.00    -0.031 A 
ATOM     50  H   UNL     1       4.857   5.288  20.970  0.00  0.00    +0.066 HD
ATOM     51  H   UNL     1       1.985   4.293  17.952  0.00  0.00    +0.064 HD
BRANCH  44  52
ATOM     52  C   UNL     1       7.775   4.747  16.797  0.00  0.00    -0.037 C 
ATOM     53  H   UNL     1       8.346   3.836  16.592  0.00  0.00    +0.028 HD
ATOM     54  H   UNL     1       8.200   5.525  16.159  0.00  0.00    +0.028 HD
ATOM     55  H   UNL     1       7.939   5.074  17.829  0.00  0.00    +0.028 HD
ENDBRANCH  44  52
BRANCH  45  56
ATOM     56  C   UNL     1       6.743   4.008  14.090  0.00  0.00    -0.020 C 
ATOM     57  H   UNL     1       6.499   3.093  13.538  0.00  0.00    +0.029 HD
ATOM     58  H   UNL     1       7.788   3.934  14.406  0.00  0.00    +0.029 HD
ATOM     59  H   UNL     1       6.625   4.850  13.401  0.00  0.00    +0.029 HD
ENDBRANCH  45  56
BRANCH  42  60
ATOM     60  O   UNL     1       6.915   5.179  19.383  0.00  0.00    -0.506 OA
ATOM     61  H   UNL     1       7.333   5.811  18.776  0.00  0.00    +0.292 HD
ENDBRANCH  42  60
ENDBRANCH  37  40
ENDBRANCH  34  37
ENDBRANCH   4  34
TORSDOF 8
ENDMDL
MODEL 29
REMARK VINA RESULT:    -6.816      2.895      4.704
REMARK INTER + INTRA:          -7.990
REMARK INTER:                  -8.709
REMARK INTRA:                   0.719
REMARK UNBOUND:                 1.216
REMARK  Name = 
REMARK  8 active torsions:
REMARK  status: ('A' for Active; 'I' for Inactive)
REMARK    1  A    between atoms: C_1  and  C_2
REMARK    2  A    between atoms: C_6  and  N_7
REMARK    3  A    between atoms: N_10  and  C_11
REMARK    4  A    between atoms: C_11  and  C_12
REMARK    5  A    between atoms: C_12  and  C_13
REMARK    6  A    between atoms: C_15  and  O_16
REMARK    7  A    between atoms: C_18  and  C_19
REMARK    8  A    between atoms: C_20  and  C_21
REMARK                            x       y       z     vdW  Elec       q    Type
REMARK                         _______ _______ _______ _____ _____    ______ ____
ROOT
ATOM      1  N   UNL     1       0.188   9.957  20.305  0.00  0.00    -0.327 N 
ATOM      2  C   UNL     1       1.470   9.614  19.646  0.00  0.00    +0.025 C 
ATOM      3  C   UNL     1       1.622   8.080  19.546  0.00  0.00    +0.015 C 
ATOM      4  N   UNL     1       1.692   7.400  20.865  0.00  0.00    -0.299 NA
ATOM      5  C   UNL     1       0.955   8.167  21.898  0.00  0.00    +0.015 C 
ATOM      6  C   UNL     1      -0.222   9.024  21.380  0.00  0.00    +0.025 C 
ATOM      7  H   UNL     1       2.327  10.028  20.196  0.00  0.00    +0.048 HD
ATOM      8  H   UNL     1       1.487  10.041  18.636  0.00  0.00    +0.048 HD
ATOM      9  H   UNL     1       0.775   7.699  18.960  0.00  0.00    +0.044 HD
ATOM     10  H   UNL     1       2.535   7.855  18.984  0.00  0.00    +0.044 HD
ATOM     11  H   UNL     1       1.686   8.836  22.370  0.00  0.00    +0.044 HD
ATOM     12  H   UNL     1       0.603   7.514  22.705  0.00  0.00    +0.044 HD
ATOM     13  H   UNL     1      -0.986   8.358  20.961  0.00  0.00    +0.048 HD
ATOM     14  H   UNL     1      -0.702   9.543  22.218  0.00  0.00    +0.048 HD
ENDROOT
BRANCH   1  19
ATOM     15  C   UNL     1       2.310  14.191  18.466  0.00  0.00    +0.039 A 
ATOM     16  C   UNL     1       2.402  12.869  18.060  0.00  0.00    -0.040 A 
ATOM     17  C   UNL     1       1.683  11.909  18.764  0.00  0.00    -0.049 A 
ATOM     18  C   UNL     1       0.880  12.273  19.860  0.00  0.00    +0.021 A 
ATOM     19  C   UNL     1       0.118  11.335  20.616  0.00  0.00    +0.039 A 
ATOM     20  C   UNL     1      -0.661  11.802  21.684  0.00  0.00    -0.040 A 
ATOM     21  C   UNL     1      -0.695  13.157  21.999  0.00  0.00    -0.058 A 
ATOM     22  C   UNL     1       0.058  14.060  21.248  0.00  0.00    -0.036 A 
ATOM     23  C   UNL     1       0.846  13.647  20.186  0.00  0.00    +0.073 A 
ATOM     24  N   UNL     1       1.543  14.580  19.510  0.00  0.00    -0.252 NA
ATOM     25  H   UNL     1       3.015  12.583  17.212  0.00  0.00    +0.064 HD
ATOM     26  H   UNL     1       1.740  10.869  18.452  0.00  0.00    +0.063 HD
ATOM     27  H   UNL     1      -1.238  11.112  22.293  0.00  0.00    +0.064 HD
ATOM     28  H   UNL     1      -1.299  13.513  22.828  0.00  0.00    +0.062 HD
ATOM     29  H   UNL     1       0.029  15.117  21.499  0.00  0.00    +0.064 HD
BRANCH  15  30
ATOM     30  C   UNL     1       3.056  15.260  17.727  0.00  0.00    -0.022 C 
ATOM     31  H   UNL     1       3.751  15.767  18.401  0.00  0.00    +0.029 HD
ATOM     32  H   UNL     1       2.359  15.993  17.310  0.00  0.00    +0.029 HD
ATOM     33  H   UNL     1       3.632  14.831  16.900  0.00  0.00    +0.029 HD
ENDBRANCH  15  30
ENDBRANCH   1  19
BRANCH   4  34
ATOM     34  C   UNL     1       1.216   6.005  20.785  0.00  0.00    +0.003 C 
ATOM     35  H   UNL     1       0.518   5.808  21.609  0.00  0.00    +0.043 HD
ATOM     36  H   UNL     1       0.649   5.860  19.856  0.00  0.00    +0.043 HD
BRANCH  34  37
ATOM     37  C   UNL     1       2.333   4.944  20.863  0.00  0.00    -0.015 C 
ATOM     38  H   UNL     1       1.947   3.972  21.193  0.00  0.00    +0.033 HD
ATOM     39  H   UNL     1       3.040   5.251  21.645  0.00  0.00    +0.033 HD
BRANCH  37  40
ATOM     40  C   UNL     1       3.090   4.773  19.566  0.00  0.00    -0.041 A 
ATOM     41  C   UNL     1       2.556   4.041  18.511  0.00  0.00    -0.016 A 
ATOM     42  C   UNL     1       3.268   3.918  17.313  0.00  0.00    +0.127 A 
ATOM     43  C   UNL     1       4.545   4.515  17.120  0.00  0.00    +0.048 A 
ATOM     44  C   UNL     1       5.354   4.449  15.939  0.00  0.00    -0.015 A 
ATOM     45  C   UNL     1       6.582   5.117  15.936  0.00  0.00    +0.064 A 
ATOM     46  N   UNL     1       7.013   5.803  17.012  0.00  0.00    -0.154 NA
ATOM     47  N   UNL     1       6.250   5.865  18.139  0.00  0.00    -0.149 NA
ATOM     48  C   UNL     1       5.064   5.252  18.203  0.00  0.00    +0.097 A 
ATOM     49  C   UNL     1       4.342   5.369  19.386  0.00  0.00    -0.031 A 
ATOM     50  H   UNL     1       1.581   3.577  18.626  0.00  0.00    +0.066 HD
ATOM     51  H   UNL     1       4.782   5.953  20.194  0.00  0.00    +0.064 HD
BRANCH  44  52
ATOM     52  C   UNL     1       4.897   3.682  14.725  0.00  0.00    -0.037 C 
ATOM     53  H   UNL     1       4.667   2.647  14.994  0.00  0.00    +0.028 HD
ATOM     54  H   UNL     1       3.990   4.091  14.273  0.00  0.00    +0.028 HD
ATOM     55  H   UNL     1       5.666   3.712  13.947  0.00  0.00    +0.028 HD
ENDBRANCH  44  52
BRANCH  45  56
ATOM     56  C   UNL     1       7.511   5.131  14.761  0.00  0.00    -0.020 C 
ATOM     57  H   UNL     1       7.389   6.051  14.177  0.00  0.00    +0.029 HD
ATOM     58  H   UNL     1       7.302   4.288  14.095  0.00  0.00    +0.029 HD
ATOM     59  H   UNL     1       8.552   5.090  15.094  0.00  0.00    +0.029 HD
ENDBRANCH  45  56
BRANCH  42  60
ATOM     60  O   UNL     1       2.685   3.196  16.303  0.00  0.00    -0.506 OA
ATOM     61  H   UNL     1       1.862   2.798  16.630  0.00  0.00    +0.292 HD
ENDBRANCH  42  60
ENDBRANCH  37  40
ENDBRANCH  34  37
ENDBRANCH   4  34
TORSDOF 8
ENDMDL
MODEL 30
REMARK VINA RESULT:    -6.792      5.801      9.122
REMARK INTER + INTRA:          -7.958
REMARK INTER:                  -7.976
REMARK INTRA:                   0.018
REMARK UNBOUND:                 1.216
REMARK  Name = 
REMARK  8 active torsions:
REMARK  status: ('A' for Active; 'I' for Inactive)
REMARK    1  A    between atoms: C_1  and  C_2
REMARK    2  A    between atoms: C_6  and  N_7
REMARK    3  A    between atoms: N_10  and  C_11
REMARK    4  A    between atoms: C_11  and  C_12
REMARK    5  A    between atoms: C_12  and  C_13
REMARK    6  A    between atoms: C_15  and  O_16
REMARK    7  A    between atoms: C_18  and  C_19
REMARK    8  A    between atoms: C_20  and  C_21
REMARK                            x       y       z     vdW  Elec       q    Type
REMARK                         _______ _______ _______ _____ _____    ______ ____
ROOT
ATOM      1  N   UNL     1       3.554  15.100  20.301  0.00  0.00    -0.327 N 
ATOM      2  C   UNL     1       2.402  15.267  19.384  0.00  0.00    +0.025 C 
ATOM      3  C   UNL     1       1.078  15.195  20.177  0.00  0.00    +0.015 C 
ATOM      4  N   UNL     1       0.843  13.880  20.829  0.00  0.00    -0.299 NA
ATOM      5  C   UNL     1       2.126  13.212  21.154  0.00  0.00    +0.015 C 
ATOM      6  C   UNL     1       3.321  14.155  21.418  0.00  0.00    +0.025 C 
ATOM      7  H   UNL     1       2.397  14.496  18.601  0.00  0.00    +0.048 HD
ATOM      8  H   UNL     1       2.468  16.243  18.889  0.00  0.00    +0.048 HD
ATOM      9  H   UNL     1       1.094  15.998  20.926  0.00  0.00    +0.044 HD
ATOM     10  H   UNL     1       0.248  15.402  19.492  0.00  0.00    +0.044 HD
ATOM     11  H   UNL     1       2.373  12.576  20.295  0.00  0.00    +0.044 HD
ATOM     12  H   UNL     1       2.013  12.521  21.998  0.00  0.00    +0.044 HD
ATOM     13  H   UNL     1       3.109  14.753  22.313  0.00  0.00    +0.048 HD
ATOM     14  H   UNL     1       4.216  13.566  21.655  0.00  0.00    +0.048 HD
ENDROOT
BRANCH   1  19
ATOM     15  C   UNL     1       8.492  15.133  21.494  0.00  0.00    +0.039 A 
ATOM     16  C   UNL     1       7.359  15.258  22.281  0.00  0.00    -0.040 A 
ATOM     17  C   UNL     1       6.115  15.197  21.664  0.00  0.00    -0.049 A 
ATOM     18  C   UNL     1       6.010  15.011  20.274  0.00  0.00    +0.021 A 
ATOM     19  C   UNL     1       4.763  14.935  19.587  0.00  0.00    +0.039 A 
ATOM     20  C   UNL     1       4.768  14.735  18.199  0.00  0.00    -0.040 A 
ATOM     21  C   UNL     1       5.966  14.606  17.504  0.00  0.00    -0.058 A 
ATOM     22  C   UNL     1       7.176  14.683  18.193  0.00  0.00    -0.036 A 
ATOM     23  C   UNL     1       7.225  14.883  19.563  0.00  0.00    +0.073 A 
ATOM     24  N   UNL     1       8.432  14.945  20.155  0.00  0.00    -0.252 NA
ATOM     25  H   UNL     1       7.433  15.397  23.354  0.00  0.00    +0.064 HD
ATOM     26  H   UNL     1       5.216  15.286  22.270  0.00  0.00    +0.063 HD
ATOM     27  H   UNL     1       3.836  14.693  17.642  0.00  0.00    +0.064 HD
ATOM     28  H   UNL     1       5.963  14.452  16.429  0.00  0.00    +0.062 HD
ATOM     29  H   UNL     1       8.110  14.583  17.645  0.00  0.00    +0.064 HD
BRANCH  15  30
ATOM     30  C   UNL     1       9.853  15.178  22.119  0.00  0.00    -0.022 C 
ATOM     31  H   UNL     1      10.304  16.162  21.969  0.00  0.00    +0.029 HD
ATOM     32  H   UNL     1      10.501  14.414  21.679  0.00  0.00    +0.029 HD
ATOM     33  H   UNL     1       9.792  14.991  23.196  0.00  0.00    +0.029 HD
ENDBRANCH  15  30
ENDBRANCH   1  19
BRANCH   4  34
ATOM     34  C   UNL     1      -0.018  14.008  22.021  0.00  0.00    +0.003 C 
ATOM     35  H   UNL     1       0.609  14.083  22.919  0.00  0.00    +0.043 HD
ATOM     36  H   UNL     1      -0.592  14.942  21.965  0.00  0.00    +0.043 HD
BRANCH  34  37
ATOM     37  C   UNL     1      -0.993  12.832  22.234  0.00  0.00    -0.015 C 
ATOM     38  H   UNL     1      -1.739  13.058  23.005  0.00  0.00    +0.033 HD
ATOM     39  H   UNL     1      -0.421  11.983  22.631  0.00  0.00    +0.033 HD
BRANCH  37  40
ATOM     40  C   UNL     1      -1.692  12.395  20.967  0.00  0.00    -0.041 A 
ATOM     41  C   UNL     1      -2.948  12.885  20.631  0.00  0.00    -0.016 A 
ATOM     42  C   UNL     1      -3.562  12.482  19.441  0.00  0.00    +0.127 A 
ATOM     43  C   UNL     1      -2.950  11.566  18.539  0.00  0.00    +0.048 A 
ATOM     44  C   UNL     1      -3.492  11.090  17.300  0.00  0.00    -0.015 A 
ATOM     45  C   UNL     1      -2.729  10.198  16.541  0.00  0.00    +0.064 A 
ATOM     46  N   UNL     1      -1.516   9.780  16.953  0.00  0.00    -0.154 NA
ATOM     47  N   UNL     1      -0.999  10.227  18.132  0.00  0.00    -0.149 NA
ATOM     48  C   UNL     1      -1.677  11.085  18.901  0.00  0.00    +0.097 A 
ATOM     49  C   UNL     1      -1.077  11.499  20.086  0.00  0.00    -0.031 A 
ATOM     50  H   UNL     1      -3.439  13.589  21.296  0.00  0.00    +0.066 HD
ATOM     51  H   UNL     1      -0.091  11.103  20.321  0.00  0.00    +0.064 HD
BRANCH  44  52
ATOM     52  C   UNL     1      -4.849  11.537  16.822  0.00  0.00    -0.037 C 
ATOM     53  H   UNL     1      -5.633  11.127  17.465  0.00  0.00    +0.028 HD
ATOM     54  H   UNL     1      -4.975  12.622  16.836  0.00  0.00    +0.028 HD
ATOM     55  H   UNL     1      -5.005  11.225  15.784  0.00  0.00    +0.028 HD
ENDBRANCH  44  52
BRANCH  45  56
ATOM     56  C   UNL     1      -3.180   9.637  15.227  0.00  0.00    -0.020 C 
ATOM     57  H   UNL     1      -2.852   8.597  15.112  0.00  0.00    +0.029 HD
ATOM     58  H   UNL     1      -2.752  10.210  14.398  0.00  0.00    +0.029 HD
ATOM     59  H   UNL     1      -4.272   9.648  15.160  0.00  0.00    +0.029 HD
ENDBRANCH  45  56
BRANCH  42  60
ATOM     60  O   UNL     1      -4.796  13.010  19.154  0.00  0.00    -0.506 OA
ATOM     61  H   UNL     1      -4.795  13.342  18.242  0.00  0.00    +0.292 HD
ENDBRANCH  42  60
ENDBRANCH  37  40
ENDBRANCH  34  37
ENDBRANCH   4  34
TORSDOF 8
ENDMDL
MODEL 31
REMARK VINA RESULT:    -6.752      3.655     10.733
REMARK INTER + INTRA:          -7.904
REMARK INTER:                  -8.162
REMARK INTRA:                   0.257
REMARK UNBOUND:                 1.216
REMARK  Name = 
REMARK  8 active torsions:
REMARK  status: ('A' for Active; 'I' for Inactive)
REMARK    1  A    between atoms: C_1  and  C_2
REMARK    2  A    between atoms: C_6  and  N_7
REMARK    3  A    between atoms: N_10  and  C_11
REMARK    4  A    between atoms: C_11  and  C_12
REMARK    5  A    between atoms: C_12  and  C_13
REMARK    6  A    between atoms: C_15  and  O_16
REMARK    7  A    between atoms: C_18  and  C_19
REMARK    8  A    between atoms: C_20  and  C_21
REMARK                            x       y       z     vdW  Elec       q    Type
REMARK                         _______ _______ _______ _____ _____    ______ ____
ROOT
ATOM      1  N   UNL     1       3.346   5.357  19.384  0.00  0.00    -0.327 N 
ATOM      2  C   UNL     1       2.616   6.371  18.587  0.00  0.00    +0.025 C 
ATOM      3  C   UNL     1       2.001   7.437  19.520  0.00  0.00    +0.015 C 
ATOM      4  N   UNL     1       0.979   6.897  20.453  0.00  0.00    -0.299 NA
ATOM      5  C   UNL     1       1.246   5.473  20.766  0.00  0.00    +0.015 C 
ATOM      6  C   UNL     1       2.728   5.040  20.693  0.00  0.00    +0.025 C 
ATOM      7  H   UNL     1       1.818   5.911  17.988  0.00  0.00    +0.048 HD
ATOM      8  H   UNL     1       3.311   6.861  17.894  0.00  0.00    +0.048 HD
ATOM      9  H   UNL     1       2.823   7.906  20.078  0.00  0.00    +0.044 HD
ATOM     10  H   UNL     1       1.539   8.216  18.903  0.00  0.00    +0.044 HD
ATOM     11  H   UNL     1       0.678   4.882  20.037  0.00  0.00    +0.044 HD
ATOM     12  H   UNL     1       0.833   5.194  21.743  0.00  0.00    +0.044 HD
ATOM     13  H   UNL     1       3.293   5.582  21.461  0.00  0.00    +0.048 HD
ATOM     14  H   UNL     1       2.818   3.976  20.946  0.00  0.00    +0.048 HD
ENDROOT
BRANCH   1  19
ATOM     15  C   UNL     1       6.222   4.693  15.249  0.00  0.00    +0.039 A 
ATOM     16  C   UNL     1       5.940   5.825  15.997  0.00  0.00    -0.040 A 
ATOM     17  C   UNL     1       5.113   5.696  17.107  0.00  0.00    -0.049 A 
ATOM     18  C   UNL     1       4.576   4.445  17.462  0.00  0.00    +0.021 A 
ATOM     19  C   UNL     1       3.727   4.251  18.590  0.00  0.00    +0.039 A 
ATOM     20  C   UNL     1       3.253   2.960  18.866  0.00  0.00    -0.040 A 
ATOM     21  C   UNL     1       3.611   1.885  18.057  0.00  0.00    -0.058 A 
ATOM     22  C   UNL     1       4.443   2.095  16.957  0.00  0.00    -0.036 A 
ATOM     23  C   UNL     1       4.933   3.352  16.641  0.00  0.00    +0.073 A 
ATOM     24  N   UNL     1       5.730   3.472  15.564  0.00  0.00    -0.252 NA
ATOM     25  H   UNL     1       6.355   6.791  15.731  0.00  0.00    +0.064 HD
ATOM     26  H   UNL     1       4.889   6.574  17.707  0.00  0.00    +0.063 HD
ATOM     27  H   UNL     1       2.589   2.780  19.705  0.00  0.00    +0.064 HD
ATOM     28  H   UNL     1       3.241   0.888  18.274  0.00  0.00    +0.062 HD
ATOM     29  H   UNL     1       4.718   1.252  16.328  0.00  0.00    +0.064 HD
BRANCH  15  30
ATOM     30  C   UNL     1       7.121   4.783  14.055  0.00  0.00    -0.022 C 
ATOM     31  H   UNL     1       7.778   3.910  14.012  0.00  0.00    +0.029 HD
ATOM     32  H   UNL     1       7.730   5.690  14.103  0.00  0.00    +0.029 HD
ATOM     33  H   UNL     1       6.536   4.816  13.129  0.00  0.00    +0.029 HD
ENDBRANCH  15  30
ENDBRANCH   1  19
BRANCH   4  34
ATOM     34  C   UNL     1       0.877   7.711  21.681  0.00  0.00    +0.003 C 
ATOM     35  H   UNL     1       0.780   7.049  22.551  0.00  0.00    +0.043 HD
ATOM     36  H   UNL     1       1.804   8.281  21.825  0.00  0.00    +0.043 HD
BRANCH  34  37
ATOM     37  C   UNL     1      -0.320   8.684  21.704  0.00  0.00    -0.015 C 
ATOM     38  H   UNL     1      -0.796   8.718  22.691  0.00  0.00    +0.033 HD
ATOM     39  H   UNL     1      -1.092   8.291  21.028  0.00  0.00    +0.033 HD
BRANCH  37  40
ATOM     40  C   UNL     1       0.038  10.086  21.266  0.00  0.00    -0.041 A 
ATOM     41  C   UNL     1      -0.375  11.195  21.995  0.00  0.00    -0.016 A 
ATOM     42  C   UNL     1      -0.010  12.480  21.581  0.00  0.00    +0.127 A 
ATOM     43  C   UNL     1       0.776  12.712  20.417  0.00  0.00    +0.048 A 
ATOM     44  C   UNL     1       1.201  13.983  19.907  0.00  0.00    -0.015 A 
ATOM     45  C   UNL     1       1.985  14.005  18.750  0.00  0.00    +0.064 A 
ATOM     46  N   UNL     1       2.334  12.871  18.113  0.00  0.00    -0.154 NA
ATOM     47  N   UNL     1       1.928  11.661  18.591  0.00  0.00    -0.149 NA
ATOM     48  C   UNL     1       1.182  11.572  19.696  0.00  0.00    +0.097 A 
ATOM     49  C   UNL     1       0.815  10.300  20.124  0.00  0.00    -0.031 A 
ATOM     50  H   UNL     1      -0.971  11.051  22.891  0.00  0.00    +0.066 HD
ATOM     51  H   UNL     1       1.156   9.449  19.536  0.00  0.00    +0.064 HD
BRANCH  44  52
ATOM     52  C   UNL     1       0.818  15.265  20.598  0.00  0.00    -0.037 C 
ATOM     53  H   UNL     1      -0.123  15.649  20.192  0.00  0.00    +0.028 HD
ATOM     54  H   UNL     1       0.664  15.147  21.673  0.00  0.00    +0.028 HD
ATOM     55  H   UNL     1       1.613  16.009  20.483  0.00  0.00    +0.028 HD
ENDBRANCH  44  52
BRANCH  45  56
ATOM     56  C   UNL     1       2.499  15.267  18.126  0.00  0.00    -0.020 C 
ATOM     57  H   UNL     1       1.676  15.866  17.719  0.00  0.00    +0.029 HD
ATOM     58  H   UNL     1       3.179  15.037  17.299  0.00  0.00    +0.029 HD
ATOM     59  H   UNL     1       3.015  15.880  18.870  0.00  0.00    +0.029 HD
ENDBRANCH  45  56
BRANCH  42  60
ATOM     60  O   UNL     1      -0.433  13.536  22.348  0.00  0.00    -0.506 OA
ATOM     61  H   UNL     1      -1.109  14.033  21.859  0.00  0.00    +0.292 HD
ENDBRANCH  42  60
ENDBRANCH  37  40
ENDBRANCH  34  37
ENDBRANCH   4  34
TORSDOF 8
ENDMDL
MODEL 32
REMARK VINA RESULT:    -6.716      3.004      5.989
REMARK INTER + INTRA:          -7.855
REMARK INTER:                  -9.677
REMARK INTRA:                   1.822
REMARK UNBOUND:                 1.216
REMARK  Name = 
REMARK  8 active torsions:
REMARK  status: ('A' for Active; 'I' for Inactive)
REMARK    1  A    between atoms: C_1  and  C_2
REMARK    2  A    between atoms: C_6  and  N_7
REMARK    3  A    between atoms: N_10  and  C_11
REMARK    4  A    between atoms: C_11  and  C_12
REMARK    5  A    between atoms: C_12  and  C_13
REMARK    6  A    between atoms: C_15  and  O_16
REMARK    7  A    between atoms: C_18  and  C_19
REMARK    8  A    between atoms: C_20  and  C_21
REMARK                            x       y       z     vdW  Elec       q    Type
REMARK                         _______ _______ _______ _____ _____    ______ ____
ROOT
ATOM      1  N   UNL     1       2.316   6.259  19.343  0.00  0.00    -0.327 N 
ATOM      2  C   UNL     1       1.709   5.732  20.588  0.00  0.00    +0.025 C 
ATOM      3  C   UNL     1       1.870   4.197  20.648  0.00  0.00    +0.015 C 
ATOM      4  N   UNL     1       1.159   3.478  19.559  0.00  0.00    -0.299 NA
ATOM      5  C   UNL     1       1.050   4.326  18.348  0.00  0.00    +0.015 C 
ATOM      6  C   UNL     1       2.170   5.375  18.164  0.00  0.00    +0.025 C 
ATOM      7  H   UNL     1       0.642   5.987  20.653  0.00  0.00    +0.048 HD
ATOM      8  H   UNL     1       2.210   6.177  21.456  0.00  0.00    +0.048 HD
ATOM      9  H   UNL     1       2.945   3.973  20.620  0.00  0.00    +0.044 HD
ATOM     10  H   UNL     1       1.487   3.842  21.612  0.00  0.00    +0.044 HD
ATOM     11  H   UNL     1       0.092   4.855  18.423  0.00  0.00    +0.044 HD
ATOM     12  H   UNL     1       0.969   3.716  17.440  0.00  0.00    +0.044 HD
ATOM     13  H   UNL     1       3.125   4.852  18.026  0.00  0.00    +0.048 HD
ATOM     14  H   UNL     1       2.001   5.942  17.240  0.00  0.00    +0.048 HD
ENDROOT
BRANCH   1  19
ATOM     15  C   UNL     1      -0.124   9.819  22.022  0.00  0.00    +0.039 A 
ATOM     16  C   UNL     1       0.193   8.504  22.322  0.00  0.00    -0.040 A 
ATOM     17  C   UNL     1       0.892   7.761  21.378  0.00  0.00    -0.049 A 
ATOM     18  C   UNL     1       1.270   8.331  20.149  0.00  0.00    +0.021 A 
ATOM     19  C   UNL     1       1.992   7.621  19.146  0.00  0.00    +0.039 A 
ATOM     20  C   UNL     1       2.331   8.286  17.959  0.00  0.00    -0.040 A 
ATOM     21  C   UNL     1       1.977   9.617  17.765  0.00  0.00    -0.058 A 
ATOM     22  C   UNL     1       1.272  10.297  18.758  0.00  0.00    -0.036 A 
ATOM     23  C   UNL     1       0.909   9.682  19.946  0.00  0.00    +0.073 A 
ATOM     24  N   UNL     1       0.229  10.405  20.855  0.00  0.00    -0.252 NA
ATOM     25  H   UNL     1      -0.092   8.060  23.270  0.00  0.00    +0.064 HD
ATOM     26  H   UNL     1       1.154   6.729  21.602  0.00  0.00    +0.063 HD
ATOM     27  H   UNL     1       2.863   7.768  17.166  0.00  0.00    +0.064 HD
ATOM     28  H   UNL     1       2.243  10.127  16.844  0.00  0.00    +0.062 HD
ATOM     29  H   UNL     1       0.996  11.336  18.601  0.00  0.00    +0.064 HD
BRANCH  15  30
ATOM     30  C   UNL     1      -0.863  10.662  23.017  0.00  0.00    -0.022 C 
ATOM     31  H   UNL     1      -0.502  11.692  22.978  0.00  0.00    +0.029 HD
ATOM     32  H   UNL     1      -0.725  10.269  24.028  0.00  0.00    +0.029 HD
ATOM     33  H   UNL     1      -1.937  10.668  22.799  0.00  0.00    +0.029 HD
ENDBRANCH  15  30
ENDBRANCH   1  19
BRANCH   4  34
ATOM     34  C   UNL     1       1.795   2.181  19.256  0.00  0.00    +0.003 C 
ATOM     35  H   UNL     1       1.264   1.380  19.787  0.00  0.00    +0.043 HD
ATOM     36  H   UNL     1       1.697   1.961  18.185  0.00  0.00    +0.043 HD
BRANCH  34  37
ATOM     37  C   UNL     1       3.283   2.091  19.653  0.00  0.00    -0.015 C 
ATOM     38  H   UNL     1       3.663   1.065  19.573  0.00  0.00    +0.033 HD
ATOM     39  H   UNL     1       3.367   2.344  20.718  0.00  0.00    +0.033 HD
BRANCH  37  40
ATOM     40  C   UNL     1       4.172   3.023  18.862  0.00  0.00    -0.041 A 
ATOM     41  C   UNL     1       4.189   2.997  17.473  0.00  0.00    -0.016 A 
ATOM     42  C   UNL     1       5.004   3.886  16.765  0.00  0.00    +0.127 A 
ATOM     43  C   UNL     1       5.843   4.835  17.416  0.00  0.00    +0.048 A 
ATOM     44  C   UNL     1       6.713   5.784  16.788  0.00  0.00    -0.015 A 
ATOM     45  C   UNL     1       7.453   6.648  17.602  0.00  0.00    +0.064 A 
ATOM     46  N   UNL     1       7.367   6.595  18.945  0.00  0.00    -0.154 NA
ATOM     47  N   UNL     1       6.545   5.690  19.547  0.00  0.00    -0.149 NA
ATOM     48  C   UNL     1       5.808   4.842  18.824  0.00  0.00    +0.097 A 
ATOM     49  C   UNL     1       4.988   3.954  19.513  0.00  0.00    -0.031 A 
ATOM     50  H   UNL     1       3.556   2.288  16.947  0.00  0.00    +0.066 HD
ATOM     51  H   UNL     1       4.991   4.000  20.602  0.00  0.00    +0.064 HD
BRANCH  44  52
ATOM     52  C   UNL     1       6.831   5.858  15.288  0.00  0.00    -0.037 C 
ATOM     53  H   UNL     1       6.722   4.862  14.848  0.00  0.00    +0.028 HD
ATOM     54  H   UNL     1       6.064   6.483  14.825  0.00  0.00    +0.028 HD
ATOM     55  H   UNL     1       7.794   6.296  15.005  0.00  0.00    +0.028 HD
ENDBRANCH  44  52
BRANCH  45  56
ATOM     56  C   UNL     1       8.387   7.689  17.066  0.00  0.00    -0.020 C 
ATOM     57  H   UNL     1       7.835   8.577  16.737  0.00  0.00    +0.029 HD
ATOM     58  H   UNL     1       8.937   7.304  16.202  0.00  0.00    +0.029 HD
ATOM     59  H   UNL     1       9.091   8.007  17.841  0.00  0.00    +0.029 HD
ENDBRANCH  45  56
BRANCH  42  60
ATOM     60  O   UNL     1       4.968   3.825  15.395  0.00  0.00    -0.506 OA
ATOM     61  H   UNL     1       5.673   4.386  15.034  0.00  0.00    +0.292 HD
ENDBRANCH  42  60
ENDBRANCH  37  40
ENDBRANCH  34  37
ENDBRANCH   4  34
TORSDOF 8
ENDMDL
MODEL 33
REMARK VINA RESULT:    -6.381      2.291      3.970
REMARK INTER + INTRA:          -7.403
REMARK INTER:                  -8.620
REMARK INTRA:                   1.216
REMARK UNBOUND:                 1.216
REMARK  Name = 
REMARK  8 active torsions:
REMARK  status: ('A' for Active; 'I' for Inactive)
REMARK    1  A    between atoms: C_1  and  C_2
REMARK    2  A    between atoms: C_6  and  N_7
REMARK    3  A    between atoms: N_10  and  C_11
REMARK    4  A    between atoms: C_11  and  C_12
REMARK    5  A    between atoms: C_12  and  C_13
REMARK    6  A    between atoms: C_15  and  O_16
REMARK    7  A    between atoms: C_18  and  C_19
REMARK    8  A    between atoms: C_20  and  C_21
REMARK                            x       y       z     vdW  Elec       q    Type
REMARK                         _______ _______ _______ _____ _____    ______ ____
ROOT
ATOM      1  N   UNL     1      -0.270  11.146  21.363  0.00  0.00    -0.327 N 
ATOM      2  C   UNL     1      -0.296  10.330  22.600  0.00  0.00    +0.025 C 
ATOM      3  C   UNL     1       0.765   9.211  22.520  0.00  0.00    +0.015 C 
ATOM      4  N   UNL     1       0.520   8.232  21.428  0.00  0.00    -0.299 NA
ATOM      5  C   UNL     1      -0.210   8.865  20.304  0.00  0.00    +0.015 C 
ATOM      6  C   UNL     1       0.020  10.382  20.127  0.00  0.00    +0.025 C 
ATOM      7  H   UNL     1      -1.285   9.881  22.763  0.00  0.00    +0.048 HD
ATOM      8  H   UNL     1      -0.076  10.969  23.464  0.00  0.00    +0.048 HD
ATOM      9  H   UNL     1       1.746   9.690  22.395  0.00  0.00    +0.044 HD
ATOM     10  H   UNL     1       0.782   8.676  23.476  0.00  0.00    +0.044 HD
ATOM     11  H   UNL     1      -1.278   8.698  20.492  0.00  0.00    +0.044 HD
ATOM     12  H   UNL     1      -0.004   8.352  19.356  0.00  0.00    +0.044 HD
ATOM     13  H   UNL     1       1.075  10.553  19.877  0.00  0.00    +0.048 HD
ATOM     14  H   UNL     1      -0.556  10.750  19.269  0.00  0.00    +0.048 HD
ENDROOT
BRANCH   1  19
ATOM     15  C   UNL     1      -4.122  11.919  18.142  0.00  0.00    +0.039 A 
ATOM     16  C   UNL     1      -3.101  10.981  18.141  0.00  0.00    -0.040 A 
ATOM     17  C   UNL     1      -2.180  11.006  19.182  0.00  0.00    -0.049 A 
ATOM     18  C   UNL     1      -2.282  11.960  20.211  0.00  0.00    +0.021 A 
ATOM     19  C   UNL     1      -1.371  12.031  21.305  0.00  0.00    +0.039 A 
ATOM     20  C   UNL     1      -1.569  13.013  22.286  0.00  0.00    -0.040 A 
ATOM     21  C   UNL     1      -2.639  13.899  22.199  0.00  0.00    -0.058 A 
ATOM     22  C   UNL     1      -3.520  13.814  21.121  0.00  0.00    -0.036 A 
ATOM     23  C   UNL     1      -3.365  12.864  20.124  0.00  0.00    +0.073 A 
ATOM     24  N   UNL     1      -4.258  12.847  19.118  0.00  0.00    -0.252 NA
ATOM     25  H   UNL     1      -3.020  10.240  17.354  0.00  0.00    +0.064 HD
ATOM     26  H   UNL     1      -1.378  10.273  19.199  0.00  0.00    +0.063 HD
ATOM     27  H   UNL     1      -0.882  13.108  23.122  0.00  0.00    +0.064 HD
ATOM     28  H   UNL     1      -2.786  14.658  22.962  0.00  0.00    +0.062 HD
ATOM     29  H   UNL     1      -4.354  14.509  21.057  0.00  0.00    +0.064 HD
BRANCH  15  30
ATOM     30  C   UNL     1      -5.146  11.919  17.048  0.00  0.00    -0.022 C 
ATOM     31  H   UNL     1      -5.319  12.939  16.695  0.00  0.00    +0.029 HD
ATOM     32  H   UNL     1      -6.089  11.497  17.408  0.00  0.00    +0.029 HD
ATOM     33  H   UNL     1      -4.808  11.316  16.199  0.00  0.00    +0.029 HD
ENDBRANCH  15  30
ENDBRANCH   1  19
BRANCH   4  34
ATOM     34  C   UNL     1       1.773   7.599  20.973  0.00  0.00    +0.003 C 
ATOM     35  H   UNL     1       2.100   8.067  20.035  0.00  0.00    +0.043 HD
ATOM     36  H   UNL     1       2.569   7.783  21.706  0.00  0.00    +0.043 HD
BRANCH  34  37
ATOM     37  C   UNL     1       1.665   6.081  20.719  0.00  0.00    -0.015 C 
ATOM     38  H   UNL     1       0.630   5.776  20.519  0.00  0.00    +0.033 HD
ATOM     39  H   UNL     1       1.942   5.560  21.645  0.00  0.00    +0.033 HD
BRANCH  37  40
ATOM     40  C   UNL     1       2.560   5.594  19.603  0.00  0.00    -0.041 A 
ATOM     41  C   UNL     1       2.769   4.236  19.388  0.00  0.00    -0.016 A 
ATOM     42  C   UNL     1       3.584   3.812  18.333  0.00  0.00    +0.127 A 
ATOM     43  C   UNL     1       4.230   4.726  17.453  0.00  0.00    +0.048 A 
ATOM     44  C   UNL     1       5.082   4.397  16.348  0.00  0.00    -0.015 A 
ATOM     45  C   UNL     1       5.616   5.441  15.587  0.00  0.00    +0.064 A 
ATOM     46  N   UNL     1       5.353   6.730  15.876  0.00  0.00    -0.154 NA
ATOM     47  N   UNL     1       4.547   7.048  16.928  0.00  0.00    -0.149 NA
ATOM     48  C   UNL     1       4.002   6.095  17.691  0.00  0.00    +0.097 A 
ATOM     49  C   UNL     1       3.185   6.501  18.741  0.00  0.00    -0.031 A 
ATOM     50  H   UNL     1       2.287   3.514  20.039  0.00  0.00    +0.066 HD
ATOM     51  H   UNL     1       3.034   7.570  18.884  0.00  0.00    +0.064 HD
BRANCH  44  52
ATOM     52  C   UNL     1       5.397   2.963  16.009  0.00  0.00    -0.037 C 
ATOM     53  H   UNL     1       4.856   2.657  15.108  0.00  0.00    +0.028 HD
ATOM     54  H   UNL     1       6.456   2.791  15.805  0.00  0.00    +0.028 HD
ATOM     55  H   UNL     1       5.138   2.310  16.849  0.00  0.00    +0.028 HD
ENDBRANCH  44  52
BRANCH  45  56
ATOM     56  C   UNL     1       6.510   5.227  14.404  0.00  0.00    -0.020 C 
ATOM     57  H   UNL     1       5.933   4.901  13.531  0.00  0.00    +0.029 HD
ATOM     58  H   UNL     1       7.250   4.450  14.618  0.00  0.00    +0.029 HD
ATOM     59  H   UNL     1       7.018   6.157  14.134  0.00  0.00    +0.029 HD
ENDBRANCH  45  56
BRANCH  42  60
ATOM     60  O   UNL     1       3.743   2.461  18.160  0.00  0.00    -0.506 OA
ATOM     61  H   UNL     1       4.659   2.280  17.896  0.00  0.00    +0.292 HD
ENDBRANCH  42  60
ENDBRANCH  37  40
ENDBRANCH  34  37
ENDBRANCH   4  34
TORSDOF 8
ENDMDL
