MODEL 1
REMARK VINA RESULT:    -7.327      0.000      0.000
REMARK INTER + INTRA:         -11.116
REMARK INTER:                 -10.859
REMARK INTRA:                  -0.258
REMARK UNBOUND:                -1.219
REMARK  Name = 
REMARK  6 active torsions:
REMARK  status: ('A' for Active; 'I' for Inactive)
REMARK    1  A    between atoms: C_2  and  C_3
REMARK    2  A    between atoms: C_3  and  C_4
REMARK    3  A    between atoms: C_4  and  C_5
REMARK    4  A    between atoms: N_10  and  C_11
REMARK    5  A    between atoms: N_14  and  C_15
REMARK    6  A    between atoms: C_15  and  C_16
REMARK                            x       y       z     vdW  Elec       q    Type
REMARK                         _______ _______ _______ _____ _____    ______ ____
ROOT
ATOM      1  C   UNL     1       7.318   5.274  16.942  0.00  0.00    +0.020 C 
ATOM      2  C   UNL     1       6.545   4.739  15.733  0.00  0.00    -0.049 C 
ATOM      3  C   UNL     1       5.047   4.977  15.870  0.00  0.00    -0.089 C 
ATOM      4  N   UNL     1       4.530   4.369  17.149  0.00  0.00    +0.382 N 
ATOM      5  C   UNL     1       5.266   4.894  18.365  0.00  0.00    -0.089 C 
ATOM      6  C   UNL     1       6.751   4.624  18.210  0.00  0.00    -0.049 C 
ATOM      7  H   UNL     1       8.375   5.000  16.844  0.00  0.00    +0.050 HD
ATOM      8  H   UNL     1       6.903   5.211  14.812  0.00  0.00    +0.026 HD
ATOM      9  H   UNL     1       6.731   3.662  15.631  0.00  0.00    +0.026 HD
ATOM     10  H   UNL     1       4.512   4.499  15.042  0.00  0.00    +0.006 HD
ATOM     11  H   UNL     1       4.800   6.045  15.885  0.00  0.00    +0.006 HD
ATOM     12  H   UNL     1       4.694   3.355  17.111  0.00  0.00    -0.081 HD
ATOM     13  H   UNL     1       4.885   4.362  19.241  0.00  0.00    +0.006 HD
ATOM     14  H   UNL     1       5.041   5.962  18.460  0.00  0.00    +0.006 HD
ATOM     15  H   UNL     1       7.273   4.955  19.111  0.00  0.00    +0.026 HD
ATOM     16  H   UNL     1       6.915   3.539  18.154  0.00  0.00    +0.026 HD
ENDROOT
BRANCH   1  19
ATOM     17  O   UNL     1       8.357   7.012  18.958  0.00  0.00    -0.276 OA
ATOM     18  C   UNL     1       7.903   7.485  17.925  0.00  0.00    +0.213 C 
ATOM     19  N   UNL     1       7.271   6.735  16.948  0.00  0.00    -0.313 N 
ATOM     20  H   UNL     1       7.322   7.198  16.034  0.00  0.00    +0.149 HD
BRANCH  18  21
ATOM     21  C   UNL     1       7.977   8.961  17.601  0.00  0.00    +0.026 C 
ATOM     22  H   UNL     1       6.953   9.345  17.525  0.00  0.00    +0.036 HD
ATOM     23  H   UNL     1       8.422   9.088  16.608  0.00  0.00    +0.036 HD
BRANCH  21  24
ATOM     24  C   UNL     1       8.755   9.767  18.641  0.00  0.00    -0.018 C 
ATOM     25  H   UNL     1       8.063   9.965  19.471  0.00  0.00    +0.029 HD
ATOM     26  H   UNL     1       9.569   9.159  19.054  0.00  0.00    +0.029 HD
BRANCH  24  27
ATOM     27  C   UNL     1       9.338  11.089  18.134  0.00  0.00    +0.059 C 
ATOM     28  C   UNL     1       9.853  11.991  19.246  0.00  0.00    -0.025 C 
ATOM     29  C   UNL     1       9.639  13.364  18.659  0.00  0.00    -0.027 C 
ATOM     30  C   UNL     1       8.328  13.180  17.931  0.00  0.00    +0.048 C 
ATOM     31  O   UNL     1       8.346  11.842  17.399  0.00  0.00    -0.377 OA
ATOM     32  H   UNL     1      10.152  10.884  17.428  0.00  0.00    +0.060 HD
ATOM     33  H   UNL     1      10.897  11.789  19.507  0.00  0.00    +0.029 HD
ATOM     34  H   UNL     1       9.251  11.884  20.157  0.00  0.00    +0.029 HD
ATOM     35  H   UNL     1      10.438  13.592  17.944  0.00  0.00    +0.029 HD
ATOM     36  H   UNL     1       9.606  14.159  19.408  0.00  0.00    +0.029 HD
ATOM     37  H   UNL     1       8.188  13.898  17.118  0.00  0.00    +0.056 HD
ATOM     38  H   UNL     1       7.477  13.252  18.619  0.00  0.00    +0.056 HD
ENDBRANCH  24  27
ENDBRANCH  21  24
ENDBRANCH  18  21
ENDBRANCH   1  19
BRANCH   4  39
ATOM     39  C   UNL     1       3.028   4.546  17.266  0.00  0.00    -0.064 C 
ATOM     40  H   UNL     1       2.813   5.613  17.140  0.00  0.00    +0.011 HD
ATOM     41  H   UNL     1       2.570   4.010  16.426  0.00  0.00    +0.011 HD
BRANCH  39  42
ATOM     42  C   UNL     1       2.465   4.005  18.553  0.00  0.00    -0.064 A 
ATOM     43  C   UNL     1       1.985   4.879  19.544  0.00  0.00    -0.058 A 
ATOM     44  C   UNL     1       1.445   4.374  20.728  0.00  0.00    -0.026 A 
ATOM     45  C   UNL     1       1.377   3.000  20.923  0.00  0.00    +0.123 A 
ATOM     46  F   UNL     1       0.853   2.519  22.057  0.00  0.00    -0.205 F 
ATOM     47  C   UNL     1       1.851   2.119  19.960  0.00  0.00    -0.026 A 
ATOM     48  C   UNL     1       2.398   2.619  18.776  0.00  0.00    -0.058 A 
ATOM     49  H   UNL     1       2.037   5.958  19.419  0.00  0.00    +0.062 HD
ATOM     50  H   UNL     1       1.075   5.039  21.506  0.00  0.00    +0.065 HD
ATOM     51  H   UNL     1       1.793   1.049  20.141  0.00  0.00    +0.065 HD
ATOM     52  H   UNL     1       2.774   1.910  18.039  0.00  0.00    +0.062 HD
ENDBRANCH  39  42
ENDBRANCH   4  39
TORSDOF 6
ENDMDL
MODEL 2
REMARK VINA RESULT:    -6.847      4.693      6.890
REMARK INTER + INTRA:         -10.467
REMARK INTER:                  -9.406
REMARK INTRA:                  -1.062
REMARK UNBOUND:                -1.219
REMARK  Name = 
REMARK  6 active torsions:
REMARK  status: ('A' for Active; 'I' for Inactive)
REMARK    1  A    between atoms: C_2  and  C_3
REMARK    2  A    between atoms: C_3  and  C_4
REMARK    3  A    between atoms: C_4  and  C_5
REMARK    4  A    between atoms: N_10  and  C_11
REMARK    5  A    between atoms: N_14  and  C_15
REMARK    6  A    between atoms: C_15  and  C_16
REMARK                            x       y       z     vdW  Elec       q    Type
REMARK                         _______ _______ _______ _____ _____    ______ ____
ROOT
ATOM      1  C   UNL     1       2.724   5.445  19.451  0.00  0.00    +0.020 C 
ATOM      2  C   UNL     1       2.274   5.803  18.032  0.00  0.00    -0.049 C 
ATOM      3  C   UNL     1       2.367   7.301  17.770  0.00  0.00    -0.089 C 
ATOM      4  N   UNL     1       1.568   8.066  18.795  0.00  0.00    +0.382 N 
ATOM      5  C   UNL     1       2.004   7.744  20.210  0.00  0.00    -0.089 C 
ATOM      6  C   UNL     1       1.881   6.250  20.447  0.00  0.00    -0.049 C 
ATOM      7  H   UNL     1       2.554   4.376  19.625  0.00  0.00    +0.050 HD
ATOM      8  H   UNL     1       2.883   5.269  17.293  0.00  0.00    +0.026 HD
ATOM      9  H   UNL     1       1.238   5.475  17.886  0.00  0.00    +0.026 HD
ATOM     10  H   UNL     1       1.948   7.537  16.786  0.00  0.00    +0.006 HD
ATOM     11  H   UNL     1       3.401   7.662  17.815  0.00  0.00    +0.006 HD
ATOM     12  H   UNL     1       0.584   7.783  18.709  0.00  0.00    -0.081 HD
ATOM     13  H   UNL     1       1.340   8.281  20.893  0.00  0.00    +0.006 HD
ATOM     14  H   UNL     1       3.030   8.106  20.337  0.00  0.00    +0.006 HD
ATOM     15  H   UNL     1       2.145   6.028  21.484  0.00  0.00    +0.026 HD
ATOM     16  H   UNL     1       0.829   5.955  20.339  0.00  0.00    +0.026 HD
ENDROOT
BRANCH   1  19
ATOM     17  O   UNL     1       4.788   3.535  18.948  0.00  0.00    -0.276 OA
ATOM     18  C   UNL     1       5.085   4.694  19.205  0.00  0.00    +0.213 C 
ATOM     19  N   UNL     1       4.164   5.658  19.579  0.00  0.00    -0.313 N 
ATOM     20  H   UNL     1       4.509   6.600  19.367  0.00  0.00    +0.149 HD
BRANCH  18  21
ATOM     21  C   UNL     1       6.508   5.204  19.148  0.00  0.00    +0.026 C 
ATOM     22  H   UNL     1       7.162   4.361  18.894  0.00  0.00    +0.036 HD
ATOM     23  H   UNL     1       6.812   5.532  20.149  0.00  0.00    +0.036 HD
BRANCH  21  24
ATOM     24  C   UNL     1       6.703   6.332  18.135  0.00  0.00    -0.018 C 
ATOM     25  H   UNL     1       5.854   7.017  18.257  0.00  0.00    +0.029 HD
ATOM     26  H   UNL     1       7.604   6.906  18.384  0.00  0.00    +0.029 HD
BRANCH  24  27
ATOM     27  C   UNL     1       6.795   5.883  16.675  0.00  0.00    +0.059 C 
ATOM     28  C   UNL     1       5.488   6.040  15.909  0.00  0.00    -0.025 C 
ATOM     29  C   UNL     1       5.583   4.926  14.897  0.00  0.00    -0.027 C 
ATOM     30  C   UNL     1       6.239   3.835  15.710  0.00  0.00    +0.048 C 
ATOM     31  O   UNL     1       7.176   4.491  16.586  0.00  0.00    -0.377 OA
ATOM     32  H   UNL     1       7.583   6.449  16.165  0.00  0.00    +0.060 HD
ATOM     33  H   UNL     1       5.381   7.030  15.454  0.00  0.00    +0.029 HD
ATOM     34  H   UNL     1       4.622   5.871  16.560  0.00  0.00    +0.029 HD
ATOM     35  H   UNL     1       6.241   5.226  14.072  0.00  0.00    +0.029 HD
ATOM     36  H   UNL     1       4.618   4.629  14.481  0.00  0.00    +0.029 HD
ATOM     37  H   UNL     1       6.765   3.100  15.093  0.00  0.00    +0.056 HD
ATOM     38  H   UNL     1       5.508   3.312  16.339  0.00  0.00    +0.056 HD
ENDBRANCH  24  27
ENDBRANCH  21  24
ENDBRANCH  18  21
ENDBRANCH   1  19
BRANCH   4  39
ATOM     39  C   UNL     1       1.602   9.554  18.507  0.00  0.00    -0.064 C 
ATOM     40  H   UNL     1       2.341  10.002  19.181  0.00  0.00    +0.011 HD
ATOM     41  H   UNL     1       1.966   9.680  17.480  0.00  0.00    +0.011 HD
BRANCH  39  42
ATOM     42  C   UNL     1       0.254  10.214  18.630  0.00  0.00    -0.064 A 
ATOM     43  C   UNL     1       0.016  11.167  19.635  0.00  0.00    -0.058 A 
ATOM     44  C   UNL     1      -1.229  11.792  19.733  0.00  0.00    -0.026 A 
ATOM     45  C   UNL     1      -2.233  11.472  18.828  0.00  0.00    +0.123 A 
ATOM     46  F   UNL     1      -3.423  12.077  18.922  0.00  0.00    -0.205 F 
ATOM     47  C   UNL     1      -2.021  10.529  17.831  0.00  0.00    -0.026 A 
ATOM     48  C   UNL     1      -0.779   9.896  17.732  0.00  0.00    -0.058 A 
ATOM     49  H   UNL     1       0.783  11.426  20.362  0.00  0.00    +0.062 HD
ATOM     50  H   UNL     1      -1.429  12.527  20.510  0.00  0.00    +0.065 HD
ATOM     51  H   UNL     1      -2.826  10.291  17.142  0.00  0.00    +0.065 HD
ATOM     52  H   UNL     1      -0.639   9.151  16.950  0.00  0.00    +0.062 HD
ENDBRANCH  39  42
ENDBRANCH   4  39
TORSDOF 6
ENDMDL
MODEL 3
REMARK VINA RESULT:    -6.753      4.009      6.935
REMARK INTER + INTRA:         -10.341
REMARK INTER:                 -10.292
REMARK INTRA:                  -0.048
REMARK UNBOUND:                -1.219
REMARK  Name = 
REMARK  6 active torsions:
REMARK  status: ('A' for Active; 'I' for Inactive)
REMARK    1  A    between atoms: C_2  and  C_3
REMARK    2  A    between atoms: C_3  and  C_4
REMARK    3  A    between atoms: C_4  and  C_5
REMARK    4  A    between atoms: N_10  and  C_11
REMARK    5  A    between atoms: N_14  and  C_15
REMARK    6  A    between atoms: C_15  and  C_16
REMARK                            x       y       z     vdW  Elec       q    Type
REMARK                         _______ _______ _______ _____ _____    ______ ____
ROOT
ATOM      1  C   UNL     1       2.573   2.584  19.306  0.00  0.00    +0.020 C 
ATOM      2  C   UNL     1       4.055   2.728  19.662  0.00  0.00    -0.049 C 
ATOM      3  C   UNL     1       4.779   3.660  18.699  0.00  0.00    -0.089 C 
ATOM      4  N   UNL     1       4.612   3.185  17.277  0.00  0.00    +0.382 N 
ATOM      5  C   UNL     1       3.153   3.050  16.893  0.00  0.00    -0.089 C 
ATOM      6  C   UNL     1       2.464   2.100  17.856  0.00  0.00    -0.049 C 
ATOM      7  H   UNL     1       2.115   1.836  19.965  0.00  0.00    +0.050 HD
ATOM      8  H   UNL     1       4.168   3.106  20.684  0.00  0.00    +0.026 HD
ATOM      9  H   UNL     1       4.532   1.740  19.634  0.00  0.00    +0.026 HD
ATOM     10  H   UNL     1       5.852   3.667  18.917  0.00  0.00    +0.006 HD
ATOM     11  H   UNL     1       4.397   4.686  18.755  0.00  0.00    +0.006 HD
ATOM     12  H   UNL     1       5.033   2.251  17.201  0.00  0.00    -0.081 HD
ATOM     13  H   UNL     1       3.111   2.640  15.880  0.00  0.00    +0.006 HD
ATOM     14  H   UNL     1       2.708   4.051  16.901  0.00  0.00    +0.006 HD
ATOM     15  H   UNL     1       1.426   1.963  17.544  0.00  0.00    +0.026 HD
ATOM     16  H   UNL     1       2.930   1.109  17.778  0.00  0.00    +0.026 HD
ENDROOT
BRANCH   1  19
ATOM     17  O   UNL     1       2.023   3.733  21.864  0.00  0.00    -0.276 OA
ATOM     18  C   UNL     1       1.760   4.362  20.848  0.00  0.00    +0.213 C 
ATOM     19  N   UNL     1       1.879   3.843  19.570  0.00  0.00    -0.313 N 
ATOM     20  H   UNL     1       2.006   4.589  18.878  0.00  0.00    +0.149 HD
BRANCH  18  21
ATOM     21  C   UNL     1       1.266   5.792  20.878  0.00  0.00    +0.026 C 
ATOM     22  H   UNL     1       1.309   6.145  21.915  0.00  0.00    +0.036 HD
ATOM     23  H   UNL     1       0.207   5.811  20.596  0.00  0.00    +0.036 HD
BRANCH  21  24
ATOM     24  C   UNL     1       2.074   6.727  19.980  0.00  0.00    -0.018 C 
ATOM     25  H   UNL     1       3.130   6.455  20.106  0.00  0.00    +0.029 HD
ATOM     26  H   UNL     1       1.829   6.540  18.927  0.00  0.00    +0.029 HD
BRANCH  24  27
ATOM     27  C   UNL     1       1.892   8.220  20.268  0.00  0.00    +0.059 C 
ATOM     28  C   UNL     1       0.780   8.514  21.265  0.00  0.00    -0.025 C 
ATOM     29  C   UNL     1       0.310   9.874  20.816  0.00  0.00    -0.027 C 
ATOM     30  C   UNL     1       0.415   9.750  19.314  0.00  0.00    +0.048 C 
ATOM     31  O   UNL     1       1.581   8.945  19.056  0.00  0.00    -0.377 OA
ATOM     32  H   UNL     1       2.834   8.640  20.643  0.00  0.00    +0.060 HD
ATOM     33  H   UNL     1       1.127   8.496  22.303  0.00  0.00    +0.029 HD
ATOM     34  H   UNL     1      -0.041   7.792  21.171  0.00  0.00    +0.029 HD
ATOM     35  H   UNL     1       1.000  10.646  21.178  0.00  0.00    +0.029 HD
ATOM     36  H   UNL     1      -0.698  10.123  21.156  0.00  0.00    +0.029 HD
ATOM     37  H   UNL     1       0.516  10.717  18.812  0.00  0.00    +0.056 HD
ATOM     38  H   UNL     1      -0.451   9.222  18.897  0.00  0.00    +0.056 HD
ENDBRANCH  24  27
ENDBRANCH  21  24
ENDBRANCH  18  21
ENDBRANCH   1  19
BRANCH   4  39
ATOM     39  C   UNL     1       5.380   4.070  16.316  0.00  0.00    -0.064 C 
ATOM     40  H   UNL     1       5.967   3.415  15.663  0.00  0.00    +0.011 HD
ATOM     41  H   UNL     1       4.643   4.591  15.692  0.00  0.00    +0.011 HD
BRANCH  39  42
ATOM     42  C   UNL     1       6.239   5.094  17.008  0.00  0.00    -0.064 A 
ATOM     43  C   UNL     1       7.228   4.692  17.924  0.00  0.00    -0.058 A 
ATOM     44  C   UNL     1       8.037   5.643  18.549  0.00  0.00    -0.026 A 
ATOM     45  C   UNL     1       7.867   6.990  18.260  0.00  0.00    +0.123 A 
ATOM     46  F   UNL     1       8.648   7.898  18.857  0.00  0.00    -0.205 F 
ATOM     47  C   UNL     1       6.892   7.409  17.363  0.00  0.00    -0.026 A 
ATOM     48  C   UNL     1       6.076   6.464  16.739  0.00  0.00    -0.058 A 
ATOM     49  H   UNL     1       7.374   3.644  18.175  0.00  0.00    +0.062 HD
ATOM     50  H   UNL     1       8.803   5.346  19.264  0.00  0.00    +0.065 HD
ATOM     51  H   UNL     1       6.774   8.470  17.161  0.00  0.00    +0.065 HD
ATOM     52  H   UNL     1       5.310   6.815  16.048  0.00  0.00    +0.062 HD
ENDBRANCH  39  42
ENDBRANCH   4  39
TORSDOF 6
ENDMDL
MODEL 4
REMARK VINA RESULT:    -6.371      3.617      5.150
REMARK INTER + INTRA:          -9.824
REMARK INTER:                  -9.688
REMARK INTRA:                  -0.136
REMARK UNBOUND:                -1.219
REMARK  Name = 
REMARK  6 active torsions:
REMARK  status: ('A' for Active; 'I' for Inactive)
REMARK    1  A    between atoms: C_2  and  C_3
REMARK    2  A    between atoms: C_3  and  C_4
REMARK    3  A    between atoms: C_4  and  C_5
REMARK    4  A    between atoms: N_10  and  C_11
REMARK    5  A    between atoms: N_14  and  C_15
REMARK    6  A    between atoms: C_15  and  C_16
REMARK                            x       y       z     vdW  Elec       q    Type
REMARK                         _______ _______ _______ _____ _____    ______ ____
ROOT
ATOM      1  C   UNL     1       3.760   2.955  17.422  0.00  0.00    +0.020 C 
ATOM      2  C   UNL     1       2.234   3.086  17.428  0.00  0.00    -0.049 C 
ATOM      3  C   UNL     1       1.758   4.104  18.455  0.00  0.00    -0.089 C 
ATOM      4  N   UNL     1       2.271   3.749  19.828  0.00  0.00    +0.382 N 
ATOM      5  C   UNL     1       3.781   3.629  19.856  0.00  0.00    -0.089 C 
ATOM      6  C   UNL     1       4.224   2.594  18.838  0.00  0.00    -0.049 C 
ATOM      7  H   UNL     1       4.050   2.149  16.737  0.00  0.00    +0.050 HD
ATOM      8  H   UNL     1       1.872   3.378  16.435  0.00  0.00    +0.026 HD
ATOM      9  H   UNL     1       1.787   2.109  17.654  0.00  0.00    +0.026 HD
ATOM     10  H   UNL     1       0.664   4.105  18.505  0.00  0.00    +0.006 HD
ATOM     11  H   UNL     1       2.106   5.117  18.221  0.00  0.00    +0.006 HD
ATOM     12  H   UNL     1       1.890   2.830  20.084  0.00  0.00    -0.081 HD
ATOM     13  H   UNL     1       4.072   3.307  20.859  0.00  0.00    +0.006 HD
ATOM     14  H   UNL     1       4.201   4.621  19.655  0.00  0.00    +0.006 HD
ATOM     15  H   UNL     1       5.307   2.472  18.897  0.00  0.00    +0.026 HD
ATOM     16  H   UNL     1       3.799   1.619  19.111  0.00  0.00    +0.026 HD
ENDROOT
BRANCH   1  19
ATOM     17  O   UNL     1       5.958   3.141  15.605  0.00  0.00    -0.276 OA
ATOM     18  C   UNL     1       5.352   4.153  15.930  0.00  0.00    +0.213 C 
ATOM     19  N   UNL     1       4.356   4.179  16.891  0.00  0.00    -0.313 N 
ATOM     20  H   UNL     1       3.722   4.972  16.747  0.00  0.00    +0.149 HD
BRANCH  18  21
ATOM     21  C   UNL     1       5.634   5.506  15.313  0.00  0.00    +0.026 C 
ATOM     22  H   UNL     1       5.193   5.520  14.309  0.00  0.00    +0.036 HD
ATOM     23  H   UNL     1       6.715   5.617  15.170  0.00  0.00    +0.036 HD
BRANCH  21  24
ATOM     24  C   UNL     1       5.082   6.670  16.136  0.00  0.00    -0.018 C 
ATOM     25  H   UNL     1       5.014   7.532  15.460  0.00  0.00    +0.029 HD
ATOM     26  H   UNL     1       4.057   6.447  16.460  0.00  0.00    +0.029 HD
BRANCH  24  27
ATOM     27  C   UNL     1       5.913   7.047  17.365  0.00  0.00    +0.059 C 
ATOM     28  C   UNL     1       7.414   7.036  17.108  0.00  0.00    -0.025 C 
ATOM     29  C   UNL     1       7.960   6.674  18.467  0.00  0.00    -0.027 C 
ATOM     30  C   UNL     1       6.935   5.674  18.948  0.00  0.00    +0.048 C 
ATOM     31  O   UNL     1       5.661   6.134  18.458  0.00  0.00    -0.377 OA
ATOM     32  H   UNL     1       5.614   8.040  17.721  0.00  0.00    +0.060 HD
ATOM     33  H   UNL     1       7.785   7.995  16.733  0.00  0.00    +0.029 HD
ATOM     34  H   UNL     1       7.689   6.261  16.384  0.00  0.00    +0.029 HD
ATOM     35  H   UNL     1       7.958   7.557  19.117  0.00  0.00    +0.029 HD
ATOM     36  H   UNL     1       8.974   6.268  18.436  0.00  0.00    +0.029 HD
ATOM     37  H   UNL     1       6.901   5.588  20.038  0.00  0.00    +0.056 HD
ATOM     38  H   UNL     1       7.116   4.680  18.519  0.00  0.00    +0.056 HD
ENDBRANCH  24  27
ENDBRANCH  21  24
ENDBRANCH  18  21
ENDBRANCH   1  19
BRANCH   4  39
ATOM     39  C   UNL     1       1.752   4.721  20.869  0.00  0.00    -0.064 C 
ATOM     40  H   UNL     1       0.756   4.379  21.171  0.00  0.00    +0.011 HD
ATOM     41  H   UNL     1       2.411   4.645  21.743  0.00  0.00    +0.011 HD
BRANCH  39  42
ATOM     42  C   UNL     1       1.739   6.149  20.393  0.00  0.00    -0.064 A 
ATOM     43  C   UNL     1       2.369   6.504  19.188  0.00  0.00    -0.058 A 
ATOM     44  C   UNL     1       2.337   7.826  18.739  0.00  0.00    -0.026 A 
ATOM     45  C   UNL     1       1.674   8.792  19.486  0.00  0.00    +0.123 A 
ATOM     46  F   UNL     1       1.641  10.056  19.049  0.00  0.00    -0.205 F 
ATOM     47  C   UNL     1       1.050   8.463  20.683  0.00  0.00    -0.026 A 
ATOM     48  C   UNL     1       1.084   7.144  21.140  0.00  0.00    -0.058 A 
ATOM     49  H   UNL     1       2.903   5.769  18.591  0.00  0.00    +0.062 HD
ATOM     50  H   UNL     1       2.825   8.116  17.810  0.00  0.00    +0.065 HD
ATOM     51  H   UNL     1       0.546   9.239  21.252  0.00  0.00    +0.065 HD
ATOM     52  H   UNL     1       0.598   6.911  22.087  0.00  0.00    +0.062 HD
ENDBRANCH  39  42
ENDBRANCH   4  39
TORSDOF 6
ENDMDL
MODEL 5
REMARK VINA RESULT:    -6.322      4.215      6.927
REMARK INTER + INTRA:          -9.758
REMARK INTER:                  -9.603
REMARK INTRA:                  -0.155
REMARK UNBOUND:                -1.219
REMARK  Name = 
REMARK  6 active torsions:
REMARK  status: ('A' for Active; 'I' for Inactive)
REMARK    1  A    between atoms: C_2  and  C_3
REMARK    2  A    between atoms: C_3  and  C_4
REMARK    3  A    between atoms: C_4  and  C_5
REMARK    4  A    between atoms: N_10  and  C_11
REMARK    5  A    between atoms: N_14  and  C_15
REMARK    6  A    between atoms: C_15  and  C_16
REMARK                            x       y       z     vdW  Elec       q    Type
REMARK                         _______ _______ _______ _____ _____    ______ ____
ROOT
ATOM      1  C   UNL     1       2.473   3.878  18.843  0.00  0.00    +0.020 C 
ATOM      2  C   UNL     1       3.791   3.517  19.533  0.00  0.00    -0.049 C 
ATOM      3  C   UNL     1       4.994   4.060  18.772  0.00  0.00    -0.089 C 
ATOM      4  N   UNL     1       4.983   3.569  17.346  0.00  0.00    +0.382 N 
ATOM      5  C   UNL     1       3.694   3.928  16.633  0.00  0.00    -0.089 C 
ATOM      6  C   UNL     1       2.517   3.357  17.402  0.00  0.00    -0.049 C 
ATOM      7  H   UNL     1       1.644   3.391  19.371  0.00  0.00    +0.050 HD
ATOM      8  H   UNL     1       3.806   3.907  20.557  0.00  0.00    +0.026 HD
ATOM      9  H   UNL     1       3.874   2.425  19.607  0.00  0.00    +0.026 HD
ATOM     10  H   UNL     1       5.922   3.705  19.232  0.00  0.00    +0.006 HD
ATOM     11  H   UNL     1       5.004   5.156  18.748  0.00  0.00    +0.006 HD
ATOM     12  H   UNL     1       5.045   2.544  17.360  0.00  0.00    -0.081 HD
ATOM     13  H   UNL     1       3.731   3.485  15.634  0.00  0.00    +0.006 HD
ATOM     14  H   UNL     1       3.650   5.019  16.547  0.00  0.00    +0.006 HD
ATOM     15  H   UNL     1       1.595   3.571  16.858  0.00  0.00    +0.026 HD
ATOM     16  H   UNL     1       2.601   2.262  17.425  0.00  0.00    +0.026 HD
ENDROOT
BRANCH   1  19
ATOM     17  O   UNL     1       1.635   5.307  21.172  0.00  0.00    -0.276 OA
ATOM     18  C   UNL     1       1.938   5.923  20.159  0.00  0.00    +0.213 C 
ATOM     19  N   UNL     1       2.239   5.317  18.951  0.00  0.00    -0.313 N 
ATOM     20  H   UNL     1       2.830   5.921  18.370  0.00  0.00    +0.149 HD
BRANCH  18  21
ATOM     21  C   UNL     1       2.012   7.433  20.114  0.00  0.00    +0.026 C 
ATOM     22  H   UNL     1       1.649   7.763  19.132  0.00  0.00    +0.036 HD
ATOM     23  H   UNL     1       3.062   7.742  20.167  0.00  0.00    +0.036 HD
BRANCH  21  24
ATOM     24  C   UNL     1       1.200   8.110  21.218  0.00  0.00    -0.018 C 
ATOM     25  H   UNL     1       0.552   7.338  21.652  0.00  0.00    +0.029 HD
ATOM     26  H   UNL     1       1.868   8.444  22.022  0.00  0.00    +0.029 HD
BRANCH  24  27
ATOM     27  C   UNL     1       0.349   9.297  20.762  0.00  0.00    +0.059 C 
ATOM     28  C   UNL     1       0.604   9.707  19.318  0.00  0.00    -0.025 C 
ATOM     29  C   UNL     1       0.313  11.187  19.357  0.00  0.00    -0.027 C 
ATOM     30  C   UNL     1       0.871  11.569  20.708  0.00  0.00    +0.048 C 
ATOM     31  O   UNL     1       0.600  10.459  21.585  0.00  0.00    -0.377 OA
ATOM     32  H   UNL     1      -0.714   9.058  20.887  0.00  0.00    +0.060 HD
ATOM     33  H   UNL     1      -0.022   9.161  18.605  0.00  0.00    +0.029 HD
ATOM     34  H   UNL     1       1.653   9.548  19.038  0.00  0.00    +0.029 HD
ATOM     35  H   UNL     1      -0.771  11.354  19.337  0.00  0.00    +0.029 HD
ATOM     36  H   UNL     1       0.766  11.744  18.533  0.00  0.00    +0.029 HD
ATOM     37  H   UNL     1       0.419  12.478  21.115  0.00  0.00    +0.056 HD
ATOM     38  H   UNL     1       1.959  11.701  20.667  0.00  0.00    +0.056 HD
ENDBRANCH  24  27
ENDBRANCH  21  24
ENDBRANCH  18  21
ENDBRANCH   1  19
BRANCH   4  39
ATOM     39  C   UNL     1       6.208   4.053  16.596  0.00  0.00    -0.064 C 
ATOM     40  H   UNL     1       6.903   3.209  16.522  0.00  0.00    +0.011 HD
ATOM     41  H   UNL     1       5.888   4.314  15.580  0.00  0.00    +0.011 HD
BRANCH  39  42
ATOM     42  C   UNL     1       6.852   5.259  17.227  0.00  0.00    -0.064 A 
ATOM     43  C   UNL     1       7.675   5.118  18.357  0.00  0.00    -0.058 A 
ATOM     44  C   UNL     1       8.287   6.236  18.927  0.00  0.00    -0.026 A 
ATOM     45  C   UNL     1       8.085   7.492  18.369  0.00  0.00    +0.123 A 
ATOM     46  F   UNL     1       8.678   8.560  18.915  0.00  0.00    -0.205 F 
ATOM     47  C   UNL     1       7.270   7.654  17.256  0.00  0.00    -0.026 A 
ATOM     48  C   UNL     1       6.651   6.540  16.685  0.00  0.00    -0.058 A 
ATOM     49  H   UNL     1       7.841   4.147  18.819  0.00  0.00    +0.062 HD
ATOM     50  H   UNL     1       8.923   6.142  19.806  0.00  0.00    +0.065 HD
ATOM     51  H   UNL     1       7.123   8.648  16.844  0.00  0.00    +0.065 HD
ATOM     52  H   UNL     1       6.008   6.693  15.819  0.00  0.00    +0.062 HD
ENDBRANCH  39  42
ENDBRANCH   4  39
TORSDOF 6
ENDMDL
MODEL 6
REMARK VINA RESULT:    -6.285      4.185      7.008
REMARK INTER + INTRA:          -9.708
REMARK INTER:                  -9.652
REMARK INTRA:                  -0.057
REMARK UNBOUND:                -1.219
REMARK  Name = 
REMARK  6 active torsions:
REMARK  status: ('A' for Active; 'I' for Inactive)
REMARK    1  A    between atoms: C_2  and  C_3
REMARK    2  A    between atoms: C_3  and  C_4
REMARK    3  A    between atoms: C_4  and  C_5
REMARK    4  A    between atoms: N_10  and  C_11
REMARK    5  A    between atoms: N_14  and  C_15
REMARK    6  A    between atoms: C_15  and  C_16
REMARK                            x       y       z     vdW  Elec       q    Type
REMARK                         _______ _______ _______ _____ _____    ______ ____
ROOT
ATOM      1  C   UNL     1       2.421   3.784  18.845  0.00  0.00    +0.020 C 
ATOM      2  C   UNL     1       3.742   3.412  19.524  0.00  0.00    -0.049 C 
ATOM      3  C   UNL     1       4.944   3.919  18.739  0.00  0.00    -0.089 C 
ATOM      4  N   UNL     1       4.905   3.403  17.322  0.00  0.00    +0.382 N 
ATOM      5  C   UNL     1       3.615   3.773  16.619  0.00  0.00    -0.089 C 
ATOM      6  C   UNL     1       2.438   3.236  17.413  0.00  0.00    -0.049 C 
ATOM      7  H   UNL     1       1.591   3.322  19.392  0.00  0.00    +0.050 HD
ATOM      8  H   UNL     1       3.776   3.819  20.541  0.00  0.00    +0.026 HD
ATOM      9  H   UNL     1       3.806   2.320  19.617  0.00  0.00    +0.026 HD
ATOM     10  H   UNL     1       5.871   3.555  19.194  0.00  0.00    +0.006 HD
ATOM     11  H   UNL     1       4.973   5.014  18.695  0.00  0.00    +0.006 HD
ATOM     12  H   UNL     1       4.950   2.378  17.354  0.00  0.00    -0.081 HD
ATOM     13  H   UNL     1       3.631   3.311  15.628  0.00  0.00    +0.006 HD
ATOM     14  H   UNL     1       3.588   4.863  16.514  0.00  0.00    +0.006 HD
ATOM     15  H   UNL     1       1.512   3.458  16.876  0.00  0.00    +0.026 HD
ATOM     16  H   UNL     1       2.502   2.141  17.454  0.00  0.00    +0.026 HD
ENDROOT
BRANCH   1  19
ATOM     17  O   UNL     1       1.707   5.278  21.174  0.00  0.00    -0.276 OA
ATOM     18  C   UNL     1       1.975   5.866  20.135  0.00  0.00    +0.213 C 
ATOM     19  N   UNL     1       2.214   5.229  18.930  0.00  0.00    -0.313 N 
ATOM     20  H   UNL     1       2.788   5.810  18.310  0.00  0.00    +0.149 HD
BRANCH  18  21
ATOM     21  C   UNL     1       2.071   7.374  20.052  0.00  0.00    +0.026 C 
ATOM     22  H   UNL     1       1.695   7.685  19.069  0.00  0.00    +0.036 HD
ATOM     23  H   UNL     1       3.126   7.668  20.079  0.00  0.00    +0.036 HD
BRANCH  21  24
ATOM     24  C   UNL     1       1.289   8.089  21.153  0.00  0.00    -0.018 C 
ATOM     25  H   UNL     1       0.357   7.527  21.296  0.00  0.00    +0.029 HD
ATOM     26  H   UNL     1       1.838   8.027  22.102  0.00  0.00    +0.029 HD
BRANCH  24  27
ATOM     27  C   UNL     1       0.964   9.557  20.869  0.00  0.00    +0.059 C 
ATOM     28  C   UNL     1      -0.179  10.100  21.716  0.00  0.00    -0.025 C 
ATOM     29  C   UNL     1      -0.773  11.145  20.805  0.00  0.00    -0.027 C 
ATOM     30  C   UNL     1      -0.643  10.479  19.455  0.00  0.00    +0.048 C 
ATOM     31  O   UNL     1       0.596   9.746  19.484  0.00  0.00    -0.377 OA
ATOM     32  H   UNL     1       1.858  10.171  21.035  0.00  0.00    +0.060 HD
ATOM     33  H   UNL     1       0.158  10.503  22.676  0.00  0.00    +0.029 HD
ATOM     34  H   UNL     1      -0.927   9.324  21.919  0.00  0.00    +0.029 HD
ATOM     35  H   UNL     1      -0.162  12.056  20.834  0.00  0.00    +0.029 HD
ATOM     36  H   UNL     1      -1.803  11.410  21.056  0.00  0.00    +0.029 HD
ATOM     37  H   UNL     1      -0.630  11.193  18.627  0.00  0.00    +0.056 HD
ATOM     38  H   UNL     1      -1.453   9.757  19.289  0.00  0.00    +0.056 HD
ENDBRANCH  24  27
ENDBRANCH  21  24
ENDBRANCH  18  21
ENDBRANCH   1  19
BRANCH   4  39
ATOM     39  C   UNL     1       6.130   3.852  16.549  0.00  0.00    -0.064 C 
ATOM     40  H   UNL     1       6.800   2.989  16.466  0.00  0.00    +0.011 HD
ATOM     41  H   UNL     1       5.798   4.116  15.537  0.00  0.00    +0.011 HD
BRANCH  39  42
ATOM     42  C   UNL     1       6.816   5.043  17.162  0.00  0.00    -0.064 A 
ATOM     43  C   UNL     1       6.641   6.326  16.614  0.00  0.00    -0.058 A 
ATOM     44  C   UNL     1       7.262   7.432  17.198  0.00  0.00    -0.026 A 
ATOM     45  C   UNL     1       8.053   7.262  18.327  0.00  0.00    +0.123 A 
ATOM     46  F   UNL     1       8.642   8.325  18.887  0.00  0.00    -0.205 F 
ATOM     47  C   UNL     1       8.244   6.002  18.880  0.00  0.00    -0.026 A 
ATOM     48  C   UNL     1       7.629   4.891  18.298  0.00  0.00    -0.058 A 
ATOM     49  H   UNL     1       6.035   6.483  15.725  0.00  0.00    +0.062 HD
ATOM     50  H   UNL     1       7.139   8.430  16.781  0.00  0.00    +0.065 HD
ATOM     51  H   UNL     1       8.873   5.896  19.759  0.00  0.00    +0.065 HD
ATOM     52  H   UNL     1       7.803   3.912  18.741  0.00  0.00    +0.062 HD
ENDBRANCH  39  42
ENDBRANCH   4  39
TORSDOF 6
ENDMDL
MODEL 7
REMARK VINA RESULT:    -6.279      4.525      6.832
REMARK INTER + INTRA:          -9.700
REMARK INTER:                  -9.265
REMARK INTRA:                  -0.435
REMARK UNBOUND:                -1.219
REMARK  Name = 
REMARK  6 active torsions:
REMARK  status: ('A' for Active; 'I' for Inactive)
REMARK    1  A    between atoms: C_2  and  C_3
REMARK    2  A    between atoms: C_3  and  C_4
REMARK    3  A    between atoms: C_4  and  C_5
REMARK    4  A    between atoms: N_10  and  C_11
REMARK    5  A    between atoms: N_14  and  C_15
REMARK    6  A    between atoms: C_15  and  C_16
REMARK                            x       y       z     vdW  Elec       q    Type
REMARK                         _______ _______ _______ _____ _____    ______ ____
ROOT
ATOM      1  C   UNL     1       2.689   5.571  19.189  0.00  0.00    +0.020 C 
ATOM      2  C   UNL     1       2.218   6.430  18.012  0.00  0.00    -0.049 C 
ATOM      3  C   UNL     1       2.312   7.918  18.326  0.00  0.00    -0.089 C 
ATOM      4  N   UNL     1       1.531   8.244  19.574  0.00  0.00    +0.382 N 
ATOM      5  C   UNL     1       1.988   7.419  20.761  0.00  0.00    -0.089 C 
ATOM      6  C   UNL     1       1.864   5.944  20.426  0.00  0.00    -0.049 C 
ATOM      7  H   UNL     1       2.518   4.513  18.954  0.00  0.00    +0.050 HD
ATOM      8  H   UNL     1       2.813   6.212  17.118  0.00  0.00    +0.026 HD
ATOM      9  H   UNL     1       1.178   6.177  17.771  0.00  0.00    +0.026 HD
ATOM     10  H   UNL     1       1.879   8.503  17.508  0.00  0.00    +0.006 HD
ATOM     11  H   UNL     1       3.348   8.239  18.486  0.00  0.00    +0.006 HD
ATOM     12  H   UNL     1       0.545   8.011  19.405  0.00  0.00    -0.081 HD
ATOM     13  H   UNL     1       1.337   7.661  21.605  0.00  0.00    +0.006 HD
ATOM     14  H   UNL     1       3.017   7.710  20.997  0.00  0.00    +0.006 HD
ATOM     15  H   UNL     1       2.143   5.352  21.301  0.00  0.00    +0.026 HD
ATOM     16  H   UNL     1       0.809   5.708  20.232  0.00  0.00    +0.026 HD
ENDROOT
BRANCH   1  19
ATOM     17  O   UNL     1       4.674   3.534  18.910  0.00  0.00    -0.276 OA
ATOM     18  C   UNL     1       5.017   4.693  19.099  0.00  0.00    +0.213 C 
ATOM     19  N   UNL     1       4.132   5.724  19.364  0.00  0.00    -0.313 N 
ATOM     20  H   UNL     1       4.531   6.632  19.102  0.00  0.00    +0.149 HD
BRANCH  18  21
ATOM     21  C   UNL     1       6.465   5.131  19.068  0.00  0.00    +0.026 C 
ATOM     22  H   UNL     1       7.078   4.261  18.802  0.00  0.00    +0.036 HD
ATOM     23  H   UNL     1       6.773   5.420  20.080  0.00  0.00    +0.036 HD
BRANCH  21  24
ATOM     24  C   UNL     1       6.729   6.269  18.084  0.00  0.00    -0.018 C 
ATOM     25  H   UNL     1       5.921   7.000  18.220  0.00  0.00    +0.029 HD
ATOM     26  H   UNL     1       7.662   6.784  18.348  0.00  0.00    +0.029 HD
BRANCH  24  27
ATOM     27  C   UNL     1       6.800   5.851  16.613  0.00  0.00    +0.059 C 
ATOM     28  C   UNL     1       5.482   6.020  15.871  0.00  0.00    -0.025 C 
ATOM     29  C   UNL     1       5.565   4.927  14.834  0.00  0.00    -0.027 C 
ATOM     30  C   UNL     1       6.237   3.822  15.614  0.00  0.00    +0.048 C 
ATOM     31  O   UNL     1       7.185   4.463  16.489  0.00  0.00    -0.377 OA
ATOM     32  H   UNL     1       7.579   6.431  16.103  0.00  0.00    +0.060 HD
ATOM     33  H   UNL     1       5.363   7.019  15.439  0.00  0.00    +0.029 HD
ATOM     34  H   UNL     1       4.626   5.834  16.531  0.00  0.00    +0.029 HD
ATOM     35  H   UNL     1       6.208   5.247  14.006  0.00  0.00    +0.029 HD
ATOM     36  H   UNL     1       4.594   4.636  14.427  0.00  0.00    +0.029 HD
ATOM     37  H   UNL     1       6.756   3.102  14.974  0.00  0.00    +0.056 HD
ATOM     38  H   UNL     1       5.517   3.283  16.243  0.00  0.00    +0.056 HD
ENDBRANCH  24  27
ENDBRANCH  21  24
ENDBRANCH  18  21
ENDBRANCH   1  19
BRANCH   4  39
ATOM     39  C   UNL     1       1.566   9.732  19.862  0.00  0.00    -0.064 C 
ATOM     40  H   UNL     1       2.584   9.981  20.183  0.00  0.00    +0.011 HD
ATOM     41  H   UNL     1       1.377  10.253  18.915  0.00  0.00    +0.011 HD
BRANCH  39  42
ATOM     42  C   UNL     1       0.535  10.166  20.869  0.00  0.00    -0.064 A 
ATOM     43  C   UNL     1       0.497   9.581  22.147  0.00  0.00    -0.058 A 
ATOM     44  C   UNL     1      -0.448  10.001  23.086  0.00  0.00    -0.026 A 
ATOM     45  C   UNL     1      -1.349  11.005  22.755  0.00  0.00    +0.123 A 
ATOM     46  F   UNL     1      -2.249  11.408  23.660  0.00  0.00    -0.205 F 
ATOM     47  C   UNL     1      -1.332  11.592  21.497  0.00  0.00    -0.026 A 
ATOM     48  C   UNL     1      -0.393  11.173  20.552  0.00  0.00    -0.058 A 
ATOM     49  H   UNL     1       1.185   8.786  22.426  0.00  0.00    +0.062 HD
ATOM     50  H   UNL     1      -0.492   9.553  24.077  0.00  0.00    +0.065 HD
ATOM     51  H   UNL     1      -2.053  12.369  21.261  0.00  0.00    +0.065 HD
ATOM     52  H   UNL     1      -0.406  11.639  19.567  0.00  0.00    +0.062 HD
ENDBRANCH  39  42
ENDBRANCH   4  39
TORSDOF 6
ENDMDL
MODEL 8
REMARK VINA RESULT:    -6.190      4.720      7.460
REMARK INTER + INTRA:          -9.580
REMARK INTER:                  -9.894
REMARK INTRA:                   0.314
REMARK UNBOUND:                -1.219
REMARK  Name = 
REMARK  6 active torsions:
REMARK  status: ('A' for Active; 'I' for Inactive)
REMARK    1  A    between atoms: C_2  and  C_3
REMARK    2  A    between atoms: C_3  and  C_4
REMARK    3  A    between atoms: C_4  and  C_5
REMARK    4  A    between atoms: N_10  and  C_11
REMARK    5  A    between atoms: N_14  and  C_15
REMARK    6  A    between atoms: C_15  and  C_16
REMARK                            x       y       z     vdW  Elec       q    Type
REMARK                         _______ _______ _______ _____ _____    ______ ____
ROOT
ATOM      1  C   UNL     1       5.720   4.477  18.519  0.00  0.00    +0.020 C 
ATOM      2  C   UNL     1       4.937   5.273  19.566  0.00  0.00    -0.049 C 
ATOM      3  C   UNL     1       3.722   5.963  18.959  0.00  0.00    -0.089 C 
ATOM      4  N   UNL     1       4.137   6.849  17.811  0.00  0.00    +0.382 N 
ATOM      5  C   UNL     1       4.901   6.083  16.750  0.00  0.00    -0.089 C 
ATOM      6  C   UNL     1       6.115   5.425  17.380  0.00  0.00    -0.049 C 
ATOM      7  H   UNL     1       6.632   4.076  18.979  0.00  0.00    +0.050 HD
ATOM      8  H   UNL     1       4.609   4.616  20.379  0.00  0.00    +0.026 HD
ATOM      9  H   UNL     1       5.594   6.029  20.014  0.00  0.00    +0.026 HD
ATOM     10  H   UNL     1       3.239   6.602  19.705  0.00  0.00    +0.006 HD
ATOM     11  H   UNL     1       2.989   5.243  18.576  0.00  0.00    +0.006 HD
ATOM     12  H   UNL     1       4.770   7.571  18.177  0.00  0.00    -0.081 HD
ATOM     13  H   UNL     1       5.224   6.798  15.989  0.00  0.00    +0.006 HD
ATOM     14  H   UNL     1       4.216   5.356  16.300  0.00  0.00    +0.006 HD
ATOM     15  H   UNL     1       6.693   4.917  16.604  0.00  0.00    +0.026 HD
ATOM     16  H   UNL     1       6.777   6.203  17.782  0.00  0.00    +0.026 HD
ENDROOT
BRANCH   1  19
ATOM     17  O   UNL     1       4.854   2.295  20.148  0.00  0.00    -0.276 OA
ATOM     18  C   UNL     1       4.476   2.372  18.987  0.00  0.00    +0.213 C 
ATOM     19  N   UNL     1       4.935   3.322  18.090  0.00  0.00    -0.313 N 
ATOM     20  H   UNL     1       4.253   3.484  17.341  0.00  0.00    +0.149 HD
BRANCH  18  21
ATOM     21  C   UNL     1       3.456   1.423  18.396  0.00  0.00    +0.026 C 
ATOM     22  H   UNL     1       3.138   0.731  19.184  0.00  0.00    +0.036 HD
ATOM     23  H   UNL     1       3.942   0.807  17.630  0.00  0.00    +0.036 HD
BRANCH  21  24
ATOM     24  C   UNL     1       2.237   2.136  17.813  0.00  0.00    -0.018 C 
ATOM     25  H   UNL     1       2.615   2.985  17.228  0.00  0.00    +0.029 HD
ATOM     26  H   UNL     1       1.720   1.476  17.105  0.00  0.00    +0.029 HD
BRANCH  24  27
ATOM     27  C   UNL     1       1.223   2.637  18.845  0.00  0.00    +0.059 C 
ATOM     28  C   UNL     1       1.245   4.147  19.033  0.00  0.00    -0.025 C 
ATOM     29  C   UNL     1       0.822   4.289  20.474  0.00  0.00    -0.027 C 
ATOM     30  C   UNL     1       1.515   3.107  21.109  0.00  0.00    +0.048 C 
ATOM     31  O   UNL     1       1.470   2.043  20.140  0.00  0.00    -0.377 OA
ATOM     32  H   UNL     1       0.214   2.323  18.552  0.00  0.00    +0.060 HD
ATOM     33  H   UNL     1       0.584   4.670  18.334  0.00  0.00    +0.029 HD
ATOM     34  H   UNL     1       2.257   4.550  18.907  0.00  0.00    +0.029 HD
ATOM     35  H   UNL     1      -0.266   4.176  20.556  0.00  0.00    +0.029 HD
ATOM     36  H   UNL     1       1.106   5.244  20.921  0.00  0.00    +0.029 HD
ATOM     37  H   UNL     1       1.036   2.780  22.037  0.00  0.00    +0.056 HD
ATOM     38  H   UNL     1       2.570   3.326  21.313  0.00  0.00    +0.056 HD
ENDBRANCH  24  27
ENDBRANCH  21  24
ENDBRANCH  18  21
ENDBRANCH   1  19
BRANCH   4  39
ATOM     39  C   UNL     1       2.944   7.589  17.237  0.00  0.00    -0.064 C 
ATOM     40  H   UNL     1       3.317   8.253  16.450  0.00  0.00    +0.011 HD
ATOM     41  H   UNL     1       2.293   6.843  16.766  0.00  0.00    +0.011 HD
BRANCH  39  42
ATOM     42  C   UNL     1       2.153   8.335  18.278  0.00  0.00    -0.064 A 
ATOM     43  C   UNL     1       1.521   9.549  17.957  0.00  0.00    -0.058 A 
ATOM     44  C   UNL     1       0.771  10.229  18.919  0.00  0.00    -0.026 A 
ATOM     45  C   UNL     1       0.646   9.698  20.196  0.00  0.00    +0.123 A 
ATOM     46  F   UNL     1      -0.079  10.350  21.113  0.00  0.00    -0.205 F 
ATOM     47  C   UNL     1       1.267   8.503  20.536  0.00  0.00    -0.026 A 
ATOM     48  C   UNL     1       2.023   7.822  19.580  0.00  0.00    -0.058 A 
ATOM     49  H   UNL     1       1.613   9.990  16.967  0.00  0.00    +0.062 HD
ATOM     50  H   UNL     1       0.281  11.172  18.685  0.00  0.00    +0.065 HD
ATOM     51  H   UNL     1       1.159   8.114  21.545  0.00  0.00    +0.065 HD
ATOM     52  H   UNL     1       2.511   6.893  19.872  0.00  0.00    +0.062 HD
ENDBRANCH  39  42
ENDBRANCH   4  39
TORSDOF 6
ENDMDL
MODEL 9
REMARK VINA RESULT:    -6.106      5.235      8.560
REMARK INTER + INTRA:          -9.466
REMARK INTER:                  -8.448
REMARK INTRA:                  -1.018
REMARK UNBOUND:                -1.219
REMARK  Name = 
REMARK  6 active torsions:
REMARK  status: ('A' for Active; 'I' for Inactive)
REMARK    1  A    between atoms: C_2  and  C_3
REMARK    2  A    between atoms: C_3  and  C_4
REMARK    3  A    between atoms: C_4  and  C_5
REMARK    4  A    between atoms: N_10  and  C_11
REMARK    5  A    between atoms: N_14  and  C_15
REMARK    6  A    between atoms: C_15  and  C_16
REMARK                            x       y       z     vdW  Elec       q    Type
REMARK                         _______ _______ _______ _____ _____    ______ ____
ROOT
ATOM      1  C   UNL     1       3.747   6.331  18.101  0.00  0.00    +0.020 C 
ATOM      2  C   UNL     1       3.705   6.462  19.626  0.00  0.00    -0.049 C 
ATOM      3  C   UNL     1       2.346   6.947  20.114  0.00  0.00    -0.089 C 
ATOM      4  N   UNL     1       1.983   8.254  19.454  0.00  0.00    +0.382 N 
ATOM      5  C   UNL     1       2.001   8.149  17.942  0.00  0.00    -0.089 C 
ATOM      6  C   UNL     1       3.372   7.685  17.485  0.00  0.00    -0.049 C 
ATOM      7  H   UNL     1       4.766   6.071  17.790  0.00  0.00    +0.050 HD
ATOM      8  H   UNL     1       3.935   5.500  20.098  0.00  0.00    +0.026 HD
ATOM      9  H   UNL     1       4.478   7.169  19.952  0.00  0.00    +0.026 HD
ATOM     10  H   UNL     1       2.375   7.125  21.194  0.00  0.00    +0.006 HD
ATOM     11  H   UNL     1       1.549   6.228  19.891  0.00  0.00    +0.006 HD
ATOM     12  H   UNL     1       2.689   8.952  19.717  0.00  0.00    -0.081 HD
ATOM     13  H   UNL     1       1.795   9.143  17.537  0.00  0.00    +0.006 HD
ATOM     14  H   UNL     1       1.203   7.461  17.643  0.00  0.00    +0.006 HD
ATOM     15  H   UNL     1       3.398   7.661  16.394  0.00  0.00    +0.026 HD
ATOM     16  H   UNL     1       4.121   8.429  17.784  0.00  0.00    +0.026 HD
ENDROOT
BRANCH   1  19
ATOM     17  O   UNL     1       4.598   3.735  17.264  0.00  0.00    -0.276 OA
ATOM     18  C   UNL     1       3.404   3.969  17.394  0.00  0.00    +0.213 C 
ATOM     19  N   UNL     1       2.893   5.224  17.678  0.00  0.00    -0.313 N 
ATOM     20  H   UNL     1       1.974   5.157  18.129  0.00  0.00    +0.149 HD
BRANCH  18  21
ATOM     21  C   UNL     1       2.342   2.901  17.253  0.00  0.00    +0.026 C 
ATOM     22  H   UNL     1       2.800   1.933  17.491  0.00  0.00    +0.036 HD
ATOM     23  H   UNL     1       2.034   2.839  16.202  0.00  0.00    +0.036 HD
BRANCH  21  24
ATOM     24  C   UNL     1       1.129   3.134  18.152  0.00  0.00    -0.018 C 
ATOM     25  H   UNL     1       0.968   4.219  18.192  0.00  0.00    +0.029 HD
ATOM     26  H   UNL     1       0.232   2.703  17.690  0.00  0.00    +0.029 HD
BRANCH  24  27
ATOM     27  C   UNL     1       1.261   2.582  19.574  0.00  0.00    +0.059 C 
ATOM     28  C   UNL     1       1.090   3.642  20.654  0.00  0.00    -0.025 C 
ATOM     29  C   UNL     1       1.960   3.103  21.761  0.00  0.00    -0.027 C 
ATOM     30  C   UNL     1       3.118   2.525  20.982  0.00  0.00    +0.048 C 
ATOM     31  O   UNL     1       2.558   1.976  19.774  0.00  0.00    -0.377 OA
ATOM     32  H   UNL     1       0.523   1.786  19.730  0.00  0.00    +0.060 HD
ATOM     33  H   UNL     1       0.045   3.779  20.951  0.00  0.00    +0.029 HD
ATOM     34  H   UNL     1       1.477   4.614  20.324  0.00  0.00    +0.029 HD
ATOM     35  H   UNL     1       1.431   2.304  22.296  0.00  0.00    +0.029 HD
ATOM     36  H   UNL     1       2.266   3.861  22.486  0.00  0.00    +0.029 HD
ATOM     37  H   UNL     1       3.653   1.743  21.529  0.00  0.00    +0.056 HD
ATOM     38  H   UNL     1       3.831   3.306  20.691  0.00  0.00    +0.056 HD
ENDBRANCH  24  27
ENDBRANCH  21  24
ENDBRANCH  18  21
ENDBRANCH   1  19
BRANCH   4  39
ATOM     39  C   UNL     1       0.660   8.777  19.978  0.00  0.00    -0.064 C 
ATOM     40  H   UNL     1      -0.110   8.044  19.716  0.00  0.00    +0.011 HD
ATOM     41  H   UNL     1       0.733   8.811  21.072  0.00  0.00    +0.011 HD
BRANCH  39  42
ATOM     42  C   UNL     1       0.324  10.154  19.470  0.00  0.00    -0.064 A 
ATOM     43  C   UNL     1      -0.889  10.390  18.800  0.00  0.00    -0.058 A 
ATOM     44  C   UNL     1      -1.207  11.672  18.348  0.00  0.00    -0.026 A 
ATOM     45  C   UNL     1      -0.321  12.720  18.569  0.00  0.00    +0.123 A 
ATOM     46  F   UNL     1      -0.632  13.948  18.140  0.00  0.00    -0.205 F 
ATOM     47  C   UNL     1       0.885  12.507  19.224  0.00  0.00    -0.026 A 
ATOM     48  C   UNL     1       1.211  11.226  19.673  0.00  0.00    -0.058 A 
ATOM     49  H   UNL     1      -1.593   9.584  18.606  0.00  0.00    +0.062 HD
ATOM     50  H   UNL     1      -2.140  11.868  17.823  0.00  0.00    +0.065 HD
ATOM     51  H   UNL     1       1.563  13.342  19.377  0.00  0.00    +0.065 HD
ATOM     52  H   UNL     1       2.167  11.080  20.174  0.00  0.00    +0.062 HD
ENDBRANCH  39  42
ENDBRANCH   4  39
TORSDOF 6
ENDMDL
MODEL 10
REMARK VINA RESULT:    -6.023      5.602      8.964
REMARK INTER + INTRA:          -9.354
REMARK INTER:                  -8.561
REMARK INTRA:                  -0.793
REMARK UNBOUND:                -1.219
REMARK  Name = 
REMARK  6 active torsions:
REMARK  status: ('A' for Active; 'I' for Inactive)
REMARK    1  A    between atoms: C_2  and  C_3
REMARK    2  A    between atoms: C_3  and  C_4
REMARK    3  A    between atoms: C_4  and  C_5
REMARK    4  A    between atoms: N_10  and  C_11
REMARK    5  A    between atoms: N_14  and  C_15
REMARK    6  A    between atoms: C_15  and  C_16
REMARK                            x       y       z     vdW  Elec       q    Type
REMARK                         _______ _______ _______ _____ _____    ______ ____
ROOT
ATOM      1  C   UNL     1       2.813   7.373  18.700  0.00  0.00    +0.020 C 
ATOM      2  C   UNL     1       2.384   7.642  20.145  0.00  0.00    -0.049 C 
ATOM      3  C   UNL     1       0.974   8.212  20.220  0.00  0.00    -0.089 C 
ATOM      4  N   UNL     1       0.866   9.464  19.386  0.00  0.00    +0.382 N 
ATOM      5  C   UNL     1       1.268   9.223  17.945  0.00  0.00    -0.089 C 
ATOM      6  C   UNL     1       2.683   8.676  17.902  0.00  0.00    -0.049 C 
ATOM      7  H   UNL     1       3.862   7.053  18.689  0.00  0.00    +0.050 HD
ATOM      8  H   UNL     1       2.433   6.720  20.736  0.00  0.00    +0.026 HD
ATOM      9  H   UNL     1       3.085   8.351  20.605  0.00  0.00    +0.026 HD
ATOM     10  H   UNL     1       0.733   8.486  21.252  0.00  0.00    +0.006 HD
ATOM     11  H   UNL     1       0.224   7.502  19.853  0.00  0.00    +0.006 HD
ATOM     12  H   UNL     1       1.517  10.161  19.769  0.00  0.00    -0.081 HD
ATOM     13  H   UNL     1       1.229  10.182  17.422  0.00  0.00    +0.006 HD
ATOM     14  H   UNL     1       0.539   8.536  17.502  0.00  0.00    +0.006 HD
ATOM     15  H   UNL     1       2.990   8.553  16.861  0.00  0.00    +0.026 HD
ATOM     16  H   UNL     1       3.369   9.420  18.327  0.00  0.00    +0.026 HD
ENDROOT
BRANCH   1  19
ATOM     17  O   UNL     1       3.839   4.910  17.678  0.00  0.00    -0.276 OA
ATOM     18  C   UNL     1       2.631   5.064  17.786  0.00  0.00    +0.213 C 
ATOM     19  N   UNL     1       2.038   6.259  18.157  0.00  0.00    -0.313 N 
ATOM     20  H   UNL     1       1.112   6.102  18.569  0.00  0.00    +0.149 HD
BRANCH  18  21
ATOM     21  C   UNL     1       1.638   3.953  17.519  0.00  0.00    +0.026 C 
ATOM     22  H   UNL     1       1.343   4.007  16.464  0.00  0.00    +0.036 HD
ATOM     23  H   UNL     1       0.726   4.140  18.098  0.00  0.00    +0.036 HD
BRANCH  21  24
ATOM     24  C   UNL     1       2.192   2.563  17.830  0.00  0.00    -0.018 C 
ATOM     25  H   UNL     1       1.692   1.863  17.148  0.00  0.00    +0.029 HD
ATOM     26  H   UNL     1       3.262   2.524  17.587  0.00  0.00    +0.029 HD
BRANCH  24  27
ATOM     27  C   UNL     1       2.000   2.097  19.275  0.00  0.00    +0.059 C 
ATOM     28  C   UNL     1       0.864   2.809  19.996  0.00  0.00    -0.025 C 
ATOM     29  C   UNL     1       1.340   2.787  21.427  0.00  0.00    -0.027 C 
ATOM     30  C   UNL     1       2.824   3.009  21.255  0.00  0.00    +0.048 C 
ATOM     31  O   UNL     1       3.200   2.314  20.051  0.00  0.00    -0.377 OA
ATOM     32  H   UNL     1       1.816   1.016  19.291  0.00  0.00    +0.060 HD
ATOM     33  H   UNL     1      -0.103   2.317  19.853  0.00  0.00    +0.029 HD
ATOM     34  H   UNL     1       0.767   3.848  19.658  0.00  0.00    +0.029 HD
ATOM     35  H   UNL     1       1.156   1.799  21.866  0.00  0.00    +0.029 HD
ATOM     36  H   UNL     1       0.863   3.541  22.058  0.00  0.00    +0.029 HD
ATOM     37  H   UNL     1       3.412   2.633  22.097  0.00  0.00    +0.056 HD
ATOM     38  H   UNL     1       3.053   4.072  21.110  0.00  0.00    +0.056 HD
ENDBRANCH  24  27
ENDBRANCH  21  24
ENDBRANCH  18  21
ENDBRANCH   1  19
BRANCH   4  39
ATOM     39  C   UNL     1      -0.517  10.075  19.501  0.00  0.00    -0.064 C 
ATOM     40  H   UNL     1      -0.750  10.545  18.539  0.00  0.00    +0.011 HD
ATOM     41  H   UNL     1      -1.226   9.252  19.653  0.00  0.00    +0.011 HD
BRANCH  39  42
ATOM     42  C   UNL     1      -0.644  11.044  20.647  0.00  0.00    -0.064 A 
ATOM     43  C   UNL     1      -0.481  12.424  20.435  0.00  0.00    -0.058 A 
ATOM     44  C   UNL     1      -0.620  13.321  21.496  0.00  0.00    -0.026 A 
ATOM     45  C   UNL     1      -0.926  12.845  22.765  0.00  0.00    +0.123 A 
ATOM     46  F   UNL     1      -1.064  13.709  23.777  0.00  0.00    -0.205 F 
ATOM     47  C   UNL     1      -1.085  11.485  22.997  0.00  0.00    -0.026 A 
ATOM     48  C   UNL     1      -0.942  10.583  21.941  0.00  0.00    -0.058 A 
ATOM     49  H   UNL     1      -0.231  12.819  19.453  0.00  0.00    +0.062 HD
ATOM     50  H   UNL     1      -0.492  14.391  21.347  0.00  0.00    +0.065 HD
ATOM     51  H   UNL     1      -1.316  11.139  24.001  0.00  0.00    +0.065 HD
ATOM     52  H   UNL     1      -1.059   9.520  22.149  0.00  0.00    +0.062 HD
ENDBRANCH  39  42
ENDBRANCH   4  39
TORSDOF 6
ENDMDL
MODEL 11
REMARK VINA RESULT:    -5.998      4.501      8.009
REMARK INTER + INTRA:          -9.321
REMARK INTER:                  -9.178
REMARK INTRA:                  -0.143
REMARK UNBOUND:                -1.219
REMARK  Name = 
REMARK  6 active torsions:
REMARK  status: ('A' for Active; 'I' for Inactive)
REMARK    1  A    between atoms: C_2  and  C_3
REMARK    2  A    between atoms: C_3  and  C_4
REMARK    3  A    between atoms: C_4  and  C_5
REMARK    4  A    between atoms: N_10  and  C_11
REMARK    5  A    between atoms: N_14  and  C_15
REMARK    6  A    between atoms: C_15  and  C_16
REMARK                            x       y       z     vdW  Elec       q    Type
REMARK                         _______ _______ _______ _____ _____    ______ ____
ROOT
ATOM      1  C   UNL     1       5.064   5.935  18.617  0.00  0.00    +0.020 C 
ATOM      2  C   UNL     1       5.147   6.959  17.482  0.00  0.00    -0.049 C 
ATOM      3  C   UNL     1       5.837   6.385  16.251  0.00  0.00    -0.089 C 
ATOM      4  N   UNL     1       7.209   5.868  16.608  0.00  0.00    +0.382 N 
ATOM      5  C   UNL     1       7.156   4.839  17.719  0.00  0.00    -0.089 C 
ATOM      6  C   UNL     1       6.482   5.446  18.937  0.00  0.00    -0.049 C 
ATOM      7  H   UNL     1       4.646   6.418  19.508  0.00  0.00    +0.050 HD
ATOM      8  H   UNL     1       4.144   7.304  17.205  0.00  0.00    +0.026 HD
ATOM      9  H   UNL     1       5.701   7.841  17.828  0.00  0.00    +0.026 HD
ATOM     10  H   UNL     1       5.969   7.166  15.495  0.00  0.00    +0.006 HD
ATOM     11  H   UNL     1       5.271   5.555  15.813  0.00  0.00    +0.006 HD
ATOM     12  H   UNL     1       7.768   6.658  16.954  0.00  0.00    -0.081 HD
ATOM     13  H   UNL     1       8.184   4.563  17.967  0.00  0.00    +0.006 HD
ATOM     14  H   UNL     1       6.622   3.961  17.339  0.00  0.00    +0.006 HD
ATOM     15  H   UNL     1       6.493   4.720  19.753  0.00  0.00    +0.026 HD
ATOM     16  H   UNL     1       7.079   6.298  19.289  0.00  0.00    +0.026 HD
ENDROOT
BRANCH   1  19
ATOM     17  O   UNL     1       2.228   6.158  18.349  0.00  0.00    -0.276 OA
ATOM     18  C   UNL     1       2.786   5.112  18.045  0.00  0.00    +0.213 C 
ATOM     19  N   UNL     1       4.133   4.870  18.252  0.00  0.00    -0.313 N 
ATOM     20  H   UNL     1       4.485   4.156  17.605  0.00  0.00    +0.149 HD
BRANCH  18  21
ATOM     21  C   UNL     1       2.053   3.953  17.406  0.00  0.00    +0.026 C 
ATOM     22  H   UNL     1       2.104   4.077  16.317  0.00  0.00    +0.036 HD
ATOM     23  H   UNL     1       0.990   4.012  17.668  0.00  0.00    +0.036 HD
BRANCH  21  24
ATOM     24  C   UNL     1       2.624   2.590  17.797  0.00  0.00    -0.018 C 
ATOM     25  H   UNL     1       2.266   1.870  17.050  0.00  0.00    +0.029 HD
ATOM     26  H   UNL     1       3.718   2.605  17.716  0.00  0.00    +0.029 HD
BRANCH  24  27
ATOM     27  C   UNL     1       2.243   2.107  19.199  0.00  0.00    +0.059 C 
ATOM     28  C   UNL     1       0.968   2.743  19.735  0.00  0.00    -0.025 C 
ATOM     29  C   UNL     1       1.221   2.745  21.222  0.00  0.00    -0.027 C 
ATOM     30  C   UNL     1       2.697   3.061  21.277  0.00  0.00    +0.048 C 
ATOM     31  O   UNL     1       3.295   2.396  20.148  0.00  0.00    -0.377 OA
ATOM     32  H   UNL     1       2.128   1.016  19.193  0.00  0.00    +0.060 HD
ATOM     33  H   UNL     1       0.067   2.191  19.449  0.00  0.00    +0.029 HD
ATOM     34  H   UNL     1       0.858   3.775  19.380  0.00  0.00    +0.029 HD
ATOM     35  H   UNL     1       1.035   1.745  21.633  0.00  0.00    +0.029 HD
ATOM     36  H   UNL     1       0.607   3.465  21.768  0.00  0.00    +0.029 HD
ATOM     37  H   UNL     1       3.172   2.719  22.201  0.00  0.00    +0.056 HD
ATOM     38  H   UNL     1       2.878   4.137  21.162  0.00  0.00    +0.056 HD
ENDBRANCH  24  27
ENDBRANCH  21  24
ENDBRANCH  18  21
ENDBRANCH   1  19
BRANCH   4  39
ATOM     39  C   UNL     1       7.930   5.350  15.380  0.00  0.00    -0.064 C 
ATOM     40  H   UNL     1       8.432   6.203  14.910  0.00  0.00    +0.011 HD
ATOM     41  H   UNL     1       8.704   4.654  15.724  0.00  0.00    +0.011 HD
BRANCH  39  42
ATOM     42  C   UNL     1       7.022   4.631  14.418  0.00  0.00    -0.064 A 
ATOM     43  C   UNL     1       5.861   3.988  14.880  0.00  0.00    -0.058 A 
ATOM     44  C   UNL     1       5.010   3.339  13.983  0.00  0.00    -0.026 A 
ATOM     45  C   UNL     1       5.313   3.334  12.627  0.00  0.00    +0.123 A 
ATOM     46  F   UNL     1       4.493   2.716  11.770  0.00  0.00    -0.205 F 
ATOM     47  C   UNL     1       6.459   3.958  12.150  0.00  0.00    -0.026 A 
ATOM     48  C   UNL     1       7.316   4.604  13.044  0.00  0.00    -0.058 A 
ATOM     49  H   UNL     1       5.608   3.969  15.938  0.00  0.00    +0.062 HD
ATOM     50  H   UNL     1       4.110   2.833  14.328  0.00  0.00    +0.065 HD
ATOM     51  H   UNL     1       6.676   3.932  11.086  0.00  0.00    +0.065 HD
ATOM     52  H   UNL     1       8.215   5.076  12.649  0.00  0.00    +0.062 HD
ENDBRANCH  39  42
ENDBRANCH   4  39
TORSDOF 6
ENDMDL
MODEL 12
REMARK VINA RESULT:    -5.896      4.519      5.977
REMARK INTER + INTRA:          -9.183
REMARK INTER:                  -8.536
REMARK INTRA:                  -0.647
REMARK UNBOUND:                -1.219
REMARK  Name = 
REMARK  6 active torsions:
REMARK  status: ('A' for Active; 'I' for Inactive)
REMARK    1  A    between atoms: C_2  and  C_3
REMARK    2  A    between atoms: C_3  and  C_4
REMARK    3  A    between atoms: C_4  and  C_5
REMARK    4  A    between atoms: N_10  and  C_11
REMARK    5  A    between atoms: N_14  and  C_15
REMARK    6  A    between atoms: C_15  and  C_16
REMARK                            x       y       z     vdW  Elec       q    Type
REMARK                         _______ _______ _______ _____ _____    ______ ____
ROOT
ATOM      1  C   UNL     1       0.425  10.841  19.295  0.00  0.00    +0.020 C 
ATOM      2  C   UNL     1       0.356  10.014  20.582  0.00  0.00    -0.049 C 
ATOM      3  C   UNL     1       1.493   9.004  20.667  0.00  0.00    -0.089 C 
ATOM      4  N   UNL     1       1.493   8.107  19.453  0.00  0.00    +0.382 N 
ATOM      5  C   UNL     1       1.578   8.898  18.164  0.00  0.00    -0.089 C 
ATOM      6  C   UNL     1       0.423   9.881  18.099  0.00  0.00    -0.049 C 
ATOM      7  H   UNL     1      -0.459  11.486  19.233  0.00  0.00    +0.050 HD
ATOM      8  H   UNL     1       0.391  10.671  21.459  0.00  0.00    +0.026 HD
ATOM      9  H   UNL     1      -0.603   9.483  20.621  0.00  0.00    +0.026 HD
ATOM     10  H   UNL     1       1.363   8.363  21.545  0.00  0.00    +0.006 HD
ATOM     11  H   UNL     1       2.473   9.492  20.721  0.00  0.00    +0.006 HD
ATOM     12  H   UNL     1       0.604   7.593  19.435  0.00  0.00    -0.081 HD
ATOM     13  H   UNL     1       1.506   8.191  17.333  0.00  0.00    +0.006 HD
ATOM     14  H   UNL     1       2.554   9.396  18.137  0.00  0.00    +0.006 HD
ATOM     15  H   UNL     1       0.456  10.412  17.145  0.00  0.00    +0.026 HD
ATOM     16  H   UNL     1      -0.523   9.323  18.095  0.00  0.00    +0.026 HD
ENDROOT
BRANCH   1  19
ATOM     17  O   UNL     1       0.544  13.544  18.376  0.00  0.00    -0.276 OA
ATOM     18  C   UNL     1       1.500  13.062  18.968  0.00  0.00    +0.213 C 
ATOM     19  N   UNL     1       1.582  11.732  19.343  0.00  0.00    -0.313 N 
ATOM     20  H   UNL     1       2.222  11.609  20.136  0.00  0.00    +0.149 HD
BRANCH  18  21
ATOM     21  C   UNL     1       2.716  13.876  19.354  0.00  0.00    +0.026 C 
ATOM     22  H   UNL     1       3.267  13.321  20.123  0.00  0.00    +0.036 HD
ATOM     23  H   UNL     1       2.387  14.807  19.830  0.00  0.00    +0.036 HD
BRANCH  21  24
ATOM     24  C   UNL     1       3.639  14.178  18.174  0.00  0.00    -0.018 C 
ATOM     25  H   UNL     1       4.042  13.215  17.834  0.00  0.00    +0.029 HD
ATOM     26  H   UNL     1       3.057  14.584  17.338  0.00  0.00    +0.029 HD
BRANCH  24  27
ATOM     27  C   UNL     1       4.791  15.137  18.481  0.00  0.00    +0.059 C 
ATOM     28  C   UNL     1       6.120  14.702  17.877  0.00  0.00    -0.025 C 
ATOM     29  C   UNL     1       7.111  15.266  18.864  0.00  0.00    -0.027 C 
ATOM     30  C   UNL     1       6.391  15.047  20.174  0.00  0.00    +0.048 C 
ATOM     31  O   UNL     1       4.993  15.262  19.908  0.00  0.00    -0.377 OA
ATOM     32  H   UNL     1       4.541  16.141  18.118  0.00  0.00    +0.060 HD
ATOM     33  H   UNL     1       6.263  15.074  16.858  0.00  0.00    +0.029 HD
ATOM     34  H   UNL     1       6.208  13.609  17.853  0.00  0.00    +0.029 HD
ATOM     35  H   UNL     1       7.246  16.340  18.685  0.00  0.00    +0.029 HD
ATOM     36  H   UNL     1       8.090  14.782  18.826  0.00  0.00    +0.029 HD
ATOM     37  H   UNL     1       6.725  15.727  20.963  0.00  0.00    +0.056 HD
ATOM     38  H   UNL     1       6.508  14.013  20.524  0.00  0.00    +0.056 HD
ENDBRANCH  24  27
ENDBRANCH  21  24
ENDBRANCH  18  21
ENDBRANCH   1  19
BRANCH   4  39
ATOM     39  C   UNL     1       2.582   7.057  19.556  0.00  0.00    -0.064 C 
ATOM     40  H   UNL     1       3.365   7.325  18.837  0.00  0.00    +0.011 HD
ATOM     41  H   UNL     1       3.013   7.130  20.562  0.00  0.00    +0.011 HD
BRANCH  39  42
ATOM     42  C   UNL     1       2.077   5.655  19.343  0.00  0.00    -0.064 A 
ATOM     43  C   UNL     1       2.188   5.041  18.084  0.00  0.00    -0.058 A 
ATOM     44  C   UNL     1       1.737   3.733  17.896  0.00  0.00    -0.026 A 
ATOM     45  C   UNL     1       1.181   3.036  18.961  0.00  0.00    +0.123 A 
ATOM     46  F   UNL     1       0.755   1.781  18.778  0.00  0.00    -0.205 F 
ATOM     47  C   UNL     1       1.056   3.627  20.212  0.00  0.00    -0.026 A 
ATOM     48  C   UNL     1       1.500   4.937  20.405  0.00  0.00    -0.058 A 
ATOM     49  H   UNL     1       2.610   5.569  17.232  0.00  0.00    +0.062 HD
ATOM     50  H   UNL     1       1.812   3.247  16.925  0.00  0.00    +0.065 HD
ATOM     51  H   UNL     1       0.610   3.062  21.026  0.00  0.00    +0.065 HD
ATOM     52  H   UNL     1       1.382   5.384  21.391  0.00  0.00    +0.062 HD
ENDBRANCH  39  42
ENDBRANCH   4  39
TORSDOF 6
ENDMDL
MODEL 13
REMARK VINA RESULT:    -5.865      5.074      8.141
REMARK INTER + INTRA:          -9.141
REMARK INTER:                  -8.571
REMARK INTRA:                  -0.569
REMARK UNBOUND:                -1.219
REMARK  Name = 
REMARK  6 active torsions:
REMARK  status: ('A' for Active; 'I' for Inactive)
REMARK    1  A    between atoms: C_2  and  C_3
REMARK    2  A    between atoms: C_3  and  C_4
REMARK    3  A    between atoms: C_4  and  C_5
REMARK    4  A    between atoms: N_10  and  C_11
REMARK    5  A    between atoms: N_14  and  C_15
REMARK    6  A    between atoms: C_15  and  C_16
REMARK                            x       y       z     vdW  Elec       q    Type
REMARK                         _______ _______ _______ _____ _____    ______ ____
ROOT
ATOM      1  C   UNL     1       3.853   6.234  17.910  0.00  0.00    +0.020 C 
ATOM      2  C   UNL     1       4.254   6.093  19.382  0.00  0.00    -0.049 C 
ATOM      3  C   UNL     1       3.041   6.124  20.303  0.00  0.00    -0.089 C 
ATOM      4  N   UNL     1       2.242   7.384  20.082  0.00  0.00    +0.382 N 
ATOM      5  C   UNL     1       1.817   7.541  18.636  0.00  0.00    -0.089 C 
ATOM      6  C   UNL     1       3.047   7.528  17.746  0.00  0.00    -0.049 C 
ATOM      7  H   UNL     1       4.759   6.300  17.296  0.00  0.00    +0.050 HD
ATOM      8  H   UNL     1       4.804   5.159  19.540  0.00  0.00    +0.026 HD
ATOM      9  H   UNL     1       4.933   6.911  19.653  0.00  0.00    +0.026 HD
ATOM     10  H   UNL     1       3.363   6.120  21.350  0.00  0.00    +0.006 HD
ATOM     11  H   UNL     1       2.373   5.271  20.131  0.00  0.00    +0.006 HD
ATOM     12  H   UNL     1       2.841   8.187  20.310  0.00  0.00    -0.081 HD
ATOM     13  H   UNL     1       1.305   8.502  18.541  0.00  0.00    +0.006 HD
ATOM     14  H   UNL     1       1.120   6.730  18.400  0.00  0.00    +0.006 HD
ATOM     15  H   UNL     1       2.742   7.694  16.710  0.00  0.00    +0.026 HD
ATOM     16  H   UNL     1       3.688   8.380  18.008  0.00  0.00    +0.026 HD
ENDROOT
BRANCH   1  19
ATOM     17  O   UNL     1       5.021   3.716  17.231  0.00  0.00    -0.276 OA
ATOM     18  C   UNL     1       3.804   3.828  17.274  0.00  0.00    +0.213 C 
ATOM     19  N   UNL     1       3.148   5.031  17.475  0.00  0.00    -0.313 N 
ATOM     20  H   UNL     1       2.212   4.881  17.867  0.00  0.00    +0.149 HD
BRANCH  18  21
ATOM     21  C   UNL     1       2.869   2.650  17.104  0.00  0.00    +0.026 C 
ATOM     22  H   UNL     1       3.388   1.751  17.460  0.00  0.00    +0.036 HD
ATOM     23  H   UNL     1       2.685   2.490  16.036  0.00  0.00    +0.036 HD
BRANCH  21  24
ATOM     24  C   UNL     1       1.549   2.815  17.855  0.00  0.00    -0.018 C 
ATOM     25  H   UNL     1       1.327   3.890  17.874  0.00  0.00    +0.029 HD
ATOM     26  H   UNL     1       0.736   2.340  17.292  0.00  0.00    +0.029 HD
BRANCH  24  27
ATOM     27  C   UNL     1       1.542   2.265  19.284  0.00  0.00    +0.059 C 
ATOM     28  C   UNL     1       0.908   3.210  20.295  0.00  0.00    -0.025 C 
ATOM     29  C   UNL     1       1.659   2.867  21.557  0.00  0.00    -0.027 C 
ATOM     30  C   UNL     1       3.051   2.624  21.024  0.00  0.00    +0.048 C 
ATOM     31  O   UNL     1       2.887   1.994  19.739  0.00  0.00    -0.377 OA
ATOM     32  H   UNL     1       1.012   1.305  19.305  0.00  0.00    +0.060 HD
ATOM     33  H   UNL     1      -0.174   3.072  20.383  0.00  0.00    +0.029 HD
ATOM     34  H   UNL     1       1.094   4.259  20.031  0.00  0.00    +0.029 HD
ATOM     35  H   UNL     1       1.256   1.944  21.991  0.00  0.00    +0.029 HD
ATOM     36  H   UNL     1       1.621   3.652  22.316  0.00  0.00    +0.029 HD
ATOM     37  H   UNL     1       3.651   1.982  21.675  0.00  0.00    +0.056 HD
ATOM     38  H   UNL     1       3.587   3.568  20.865  0.00  0.00    +0.056 HD
ENDBRANCH  24  27
ENDBRANCH  21  24
ENDBRANCH  18  21
ENDBRANCH   1  19
BRANCH   4  39
ATOM     39  C   UNL     1       1.066   7.455  21.037  0.00  0.00    -0.064 C 
ATOM     40  H   UNL     1       0.263   6.841  20.615  0.00  0.00    +0.011 HD
ATOM     41  H   UNL     1       1.382   6.991  21.979  0.00  0.00    +0.011 HD
BRANCH  39  42
ATOM     42  C   UNL     1       0.612   8.863  21.317  0.00  0.00    -0.064 A 
ATOM     43  C   UNL     1      -0.227   9.137  22.410  0.00  0.00    -0.058 A 
ATOM     44  C   UNL     1      -0.630  10.447  22.679  0.00  0.00    -0.026 A 
ATOM     45  C   UNL     1      -0.193  11.483  21.863  0.00  0.00    +0.123 A 
ATOM     46  F   UNL     1      -0.576  12.737  22.127  0.00  0.00    -0.205 F 
ATOM     47  C   UNL     1       0.632  11.233  20.774  0.00  0.00    -0.026 A 
ATOM     48  C   UNL     1       1.034   9.924  20.497  0.00  0.00    -0.058 A 
ATOM     49  H   UNL     1      -0.591   8.341  23.057  0.00  0.00    +0.062 HD
ATOM     50  H   UNL     1      -1.284  10.672  23.519  0.00  0.00    +0.065 HD
ATOM     51  H   UNL     1       0.953  12.060  20.147  0.00  0.00    +0.065 HD
ATOM     52  H   UNL     1       1.671   9.750  19.631  0.00  0.00    +0.062 HD
ENDBRANCH  39  42
ENDBRANCH   4  39
TORSDOF 6
ENDMDL
MODEL 14
REMARK VINA RESULT:    -5.851      5.184      6.640
REMARK INTER + INTRA:          -9.122
REMARK INTER:                  -8.414
REMARK INTRA:                  -0.708
REMARK UNBOUND:                -1.219
REMARK  Name = 
REMARK  6 active torsions:
REMARK  status: ('A' for Active; 'I' for Inactive)
REMARK    1  A    between atoms: C_2  and  C_3
REMARK    2  A    between atoms: C_3  and  C_4
REMARK    3  A    between atoms: C_4  and  C_5
REMARK    4  A    between atoms: N_10  and  C_11
REMARK    5  A    between atoms: N_14  and  C_15
REMARK    6  A    between atoms: C_15  and  C_16
REMARK                            x       y       z     vdW  Elec       q    Type
REMARK                         _______ _______ _______ _____ _____    ______ ____
ROOT
ATOM      1  C   UNL     1      -0.209  10.678  20.379  0.00  0.00    +0.020 C 
ATOM      2  C   UNL     1      -0.169   9.519  21.380  0.00  0.00    -0.049 C 
ATOM      3  C   UNL     1       1.100   8.689  21.233  0.00  0.00    -0.089 C 
ATOM      4  N   UNL     1       1.239   8.182  19.820  0.00  0.00    +0.382 N 
ATOM      5  C   UNL     1       1.220   9.310  18.808  0.00  0.00    -0.089 C 
ATOM      6  C   UNL     1      -0.064  10.105  18.964  0.00  0.00    -0.049 C 
ATOM      7  H   UNL     1      -1.176  11.188  20.457  0.00  0.00    +0.050 HD
ATOM      8  H   UNL     1      -0.236   9.899  22.405  0.00  0.00    +0.026 HD
ATOM      9  H   UNL     1      -1.042   8.874  21.222  0.00  0.00    +0.026 HD
ATOM     10  H   UNL     1       1.056   7.815  21.891  0.00  0.00    +0.006 HD
ATOM     11  H   UNL     1       1.999   9.270  21.470  0.00  0.00    +0.006 HD
ATOM     12  H   UNL     1       0.433   7.579  19.616  0.00  0.00    -0.081 HD
ATOM     13  H   UNL     1       1.257   8.864  17.811  0.00  0.00    +0.006 HD
ATOM     14  H   UNL     1       2.114   9.921  18.968  0.00  0.00    +0.006 HD
ATOM     15  H   UNL     1      -0.100  10.883  18.199  0.00  0.00    +0.026 HD
ATOM     16  H   UNL     1      -0.920   9.448  18.759  0.00  0.00    +0.026 HD
ENDROOT
BRANCH   1  19
ATOM     17  O   UNL     1      -0.355  13.502  19.971  0.00  0.00    -0.276 OA
ATOM     18  C   UNL     1       0.590  13.026  20.586  0.00  0.00    +0.213 C 
ATOM     19  N   UNL     1       0.808  11.667  20.730  0.00  0.00    -0.313 N 
ATOM     20  H   UNL     1       1.371  11.468  21.564  0.00  0.00    +0.149 HD
BRANCH  18  21
ATOM     21  C   UNL     1       1.639  13.883  21.261  0.00  0.00    +0.026 C 
ATOM     22  H   UNL     1       1.675  13.604  22.321  0.00  0.00    +0.036 HD
ATOM     23  H   UNL     1       1.318  14.930  21.235  0.00  0.00    +0.036 HD
BRANCH  21  24
ATOM     24  C   UNL     1       3.028  13.734  20.641  0.00  0.00    -0.018 C 
ATOM     25  H   UNL     1       3.746  13.722  21.471  0.00  0.00    +0.029 HD
ATOM     26  H   UNL     1       3.112  12.761  20.141  0.00  0.00    +0.029 HD
BRANCH  24  27
ATOM     27  C   UNL     1       3.413  14.832  19.646  0.00  0.00    +0.059 C 
ATOM     28  C   UNL     1       2.847  14.611  18.250  0.00  0.00    -0.025 C 
ATOM     29  C   UNL     1       3.891  15.267  17.381  0.00  0.00    -0.027 C 
ATOM     30  C   UNL     1       5.163  14.896  18.107  0.00  0.00    +0.048 C 
ATOM     31  O   UNL     1       4.850  14.925  19.512  0.00  0.00    -0.377 OA
ATOM     32  H   UNL     1       3.077  15.805  20.023  0.00  0.00    +0.060 HD
ATOM     33  H   UNL     1       1.847  15.040  18.126  0.00  0.00    +0.029 HD
ATOM     34  H   UNL     1       2.787  13.543  18.008  0.00  0.00    +0.029 HD
ATOM     35  H   UNL     1       3.755  16.355  17.393  0.00  0.00    +0.029 HD
ATOM     36  H   UNL     1       3.873  14.926  16.344  0.00  0.00    +0.029 HD
ATOM     37  H   UNL     1       5.988  15.584  17.899  0.00  0.00    +0.056 HD
ATOM     38  H   UNL     1       5.480  13.876  17.859  0.00  0.00    +0.056 HD
ENDBRANCH  24  27
ENDBRANCH  21  24
ENDBRANCH  18  21
ENDBRANCH   1  19
BRANCH   4  39
ATOM     39  C   UNL     1       2.466   7.303  19.677  0.00  0.00    -0.064 C 
ATOM     40  H   UNL     1       3.082   7.726  18.875  0.00  0.00    +0.011 HD
ATOM     41  H   UNL     1       3.035   7.382  20.612  0.00  0.00    +0.011 HD
BRANCH  39  42
ATOM     42  C   UNL     1       2.135   5.856  19.431  0.00  0.00    -0.064 A 
ATOM     43  C   UNL     1       1.619   5.057  20.466  0.00  0.00    -0.058 A 
ATOM     44  C   UNL     1       1.293   3.720  20.229  0.00  0.00    -0.026 A 
ATOM     45  C   UNL     1       1.476   3.181  18.962  0.00  0.00    +0.123 A 
ATOM     46  F   UNL     1       1.157   1.901  18.737  0.00  0.00    -0.205 F 
ATOM     47  C   UNL     1       1.990   3.951  17.927  0.00  0.00    -0.026 A 
ATOM     48  C   UNL     1       2.323   5.287  18.159  0.00  0.00    -0.058 A 
ATOM     49  H   UNL     1       1.476   5.453  21.469  0.00  0.00    +0.062 HD
ATOM     50  H   UNL     1       0.897   3.089  21.023  0.00  0.00    +0.065 HD
ATOM     51  H   UNL     1       2.130   3.502  16.947  0.00  0.00    +0.065 HD
ATOM     52  H   UNL     1       2.736   5.869  17.336  0.00  0.00    +0.062 HD
ENDBRANCH  39  42
ENDBRANCH   4  39
TORSDOF 6
ENDMDL
MODEL 15
REMARK VINA RESULT:    -5.772      6.188      7.411
REMARK INTER + INTRA:          -9.016
REMARK INTER:                  -8.201
REMARK INTRA:                  -0.815
REMARK UNBOUND:                -1.219
REMARK  Name = 
REMARK  6 active torsions:
REMARK  status: ('A' for Active; 'I' for Inactive)
REMARK    1  A    between atoms: C_2  and  C_3
REMARK    2  A    between atoms: C_3  and  C_4
REMARK    3  A    between atoms: C_4  and  C_5
REMARK    4  A    between atoms: N_10  and  C_11
REMARK    5  A    between atoms: N_14  and  C_15
REMARK    6  A    between atoms: C_15  and  C_16
REMARK                            x       y       z     vdW  Elec       q    Type
REMARK                         _______ _______ _______ _____ _____    ______ ____
ROOT
ATOM      1  C   UNL     1       0.344  10.694  19.092  0.00  0.00    +0.020 C 
ATOM      2  C   UNL     1      -0.008   9.750  20.245  0.00  0.00    -0.049 C 
ATOM      3  C   UNL     1       1.130   8.786  20.554  0.00  0.00    -0.089 C 
ATOM      4  N   UNL     1       1.511   8.007  19.320  0.00  0.00    +0.382 N 
ATOM      5  C   UNL     1       1.881   8.917  18.167  0.00  0.00    -0.089 C 
ATOM      6  C   UNL     1       0.722   9.850  17.869  0.00  0.00    -0.049 C 
ATOM      7  H   UNL     1      -0.533  11.304  18.845  0.00  0.00    +0.050 HD
ATOM      8  H   UNL     1      -0.250  10.323  21.147  0.00  0.00    +0.026 HD
ATOM      9  H   UNL     1      -0.906   9.177  19.983  0.00  0.00    +0.026 HD
ATOM     10  H   UNL     1       0.814   8.062  21.313  0.00  0.00    +0.006 HD
ATOM     11  H   UNL     1       2.026   9.309  20.909  0.00  0.00    +0.006 HD
ATOM     12  H   UNL     1       0.695   7.459  19.023  0.00  0.00    -0.081 HD
ATOM     13  H   UNL     1       2.079   8.287  17.295  0.00  0.00    +0.006 HD
ATOM     14  H   UNL     1       2.794   9.456  18.442  0.00  0.00    +0.006 HD
ATOM     15  H   UNL     1       0.971  10.468  17.003  0.00  0.00    +0.026 HD
ATOM     16  H   UNL     1      -0.150   9.255  17.567  0.00  0.00    +0.026 HD
ENDROOT
BRANCH   1  19
ATOM     17  O   UNL     1       0.712  13.381  18.191  0.00  0.00    -0.276 OA
ATOM     18  C   UNL     1       1.408  12.945  19.099  0.00  0.00    +0.213 C 
ATOM     19  N   UNL     1       1.385  11.626  19.520  0.00  0.00    -0.313 N 
ATOM     20  H   UNL     1       1.705  11.542  20.491  0.00  0.00    +0.149 HD
BRANCH  18  21
ATOM     21  C   UNL     1       2.386  13.809  19.865  0.00  0.00    +0.026 C 
ATOM     22  H   UNL     1       2.481  14.765  19.337  0.00  0.00    +0.036 HD
ATOM     23  H   UNL     1       3.378  13.344  19.831  0.00  0.00    +0.036 HD
BRANCH  21  24
ATOM     24  C   UNL     1       1.963  14.058  21.312  0.00  0.00    -0.018 C 
ATOM     25  H   UNL     1       2.292  13.187  21.894  0.00  0.00    +0.029 HD
ATOM     26  H   UNL     1       2.503  14.924  21.716  0.00  0.00    +0.029 HD
BRANCH  24  27
ATOM     27  C   UNL     1       0.462  14.276  21.521  0.00  0.00    +0.059 C 
ATOM     28  C   UNL     1       0.142  15.265  22.632  0.00  0.00    -0.025 C 
ATOM     29  C   UNL     1      -1.187  14.755  23.132  0.00  0.00    -0.027 C 
ATOM     30  C   UNL     1      -0.993  13.260  23.033  0.00  0.00    +0.048 C 
ATOM     31  O   UNL     1      -0.198  13.033  21.853  0.00  0.00    -0.377 OA
ATOM     32  H   UNL     1       0.007  14.624  20.585  0.00  0.00    +0.060 HD
ATOM     33  H   UNL     1       0.103  16.301  22.280  0.00  0.00    +0.029 HD
ATOM     34  H   UNL     1       0.882  15.211  23.440  0.00  0.00    +0.029 HD
ATOM     35  H   UNL     1      -1.988  15.075  22.454  0.00  0.00    +0.029 HD
ATOM     36  H   UNL     1      -1.432  15.090  24.142  0.00  0.00    +0.029 HD
ATOM     37  H   UNL     1      -1.936  12.712  22.953  0.00  0.00    +0.056 HD
ATOM     38  H   UNL     1      -0.430  12.874  23.891  0.00  0.00    +0.056 HD
ENDBRANCH  24  27
ENDBRANCH  21  24
ENDBRANCH  18  21
ENDBRANCH   1  19
BRANCH   4  39
ATOM     39  C   UNL     1       2.601   7.000  19.630  0.00  0.00    -0.064 C 
ATOM     40  H   UNL     1       3.470   7.255  19.013  0.00  0.00    +0.011 HD
ATOM     41  H   UNL     1       2.884   7.138  20.681  0.00  0.00    +0.011 HD
BRANCH  39  42
ATOM     42  C   UNL     1       2.166   5.573  19.428  0.00  0.00    -0.064 A 
ATOM     43  C   UNL     1       1.614   4.839  20.493  0.00  0.00    -0.058 A 
ATOM     44  C   UNL     1       1.193   3.522  20.297  0.00  0.00    -0.026 A 
ATOM     45  C   UNL     1       1.315   2.939  19.042  0.00  0.00    +0.123 A 
ATOM     46  F   UNL     1       0.905   1.679  18.857  0.00  0.00    -0.205 F 
ATOM     47  C   UNL     1       1.863   3.645  17.978  0.00  0.00    -0.026 A 
ATOM     48  C   UNL     1       2.291   4.960  18.170  0.00  0.00    -0.058 A 
ATOM     49  H   UNL     1       1.518   5.270  21.487  0.00  0.00    +0.062 HD
ATOM     50  H   UNL     1       0.769   2.940  21.113  0.00  0.00    +0.065 HD
ATOM     51  H   UNL     1       1.955   3.162  17.009  0.00  0.00    +0.065 HD
ATOM     52  H   UNL     1       2.729   5.490  17.325  0.00  0.00    +0.062 HD
ENDBRANCH  39  42
ENDBRANCH   4  39
TORSDOF 6
ENDMDL
MODEL 16
REMARK VINA RESULT:    -5.754      5.498      8.919
REMARK INTER + INTRA:          -8.991
REMARK INTER:                  -8.472
REMARK INTRA:                  -0.518
REMARK UNBOUND:                -1.219
REMARK  Name = 
REMARK  6 active torsions:
REMARK  status: ('A' for Active; 'I' for Inactive)
REMARK    1  A    between atoms: C_2  and  C_3
REMARK    2  A    between atoms: C_3  and  C_4
REMARK    3  A    between atoms: C_4  and  C_5
REMARK    4  A    between atoms: N_10  and  C_11
REMARK    5  A    between atoms: N_14  and  C_15
REMARK    6  A    between atoms: C_15  and  C_16
REMARK                            x       y       z     vdW  Elec       q    Type
REMARK                         _______ _______ _______ _____ _____    ______ ____
ROOT
ATOM      1  C   UNL     1       2.726   7.430  18.658  0.00  0.00    +0.020 C 
ATOM      2  C   UNL     1       2.450   7.627  20.152  0.00  0.00    -0.049 C 
ATOM      3  C   UNL     1       1.039   8.144  20.402  0.00  0.00    -0.089 C 
ATOM      4  N   UNL     1       0.803   9.424  19.640  0.00  0.00    +0.382 N 
ATOM      5  C   UNL     1       1.053   9.254  18.155  0.00  0.00    -0.089 C 
ATOM      6  C   UNL     1       2.471   8.758  17.936  0.00  0.00    -0.049 C 
ATOM      7  H   UNL     1       3.777   7.147  18.521  0.00  0.00    +0.050 HD
ATOM      8  H   UNL     1       2.590   6.684  20.693  0.00  0.00    +0.026 HD
ATOM      9  H   UNL     1       3.174   8.340  20.564  0.00  0.00    +0.026 HD
ATOM     10  H   UNL     1       0.904   8.368  21.465  0.00  0.00    +0.006 HD
ATOM     11  H   UNL     1       0.276   7.423  20.088  0.00  0.00    +0.006 HD
ATOM     12  H   UNL     1       1.471  10.127  19.981  0.00  0.00    -0.081 HD
ATOM     13  H   UNL     1       0.929  10.232  17.682  0.00  0.00    +0.006 HD
ATOM     14  H   UNL     1       0.301   8.560  17.764  0.00  0.00    +0.006 HD
ATOM     15  H   UNL     1       2.666   8.688  16.864  0.00  0.00    +0.026 HD
ATOM     16  H   UNL     1       3.177   9.509  18.317  0.00  0.00    +0.026 HD
ENDROOT
BRANCH   1  19
ATOM     17  O   UNL     1       3.708   4.921  17.707  0.00  0.00    -0.276 OA
ATOM     18  C   UNL     1       2.502   5.098  17.817  0.00  0.00    +0.213 C 
ATOM     19  N   UNL     1       1.930   6.313  18.154  0.00  0.00    -0.313 N 
ATOM     20  H   UNL     1       1.005   6.183  18.575  0.00  0.00    +0.149 HD
BRANCH  18  21
ATOM     21  C   UNL     1       1.491   3.995  17.590  0.00  0.00    +0.026 C 
ATOM     22  H   UNL     1       1.139   4.064  16.553  0.00  0.00    +0.036 HD
ATOM     23  H   UNL     1       0.612   4.179  18.220  0.00  0.00    +0.036 HD
BRANCH  21  24
ATOM     24  C   UNL     1       2.053   2.599  17.852  0.00  0.00    -0.018 C 
ATOM     25  H   UNL     1       1.532   1.914  17.170  0.00  0.00    +0.029 HD
ATOM     26  H   UNL     1       3.115   2.565  17.576  0.00  0.00    +0.029 HD
BRANCH  24  27
ATOM     27  C   UNL     1       1.904   2.100  19.292  0.00  0.00    +0.059 C 
ATOM     28  C   UNL     1       0.837   2.843  20.084  0.00  0.00    -0.025 C 
ATOM     29  C   UNL     1       1.376   2.757  21.490  0.00  0.00    -0.027 C 
ATOM     30  C   UNL     1       2.860   2.916  21.255  0.00  0.00    +0.048 C 
ATOM     31  O   UNL     1       3.147   2.239  20.017  0.00  0.00    -0.377 OA
ATOM     32  H   UNL     1       1.670   1.028  19.288  0.00  0.00    +0.060 HD
ATOM     33  H   UNL     1      -0.158   2.400  19.973  0.00  0.00    +0.029 HD
ATOM     34  H   UNL     1       0.775   3.895  19.779  0.00  0.00    +0.029 HD
ATOM     35  H   UNL     1       1.165   1.766  21.910  0.00  0.00    +0.029 HD
ATOM     36  H   UNL     1       0.965   3.514  22.162  0.00  0.00    +0.029 HD
ATOM     37  H   UNL     1       3.467   2.488  22.059  0.00  0.00    +0.056 HD
ATOM     38  H   UNL     1       3.132   3.971  21.128  0.00  0.00    +0.056 HD
ENDBRANCH  24  27
ENDBRANCH  21  24
ENDBRANCH  18  21
ENDBRANCH   1  19
BRANCH   4  39
ATOM     39  C   UNL     1      -0.576   9.981  19.930  0.00  0.00    -0.064 C 
ATOM     40  H   UNL     1      -1.115   9.234  20.523  0.00  0.00    +0.011 HD
ATOM     41  H   UNL     1      -0.444  10.872  20.556  0.00  0.00    +0.011 HD
BRANCH  39  42
ATOM     42  C   UNL     1      -1.333  10.369  18.688  0.00  0.00    -0.064 A 
ATOM     43  C   UNL     1      -1.158  11.640  18.114  0.00  0.00    -0.058 A 
ATOM     44  C   UNL     1      -1.846  11.988  16.950  0.00  0.00    -0.026 A 
ATOM     45  C   UNL     1      -2.703  11.071  16.356  0.00  0.00    +0.123 A 
ATOM     46  F   UNL     1      -3.357  11.407  15.237  0.00  0.00    -0.205 F 
ATOM     47  C   UNL     1      -2.896   9.812  16.910  0.00  0.00    -0.026 A 
ATOM     48  C   UNL     1      -2.215   9.460  18.077  0.00  0.00    -0.058 A 
ATOM     49  H   UNL     1      -0.500  12.379  18.566  0.00  0.00    +0.062 HD
ATOM     50  H   UNL     1      -1.723  12.971  16.498  0.00  0.00    +0.065 HD
ATOM     51  H   UNL     1      -3.578   9.117  16.430  0.00  0.00    +0.065 HD
ATOM     52  H   UNL     1      -2.390   8.472  18.501  0.00  0.00    +0.062 HD
ENDBRANCH  39  42
ENDBRANCH   4  39
TORSDOF 6
ENDMDL
MODEL 17
REMARK VINA RESULT:    -5.737      1.856      2.427
REMARK INTER + INTRA:          -8.969
REMARK INTER:                  -8.669
REMARK INTRA:                  -0.299
REMARK UNBOUND:                -1.219
REMARK  Name = 
REMARK  6 active torsions:
REMARK  status: ('A' for Active; 'I' for Inactive)
REMARK    1  A    between atoms: C_2  and  C_3
REMARK    2  A    between atoms: C_3  and  C_4
REMARK    3  A    between atoms: C_4  and  C_5
REMARK    4  A    between atoms: N_10  and  C_11
REMARK    5  A    between atoms: N_14  and  C_15
REMARK    6  A    between atoms: C_15  and  C_16
REMARK                            x       y       z     vdW  Elec       q    Type
REMARK                         _______ _______ _______ _____ _____    ______ ____
ROOT
ATOM      1  C   UNL     1       7.244   5.361  16.831  0.00  0.00    +0.020 C 
ATOM      2  C   UNL     1       6.361   4.923  15.659  0.00  0.00    -0.049 C 
ATOM      3  C   UNL     1       4.880   5.047  15.990  0.00  0.00    -0.089 C 
ATOM      4  N   UNL     1       4.549   4.261  17.234  0.00  0.00    +0.382 N 
ATOM      5  C   UNL     1       5.397   4.685  18.416  0.00  0.00    -0.089 C 
ATOM      6  C   UNL     1       6.865   4.531  18.064  0.00  0.00    -0.049 C 
ATOM      7  H   UNL     1       8.295   5.168  16.583  0.00  0.00    +0.050 HD
ATOM      8  H   UNL     1       6.584   5.522  14.769  0.00  0.00    +0.026 HD
ATOM      9  H   UNL     1       6.588   3.880  15.405  0.00  0.00    +0.026 HD
ATOM     10  H   UNL     1       4.276   4.637  15.175  0.00  0.00    +0.006 HD
ATOM     11  H   UNL     1       4.584   6.088  16.165  0.00  0.00    +0.006 HD
ATOM     12  H   UNL     1       4.758   3.272  17.052  0.00  0.00    -0.081 HD
ATOM     13  H   UNL     1       5.150   4.031  19.256  0.00  0.00    +0.006 HD
ATOM     14  H   UNL     1       5.132   5.718  18.667  0.00  0.00    +0.006 HD
ATOM     15  H   UNL     1       7.473   4.787  18.935  0.00  0.00    +0.026 HD
ATOM     16  H   UNL     1       7.075   3.474  17.856  0.00  0.00    +0.026 HD
ENDROOT
BRANCH   1  19
ATOM     17  O   UNL     1       8.654   6.955  18.738  0.00  0.00    -0.276 OA
ATOM     18  C   UNL     1       7.937   7.496  17.907  0.00  0.00    +0.213 C 
ATOM     19  N   UNL     1       7.126   6.805  17.024  0.00  0.00    -0.313 N 
ATOM     20  H   UNL     1       6.928   7.363  16.187  0.00  0.00    +0.149 HD
BRANCH  18  21
ATOM     21  C   UNL     1       7.855   9.000  17.754  0.00  0.00    +0.026 C 
ATOM     22  H   UNL     1       6.805   9.296  17.868  0.00  0.00    +0.036 HD
ATOM     23  H   UNL     1       8.137   9.272  16.731  0.00  0.00    +0.036 HD
BRANCH  21  24
ATOM     24  C   UNL     1       8.717   9.756  18.764  0.00  0.00    -0.018 C 
ATOM     25  H   UNL     1       8.449   9.375  19.758  0.00  0.00    +0.029 HD
ATOM     26  H   UNL     1       9.776   9.508  18.612  0.00  0.00    +0.029 HD
BRANCH  24  27
ATOM     27  C   UNL     1       8.562  11.278  18.739  0.00  0.00    +0.059 C 
ATOM     28  C   UNL     1       7.792  11.789  17.528  0.00  0.00    -0.025 C 
ATOM     29  C   UNL     1       8.402  13.153  17.323  0.00  0.00    -0.027 C 
ATOM     30  C   UNL     1       9.852  12.888  17.654  0.00  0.00    +0.048 C 
ATOM     31  O   UNL     1       9.853  11.929  18.729  0.00  0.00    -0.377 OA
ATOM     32  H   UNL     1       8.058  11.612  19.654  0.00  0.00    +0.060 HD
ATOM     33  H   UNL     1       6.711  11.818  17.696  0.00  0.00    +0.029 HD
ATOM     34  H   UNL     1       7.980  11.166  16.645  0.00  0.00    +0.029 HD
ATOM     35  H   UNL     1       7.976  13.863  18.042  0.00  0.00    +0.029 HD
ATOM     36  H   UNL     1       8.257  13.549  16.315  0.00  0.00    +0.029 HD
ATOM     37  H   UNL     1      10.390  13.789  17.964  0.00  0.00    +0.056 HD
ATOM     38  H   UNL     1      10.378  12.435  16.805  0.00  0.00    +0.056 HD
ENDBRANCH  24  27
ENDBRANCH  21  24
ENDBRANCH  18  21
ENDBRANCH   1  19
BRANCH   4  39
ATOM     39  C   UNL     1       3.065   4.327  17.539  0.00  0.00    -0.064 C 
ATOM     40  H   UNL     1       2.532   4.291  16.583  0.00  0.00    +0.011 HD
ATOM     41  H   UNL     1       2.807   3.421  18.101  0.00  0.00    +0.011 HD
BRANCH  39  42
ATOM     42  C   UNL     1       2.680   5.531  18.355  0.00  0.00    -0.064 A 
ATOM     43  C   UNL     1       2.737   6.819  17.795  0.00  0.00    -0.058 A 
ATOM     44  C   UNL     1       2.359   7.932  18.549  0.00  0.00    -0.026 A 
ATOM     45  C   UNL     1       1.920   7.763  19.855  0.00  0.00    +0.123 A 
ATOM     46  F   UNL     1       1.553   8.832  20.572  0.00  0.00    -0.205 F 
ATOM     47  C   UNL     1       1.861   6.500  20.430  0.00  0.00    -0.026 A 
ATOM     48  C   UNL     1       2.243   5.383  19.683  0.00  0.00    -0.058 A 
ATOM     49  H   UNL     1       3.087   6.979  16.778  0.00  0.00    +0.062 HD
ATOM     50  H   UNL     1       2.403   8.936  18.129  0.00  0.00    +0.065 HD
ATOM     51  H   UNL     1       1.521   6.396  21.456  0.00  0.00    +0.065 HD
ATOM     52  H   UNL     1       2.200   4.404  20.157  0.00  0.00    +0.062 HD
ENDBRANCH  39  42
ENDBRANCH   4  39
TORSDOF 6
ENDMDL
MODEL 18
REMARK VINA RESULT:    -5.668      6.990      9.196
REMARK INTER + INTRA:          -8.875
REMARK INTER:                  -8.098
REMARK INTRA:                  -0.778
REMARK UNBOUND:                -1.219
REMARK  Name = 
REMARK  6 active torsions:
REMARK  status: ('A' for Active; 'I' for Inactive)
REMARK    1  A    between atoms: C_2  and  C_3
REMARK    2  A    between atoms: C_3  and  C_4
REMARK    3  A    between atoms: C_4  and  C_5
REMARK    4  A    between atoms: N_10  and  C_11
REMARK    5  A    between atoms: N_14  and  C_15
REMARK    6  A    between atoms: C_15  and  C_16
REMARK                            x       y       z     vdW  Elec       q    Type
REMARK                         _______ _______ _______ _____ _____    ______ ____
ROOT
ATOM      1  C   UNL     1       0.318  11.665  20.657  0.00  0.00    +0.020 C 
ATOM      2  C   UNL     1       1.432  11.981  19.654  0.00  0.00    -0.049 C 
ATOM      3  C   UNL     1       1.475  10.966  18.520  0.00  0.00    -0.089 C 
ATOM      4  N   UNL     1       1.627   9.568  19.067  0.00  0.00    +0.382 N 
ATOM      5  C   UNL     1       0.527   9.222  20.051  0.00  0.00    -0.089 C 
ATOM      6  C   UNL     1       0.522  10.238  21.179  0.00  0.00    -0.049 C 
ATOM      7  H   UNL     1       0.384  12.363  21.500  0.00  0.00    +0.050 HD
ATOM      8  H   UNL     1       1.295  12.984  19.236  0.00  0.00    +0.026 HD
ATOM      9  H   UNL     1       2.398  11.983  20.174  0.00  0.00    +0.026 HD
ATOM     10  H   UNL     1       2.339  11.159  17.875  0.00  0.00    +0.006 HD
ATOM     11  H   UNL     1       0.563  10.989  17.913  0.00  0.00    +0.006 HD
ATOM     12  H   UNL     1       2.516   9.520  19.578  0.00  0.00    -0.081 HD
ATOM     13  H   UNL     1       0.740   8.228  20.452  0.00  0.00    +0.006 HD
ATOM     14  H   UNL     1      -0.421   9.200  19.502  0.00  0.00    +0.006 HD
ATOM     15  H   UNL     1      -0.235   9.955  21.913  0.00  0.00    +0.026 HD
ATOM     16  H   UNL     1       1.482  10.189  21.709  0.00  0.00    +0.026 HD
ENDROOT
BRANCH   1  19
ATOM     17  O   UNL     1      -2.130  12.293  21.990  0.00  0.00    -0.276 OA
ATOM     18  C   UNL     1      -2.087  12.298  20.767  0.00  0.00    +0.213 C 
ATOM     19  N   UNL     1      -0.984  11.894  20.035  0.00  0.00    -0.313 N 
ATOM     20  H   UNL     1      -0.977  12.326  19.105  0.00  0.00    +0.149 HD
BRANCH  18  21
ATOM     21  C   UNL     1      -3.250  12.750  19.911  0.00  0.00    +0.026 C 
ATOM     22  H   UNL     1      -2.922  13.613  19.319  0.00  0.00    +0.036 HD
ATOM     23  H   UNL     1      -4.053  13.117  20.561  0.00  0.00    +0.036 HD
BRANCH  21  24
ATOM     24  C   UNL     1      -3.774  11.655  18.982  0.00  0.00    -0.018 C 
ATOM     25  H   UNL     1      -3.608  10.699  19.493  0.00  0.00    +0.029 HD
ATOM     26  H   UNL     1      -4.859  11.758  18.858  0.00  0.00    +0.029 HD
BRANCH  24  27
ATOM     27  C   UNL     1      -3.124  11.615  17.596  0.00  0.00    +0.059 C 
ATOM     28  C   UNL     1      -4.068  11.147  16.497  0.00  0.00    -0.025 C 
ATOM     29  C   UNL     1      -3.117  10.490  15.528  0.00  0.00    -0.027 C 
ATOM     30  C   UNL     1      -2.135   9.832  16.468  0.00  0.00    +0.048 C 
ATOM     31  O   UNL     1      -1.984  10.726  17.586  0.00  0.00    -0.377 OA
ATOM     32  H   UNL     1      -2.739  12.610  17.342  0.00  0.00    +0.060 HD
ATOM     33  H   UNL     1      -4.642  11.967  16.054  0.00  0.00    +0.029 HD
ATOM     34  H   UNL     1      -4.780  10.402  16.874  0.00  0.00    +0.029 HD
ATOM     35  H   UNL     1      -2.609  11.255  14.928  0.00  0.00    +0.029 HD
ATOM     36  H   UNL     1      -3.603   9.784  14.850  0.00  0.00    +0.029 HD
ATOM     37  H   UNL     1      -1.160   9.650  16.007  0.00  0.00    +0.056 HD
ATOM     38  H   UNL     1      -2.527   8.882  16.853  0.00  0.00    +0.056 HD
ENDBRANCH  24  27
ENDBRANCH  21  24
ENDBRANCH  18  21
ENDBRANCH   1  19
BRANCH   4  39
ATOM     39  C   UNL     1       1.733   8.555  17.944  0.00  0.00    -0.064 C 
ATOM     40  H   UNL     1       0.729   8.156  17.765  0.00  0.00    +0.011 HD
ATOM     41  H   UNL     1       2.044   9.098  17.043  0.00  0.00    +0.011 HD
BRANCH  39  42
ATOM     42  C   UNL     1       2.732   7.463  18.223  0.00  0.00    -0.064 A 
ATOM     43  C   UNL     1       3.856   7.298  17.395  0.00  0.00    -0.058 A 
ATOM     44  C   UNL     1       4.791   6.298  17.668  0.00  0.00    -0.026 A 
ATOM     45  C   UNL     1       4.610   5.467  18.766  0.00  0.00    +0.123 A 
ATOM     46  F   UNL     1       5.511   4.513  19.028  0.00  0.00    -0.205 F 
ATOM     47  C   UNL     1       3.503   5.609  19.594  0.00  0.00    -0.026 A 
ATOM     48  C   UNL     1       2.562   6.604  19.322  0.00  0.00    -0.058 A 
ATOM     49  H   UNL     1       4.014   7.929  16.524  0.00  0.00    +0.062 HD
ATOM     50  H   UNL     1       5.663   6.155  17.033  0.00  0.00    +0.065 HD
ATOM     51  H   UNL     1       3.381   4.941  20.441  0.00  0.00    +0.065 HD
ATOM     52  H   UNL     1       1.695   6.690  19.977  0.00  0.00    +0.062 HD
ENDBRANCH  39  42
ENDBRANCH   4  39
TORSDOF 6
ENDMDL
MODEL 19
REMARK VINA RESULT:    -5.638      6.308      9.294
REMARK INTER + INTRA:          -8.835
REMARK INTER:                  -8.262
REMARK INTRA:                  -0.573
REMARK UNBOUND:                -1.219
REMARK  Name = 
REMARK  6 active torsions:
REMARK  status: ('A' for Active; 'I' for Inactive)
REMARK    1  A    between atoms: C_2  and  C_3
REMARK    2  A    between atoms: C_3  and  C_4
REMARK    3  A    between atoms: C_4  and  C_5
REMARK    4  A    between atoms: N_10  and  C_11
REMARK    5  A    between atoms: N_14  and  C_15
REMARK    6  A    between atoms: C_15  and  C_16
REMARK                            x       y       z     vdW  Elec       q    Type
REMARK                         _______ _______ _______ _____ _____    ______ ____
ROOT
ATOM      1  C   UNL     1       1.021   8.189  21.537  0.00  0.00    +0.020 C 
ATOM      2  C   UNL     1      -0.403   8.254  20.977  0.00  0.00    -0.049 C 
ATOM      3  C   UNL     1      -0.569   9.400  19.988  0.00  0.00    -0.089 C 
ATOM      4  N   UNL     1      -0.185  10.710  20.628  0.00  0.00    +0.382 N 
ATOM      5  C   UNL     1       1.227  10.680  21.178  0.00  0.00    -0.089 C 
ATOM      6  C   UNL     1       1.356   9.543  22.174  0.00  0.00    -0.049 C 
ATOM      7  H   UNL     1       1.069   7.412  22.310  0.00  0.00    +0.050 HD
ATOM      8  H   UNL     1      -0.662   7.310  20.483  0.00  0.00    +0.026 HD
ATOM      9  H   UNL     1      -1.112   8.384  21.803  0.00  0.00    +0.026 HD
ATOM     10  H   UNL     1      -1.617   9.482  19.680  0.00  0.00    +0.006 HD
ATOM     11  H   UNL     1       0.056   9.268  19.097  0.00  0.00    +0.006 HD
ATOM     12  H   UNL     1      -0.815  10.874  21.423  0.00  0.00    -0.081 HD
ATOM     13  H   UNL     1       1.409  11.633  21.682  0.00  0.00    +0.006 HD
ATOM     14  H   UNL     1       1.916  10.577  20.332  0.00  0.00    +0.006 HD
ATOM     15  H   UNL     1       2.359   9.557  22.608  0.00  0.00    +0.026 HD
ATOM     16  H   UNL     1       0.668   9.719  23.012  0.00  0.00    +0.026 HD
ENDROOT
BRANCH   1  19
ATOM     17  O   UNL     1       1.659   5.513  20.765  0.00  0.00    -0.276 OA
ATOM     18  C   UNL     1       2.101   6.452  20.118  0.00  0.00    +0.213 C 
ATOM     19  N   UNL     1       1.946   7.778  20.483  0.00  0.00    -0.313 N 
ATOM     20  H   UNL     1       2.016   8.398  19.669  0.00  0.00    +0.149 HD
BRANCH  18  21
ATOM     21  C   UNL     1       2.881   6.264  18.835  0.00  0.00    +0.026 C 
ATOM     22  H   UNL     1       3.922   6.043  19.099  0.00  0.00    +0.036 HD
ATOM     23  H   UNL     1       2.902   7.213  18.286  0.00  0.00    +0.036 HD
BRANCH  21  24
ATOM     24  C   UNL     1       2.325   5.150  17.950  0.00  0.00    -0.018 C 
ATOM     25  H   UNL     1       1.352   4.865  18.372  0.00  0.00    +0.029 HD
ATOM     26  H   UNL     1       2.126   5.536  16.942  0.00  0.00    +0.029 HD
BRANCH  24  27
ATOM     27  C   UNL     1       3.215   3.910  17.833  0.00  0.00    +0.059 C 
ATOM     28  C   UNL     1       2.440   2.600  17.884  0.00  0.00    -0.025 C 
ATOM     29  C   UNL     1       3.449   1.664  18.500  0.00  0.00    -0.027 C 
ATOM     30  C   UNL     1       4.122   2.566  19.508  0.00  0.00    +0.048 C 
ATOM     31  O   UNL     1       4.188   3.870  18.902  0.00  0.00    -0.377 OA
ATOM     32  H   UNL     1       3.788   3.955  16.899  0.00  0.00    +0.060 HD
ATOM     33  H   UNL     1       2.093   2.275  16.898  0.00  0.00    +0.029 HD
ATOM     34  H   UNL     1       1.565   2.680  18.540  0.00  0.00    +0.029 HD
ATOM     35  H   UNL     1       4.173   1.343  17.741  0.00  0.00    +0.029 HD
ATOM     36  H   UNL     1       3.002   0.775  18.951  0.00  0.00    +0.029 HD
ATOM     37  H   UNL     1       5.129   2.232  19.775  0.00  0.00    +0.056 HD
ATOM     38  H   UNL     1       3.524   2.655  20.424  0.00  0.00    +0.056 HD
ENDBRANCH  24  27
ENDBRANCH  21  24
ENDBRANCH  18  21
ENDBRANCH   1  19
BRANCH   4  39
ATOM     39  C   UNL     1      -0.405  11.866  19.673  0.00  0.00    -0.064 C 
ATOM     40  H   UNL     1      -0.388  12.789  20.264  0.00  0.00    +0.011 HD
ATOM     41  H   UNL     1       0.451  11.891  18.988  0.00  0.00    +0.011 HD
BRANCH  39  42
ATOM     42  C   UNL     1      -1.670  11.737  18.866  0.00  0.00    -0.064 A 
ATOM     43  C   UNL     1      -1.623  11.285  17.536  0.00  0.00    -0.058 A 
ATOM     44  C   UNL     1      -2.800  11.147  16.797  0.00  0.00    -0.026 A 
ATOM     45  C   UNL     1      -4.021  11.452  17.383  0.00  0.00    +0.123 A 
ATOM     46  F   UNL     1      -5.147  11.313  16.674  0.00  0.00    -0.205 F 
ATOM     47  C   UNL     1      -4.089  11.906  18.694  0.00  0.00    -0.026 A 
ATOM     48  C   UNL     1      -2.915  12.052  19.436  0.00  0.00    -0.058 A 
ATOM     49  H   UNL     1      -0.678  11.050  17.051  0.00  0.00    +0.062 HD
ATOM     50  H   UNL     1      -2.777  10.803  15.764  0.00  0.00    +0.065 HD
ATOM     51  H   UNL     1      -5.057  12.145  19.126  0.00  0.00    +0.065 HD
ATOM     52  H   UNL     1      -2.991  12.420  20.459  0.00  0.00    +0.062 HD
ENDBRANCH  39  42
ENDBRANCH   4  39
TORSDOF 6
ENDMDL
MODEL 20
REMARK VINA RESULT:    -5.633      4.316      6.389
REMARK INTER + INTRA:          -8.828
REMARK INTER:                  -7.776
REMARK INTRA:                  -1.051
REMARK UNBOUND:                -1.219
REMARK  Name = 
REMARK  6 active torsions:
REMARK  status: ('A' for Active; 'I' for Inactive)
REMARK    1  A    between atoms: C_2  and  C_3
REMARK    2  A    between atoms: C_3  and  C_4
REMARK    3  A    between atoms: C_4  and  C_5
REMARK    4  A    between atoms: N_10  and  C_11
REMARK    5  A    between atoms: N_14  and  C_15
REMARK    6  A    between atoms: C_15  and  C_16
REMARK                            x       y       z     vdW  Elec       q    Type
REMARK                         _______ _______ _______ _____ _____    ______ ____
ROOT
ATOM      1  C   UNL     1       2.259   4.969  18.354  0.00  0.00    +0.020 C 
ATOM      2  C   UNL     1       1.953   6.421  17.976  0.00  0.00    -0.049 C 
ATOM      3  C   UNL     1       2.336   7.388  19.088  0.00  0.00    -0.089 C 
ATOM      4  N   UNL     1       1.645   7.012  20.375  0.00  0.00    +0.382 N 
ATOM      5  C   UNL     1       1.944   5.583  20.783  0.00  0.00    -0.089 C 
ATOM      6  C   UNL     1       1.533   4.643  19.665  0.00  0.00    -0.049 C 
ATOM      7  H   UNL     1       1.884   4.305  17.566  0.00  0.00    +0.050 HD
ATOM      8  H   UNL     1       2.486   6.697  17.059  0.00  0.00    +0.026 HD
ATOM      9  H   UNL     1       0.881   6.522  17.762  0.00  0.00    +0.026 HD
ATOM     10  H   UNL     1       2.016   8.403  18.831  0.00  0.00    +0.006 HD
ATOM     11  H   UNL     1       3.415   7.389  19.278  0.00  0.00    +0.006 HD
ATOM     12  H   UNL     1       0.631   7.077  20.225  0.00  0.00    -0.081 HD
ATOM     13  H   UNL     1       1.360   5.364  21.681  0.00  0.00    +0.006 HD
ATOM     14  H   UNL     1       3.012   5.516  21.017  0.00  0.00    +0.006 HD
ATOM     15  H   UNL     1       1.701   3.612  19.982  0.00  0.00    +0.026 HD
ATOM     16  H   UNL     1       0.451   4.731  19.501  0.00  0.00    +0.026 HD
ENDROOT
BRANCH   1  19
ATOM     17  O   UNL     1       3.683   2.583  17.687  0.00  0.00    -0.276 OA
ATOM     18  C   UNL     1       4.302   3.603  17.957  0.00  0.00    +0.213 C 
ATOM     19  N   UNL     1       3.706   4.769  18.406  0.00  0.00    -0.313 N 
ATOM     20  H   UNL     1       4.289   5.587  18.199  0.00  0.00    +0.149 HD
BRANCH  18  21
ATOM     21  C   UNL     1       5.807   3.701  17.833  0.00  0.00    +0.026 C 
ATOM     22  H   UNL     1       6.234   2.727  18.099  0.00  0.00    +0.036 HD
ATOM     23  H   UNL     1       6.183   4.410  18.580  0.00  0.00    +0.036 HD
BRANCH  21  24
ATOM     24  C   UNL     1       6.271   4.104  16.434  0.00  0.00    -0.018 C 
ATOM     25  H   UNL     1       7.136   3.472  16.193  0.00  0.00    +0.029 HD
ATOM     26  H   UNL     1       5.494   3.861  15.697  0.00  0.00    +0.029 HD
BRANCH  24  27
ATOM     27  C   UNL     1       6.653   5.578  16.276  0.00  0.00    +0.059 C 
ATOM     28  C   UNL     1       7.500   6.110  17.423  0.00  0.00    -0.025 C 
ATOM     29  C   UNL     1       7.102   7.565  17.456  0.00  0.00    -0.027 C 
ATOM     30  C   UNL     1       5.626   7.481  17.145  0.00  0.00    +0.048 C 
ATOM     31  O   UNL     1       5.473   6.410  16.195  0.00  0.00    -0.377 OA
ATOM     32  H   UNL     1       7.193   5.719  15.332  0.00  0.00    +0.060 HD
ATOM     33  H   UNL     1       8.572   5.958  17.264  0.00  0.00    +0.029 HD
ATOM     34  H   UNL     1       7.228   5.635  18.374  0.00  0.00    +0.029 HD
ATOM     35  H   UNL     1       7.623   8.112  16.661  0.00  0.00    +0.029 HD
ATOM     36  H   UNL     1       7.313   8.054  18.410  0.00  0.00    +0.029 HD
ATOM     37  H   UNL     1       5.226   8.408  16.723  0.00  0.00    +0.056 HD
ATOM     38  H   UNL     1       5.046   7.218  18.038  0.00  0.00    +0.056 HD
ENDBRANCH  24  27
ENDBRANCH  21  24
ENDBRANCH  18  21
ENDBRANCH   1  19
BRANCH   4  39
ATOM     39  C   UNL     1       1.969   8.003  21.475  0.00  0.00    -0.064 C 
ATOM     40  H   UNL     1       2.154   7.430  22.391  0.00  0.00    +0.011 HD
ATOM     41  H   UNL     1       2.906   8.503  21.198  0.00  0.00    +0.011 HD
BRANCH  39  42
ATOM     42  C   UNL     1       0.901   9.046  21.669  0.00  0.00    -0.064 A 
ATOM     43  C   UNL     1       0.269   9.196  22.915  0.00  0.00    -0.058 A 
ATOM     44  C   UNL     1      -0.706  10.178  23.097  0.00  0.00    -0.026 A 
ATOM     45  C   UNL     1      -1.049  11.013  22.041  0.00  0.00    +0.123 A 
ATOM     46  F   UNL     1      -1.981  11.956  22.221  0.00  0.00    -0.205 F 
ATOM     47  C   UNL     1      -0.442  10.877  20.799  0.00  0.00    -0.026 A 
ATOM     48  C   UNL     1       0.531   9.894  20.610  0.00  0.00    -0.058 A 
ATOM     49  H   UNL     1       0.513   8.548  23.754  0.00  0.00    +0.062 HD
ATOM     50  H   UNL     1      -1.207  10.302  24.056  0.00  0.00    +0.065 HD
ATOM     51  H   UNL     1      -0.734  11.538  19.988  0.00  0.00    +0.065 HD
ATOM     52  H   UNL     1       0.986   9.798  19.625  0.00  0.00    +0.062 HD
ENDBRANCH  39  42
ENDBRANCH   4  39
TORSDOF 6
ENDMDL
MODEL 21
REMARK VINA RESULT:    -5.632      7.194      9.482
REMARK INTER + INTRA:          -8.826
REMARK INTER:                  -8.022
REMARK INTRA:                  -0.804
REMARK UNBOUND:                -1.219
REMARK  Name = 
REMARK  6 active torsions:
REMARK  status: ('A' for Active; 'I' for Inactive)
REMARK    1  A    between atoms: C_2  and  C_3
REMARK    2  A    between atoms: C_3  and  C_4
REMARK    3  A    between atoms: C_4  and  C_5
REMARK    4  A    between atoms: N_10  and  C_11
REMARK    5  A    between atoms: N_14  and  C_15
REMARK    6  A    between atoms: C_15  and  C_16
REMARK                            x       y       z     vdW  Elec       q    Type
REMARK                         _______ _______ _______ _____ _____    ______ ____
ROOT
ATOM      1  C   UNL     1      -0.168  11.565  21.097  0.00  0.00    +0.020 C 
ATOM      2  C   UNL     1       1.067  12.005  20.307  0.00  0.00    -0.049 C 
ATOM      3  C   UNL     1       1.255  11.177  19.043  0.00  0.00    -0.089 C 
ATOM      4  N   UNL     1       1.329   9.709  19.380  0.00  0.00    +0.382 N 
ATOM      5  C   UNL     1       0.110   9.241  20.148  0.00  0.00    -0.089 C 
ATOM      6  C   UNL     1      -0.038  10.069  21.411  0.00  0.00    -0.049 C 
ATOM      7  H   UNL     1      -0.211  12.122  22.040  0.00  0.00    +0.050 HD
ATOM      8  H   UNL     1       0.990  13.065  20.037  0.00  0.00    +0.026 HD
ATOM      9  H   UNL     1       1.958  11.904  20.940  0.00  0.00    +0.026 HD
ATOM     10  H   UNL     1       2.196  11.447  18.552  0.00  0.00    +0.006 HD
ATOM     11  H   UNL     1       0.429  11.316  18.335  0.00  0.00    +0.006 HD
ATOM     12  H   UNL     1       2.145   9.561  19.987  0.00  0.00    -0.081 HD
ATOM     13  H   UNL     1       0.265   8.192  20.413  0.00  0.00    +0.006 HD
ATOM     14  H   UNL     1      -0.758   9.326  19.486  0.00  0.00    +0.006 HD
ATOM     15  H   UNL     1      -0.886   9.695  21.989  0.00  0.00    +0.026 HD
ATOM     16  H   UNL     1       0.844   9.917  22.046  0.00  0.00    +0.026 HD
ENDROOT
BRANCH   1  19
ATOM     17  O   UNL     1      -2.699  12.300  22.201  0.00  0.00    -0.276 OA
ATOM     18  C   UNL     1      -2.523  12.364  20.992  0.00  0.00    +0.213 C 
ATOM     19  N   UNL     1      -1.377  11.917  20.356  0.00  0.00    -0.313 N 
ATOM     20  H   UNL     1      -1.242  12.394  19.459  0.00  0.00    +0.149 HD
BRANCH  18  21
ATOM     21  C   UNL     1      -3.555  12.940  20.046  0.00  0.00    +0.026 C 
ATOM     22  H   UNL     1      -3.069  13.718  19.446  0.00  0.00    +0.036 HD
ATOM     23  H   UNL     1      -4.332  13.448  20.629  0.00  0.00    +0.036 HD
BRANCH  21  24
ATOM     24  C   UNL     1      -4.179  11.892  19.125  0.00  0.00    -0.018 C 
ATOM     25  H   UNL     1      -4.138  10.935  19.660  0.00  0.00    +0.029 HD
ATOM     26  H   UNL     1      -5.242  12.117  18.969  0.00  0.00    +0.029 HD
BRANCH  24  27
ATOM     27  C   UNL     1      -3.504  11.745  17.759  0.00  0.00    +0.059 C 
ATOM     28  C   UNL     1      -4.393  11.091  16.711  0.00  0.00    -0.025 C 
ATOM     29  C   UNL     1      -3.381  10.401  15.830  0.00  0.00    -0.027 C 
ATOM     30  C   UNL     1      -2.372   9.923  16.847  0.00  0.00    +0.048 C 
ATOM     31  O   UNL     1      -2.304  10.944  17.860  0.00  0.00    -0.377 OA
ATOM     32  H   UNL     1      -3.185  12.731  17.398  0.00  0.00    +0.060 HD
ATOM     33  H   UNL     1      -5.015  11.813  16.172  0.00  0.00    +0.029 HD
ATOM     34  H   UNL     1      -5.057  10.343  17.161  0.00  0.00    +0.029 HD
ATOM     35  H   UNL     1      -2.917  11.128  15.154  0.00  0.00    +0.029 HD
ATOM     36  H   UNL     1      -3.804   9.590  15.231  0.00  0.00    +0.029 HD
ATOM     37  H   UNL     1      -1.378   9.762  16.419  0.00  0.00    +0.056 HD
ATOM     38  H   UNL     1      -2.703   8.996  17.332  0.00  0.00    +0.056 HD
ENDBRANCH  24  27
ENDBRANCH  21  24
ENDBRANCH  18  21
ENDBRANCH   1  19
BRANCH   4  39
ATOM     39  C   UNL     1       1.578   8.879  18.136  0.00  0.00    -0.064 C 
ATOM     40  H   UNL     1       0.604   8.537  17.769  0.00  0.00    +0.011 HD
ATOM     41  H   UNL     1       2.006   9.547  17.378  0.00  0.00    +0.011 HD
BRANCH  39  42
ATOM     42  C   UNL     1       2.528   7.734  18.366  0.00  0.00    -0.064 A 
ATOM     43  C   UNL     1       2.381   6.902  19.489  0.00  0.00    -0.058 A 
ATOM     44  C   UNL     1       3.251   5.828  19.688  0.00  0.00    -0.026 A 
ATOM     45  C   UNL     1       4.262   5.580  18.769  0.00  0.00    +0.123 A 
ATOM     46  F   UNL     1       5.090   4.547  18.960  0.00  0.00    -0.205 F 
ATOM     47  C   UNL     1       4.428   6.394  17.655  0.00  0.00    -0.026 A 
ATOM     48  C   UNL     1       3.565   7.473  17.453  0.00  0.00    -0.058 A 
ATOM     49  H   UNL     1       1.604   7.081  20.228  0.00  0.00    +0.062 HD
ATOM     50  H   UNL     1       3.153   5.179  20.557  0.00  0.00    +0.065 HD
ATOM     51  H   UNL     1       5.232   6.183  16.956  0.00  0.00    +0.065 HD
ATOM     52  H   UNL     1       3.720   8.104  16.580  0.00  0.00    +0.062 HD
ENDBRANCH  39  42
ENDBRANCH   4  39
TORSDOF 6
ENDMDL
MODEL 22
REMARK VINA RESULT:    -5.612      4.286      6.558
REMARK INTER + INTRA:          -8.799
REMARK INTER:                  -7.798
REMARK INTRA:                  -1.001
REMARK UNBOUND:                -1.219
REMARK  Name = 
REMARK  6 active torsions:
REMARK  status: ('A' for Active; 'I' for Inactive)
REMARK    1  A    between atoms: C_2  and  C_3
REMARK    2  A    between atoms: C_3  and  C_4
REMARK    3  A    between atoms: C_4  and  C_5
REMARK    4  A    between atoms: N_10  and  C_11
REMARK    5  A    between atoms: N_14  and  C_15
REMARK    6  A    between atoms: C_15  and  C_16
REMARK                            x       y       z     vdW  Elec       q    Type
REMARK                         _______ _______ _______ _____ _____    ______ ____
ROOT
ATOM      1  C   UNL     1       2.225   3.398  19.642  0.00  0.00    +0.020 C 
ATOM      2  C   UNL     1       1.229   4.128  18.736  0.00  0.00    -0.049 C 
ATOM      3  C   UNL     1       1.612   5.589  18.537  0.00  0.00    -0.089 C 
ATOM      4  N   UNL     1       1.737   6.288  19.868  0.00  0.00    +0.382 N 
ATOM      5  C   UNL     1       2.730   5.596  20.781  0.00  0.00    -0.089 C 
ATOM      6  C   UNL     1       2.311   4.150  20.976  0.00  0.00    -0.049 C 
ATOM      7  H   UNL     1       1.861   2.381  19.831  0.00  0.00    +0.050 HD
ATOM      8  H   UNL     1       1.170   3.635  17.759  0.00  0.00    +0.026 HD
ATOM      9  H   UNL     1       0.227   4.075  19.180  0.00  0.00    +0.026 HD
ATOM     10  H   UNL     1       0.833   6.108  17.968  0.00  0.00    +0.006 HD
ATOM     11  H   UNL     1       2.569   5.695  18.013  0.00  0.00    +0.006 HD
ATOM     12  H   UNL     1       0.823   6.253  20.335  0.00  0.00    -0.081 HD
ATOM     13  H   UNL     1       2.717   6.115  21.742  0.00  0.00    +0.006 HD
ATOM     14  H   UNL     1       3.723   5.688  20.329  0.00  0.00    +0.006 HD
ATOM     15  H   UNL     1       2.998   3.669  21.676  0.00  0.00    +0.026 HD
ATOM     16  H   UNL     1       1.327   4.124  21.461  0.00  0.00    +0.026 HD
ENDROOT
BRANCH   1  19
ATOM     17  O   UNL     1       2.743   1.850  17.297  0.00  0.00    -0.276 OA
ATOM     18  C   UNL     1       3.622   2.565  17.759  0.00  0.00    +0.213 C 
ATOM     19  N   UNL     1       3.505   3.255  18.953  0.00  0.00    -0.313 N 
ATOM     20  H   UNL     1       4.129   4.069  18.973  0.00  0.00    +0.149 HD
BRANCH  18  21
ATOM     21  C   UNL     1       4.953   2.770  17.069  0.00  0.00    +0.026 C 
ATOM     22  H   UNL     1       5.101   1.943  16.363  0.00  0.00    +0.036 HD
ATOM     23  H   UNL     1       5.758   2.683  17.808  0.00  0.00    +0.036 HD
BRANCH  21  24
ATOM     24  C   UNL     1       5.049   4.103  16.329  0.00  0.00    -0.018 C 
ATOM     25  H   UNL     1       5.459   3.886  15.334  0.00  0.00    +0.029 HD
ATOM     26  H   UNL     1       4.045   4.515  16.169  0.00  0.00    +0.029 HD
BRANCH  24  27
ATOM     27  C   UNL     1       5.911   5.165  17.017  0.00  0.00    +0.059 C 
ATOM     28  C   UNL     1       7.333   4.702  17.302  0.00  0.00    -0.025 C 
ATOM     29  C   UNL     1       7.677   5.492  18.539  0.00  0.00    -0.027 C 
ATOM     30  C   UNL     1       6.362   5.477  19.282  0.00  0.00    +0.048 C 
ATOM     31  O   UNL     1       5.331   5.562  18.281  0.00  0.00    -0.377 OA
ATOM     32  H   UNL     1       5.943   6.070  16.398  0.00  0.00    +0.060 HD
ATOM     33  H   UNL     1       8.014   4.887  16.465  0.00  0.00    +0.029 HD
ATOM     34  H   UNL     1       7.364   3.629  17.531  0.00  0.00    +0.029 HD
ATOM     35  H   UNL     1       7.941   6.520  18.264  0.00  0.00    +0.029 HD
ATOM     36  H   UNL     1       8.500   5.064  19.116  0.00  0.00    +0.029 HD
ATOM     37  H   UNL     1       6.260   6.308  19.986  0.00  0.00    +0.056 HD
ATOM     38  H   UNL     1       6.221   4.534  19.825  0.00  0.00    +0.056 HD
ENDBRANCH  24  27
ENDBRANCH  21  24
ENDBRANCH  18  21
ENDBRANCH   1  19
BRANCH   4  39
ATOM     39  C   UNL     1       2.057   7.758  19.681  0.00  0.00    -0.064 C 
ATOM     40  H   UNL     1       3.126   7.890  19.884  0.00  0.00    +0.011 HD
ATOM     41  H   UNL     1       1.885   7.997  18.624  0.00  0.00    +0.011 HD
BRANCH  39  42
ATOM     42  C   UNL     1       1.205   8.663  20.529  0.00  0.00    -0.064 A 
ATOM     43  C   UNL     1       0.413   9.660  19.934  0.00  0.00    -0.058 A 
ATOM     44  C   UNL     1      -0.392  10.485  20.722  0.00  0.00    -0.026 A 
ATOM     45  C   UNL     1      -0.412  10.315  22.101  0.00  0.00    +0.123 A 
ATOM     46  F   UNL     1      -1.189  11.103  22.852  0.00  0.00    -0.205 F 
ATOM     47  C   UNL     1       0.368   9.340  22.710  0.00  0.00    -0.026 A 
ATOM     48  C   UNL     1       1.179   8.516  21.927  0.00  0.00    -0.058 A 
ATOM     49  H   UNL     1       0.419   9.820  18.858  0.00  0.00    +0.062 HD
ATOM     50  H   UNL     1      -1.007  11.264  20.275  0.00  0.00    +0.065 HD
ATOM     51  H   UNL     1       0.340   9.233  23.791  0.00  0.00    +0.065 HD
ATOM     52  H   UNL     1       1.792   7.766  22.427  0.00  0.00    +0.062 HD
ENDBRANCH  39  42
ENDBRANCH   4  39
TORSDOF 6
ENDMDL
MODEL 23
REMARK VINA RESULT:    -5.504      6.728      8.984
REMARK INTER + INTRA:          -8.653
REMARK INTER:                  -7.813
REMARK INTRA:                  -0.840
REMARK UNBOUND:                -1.219
REMARK  Name = 
REMARK  6 active torsions:
REMARK  status: ('A' for Active; 'I' for Inactive)
REMARK    1  A    between atoms: C_2  and  C_3
REMARK    2  A    between atoms: C_3  and  C_4
REMARK    3  A    between atoms: C_4  and  C_5
REMARK    4  A    between atoms: N_10  and  C_11
REMARK    5  A    between atoms: N_14  and  C_15
REMARK    6  A    between atoms: C_15  and  C_16
REMARK                            x       y       z     vdW  Elec       q    Type
REMARK                         _______ _______ _______ _____ _____    ______ ____
ROOT
ATOM      1  C   UNL     1       0.748  11.054  20.350  0.00  0.00    +0.020 C 
ATOM      2  C   UNL     1       1.625  11.198  19.103  0.00  0.00    -0.049 C 
ATOM      3  C   UNL     1       1.577   9.951  18.230  0.00  0.00    -0.089 C 
ATOM      4  N   UNL     1       1.975   8.734  19.027  0.00  0.00    +0.382 N 
ATOM      5  C   UNL     1       1.111   8.556  20.260  0.00  0.00    -0.089 C 
ATOM      6  C   UNL     1       1.196   9.805  21.118  0.00  0.00    -0.049 C 
ATOM      7  H   UNL     1       0.885  11.933  20.991  0.00  0.00    +0.050 HD
ATOM      8  H   UNL     1       1.307  12.065  18.512  0.00  0.00    +0.026 HD
ATOM      9  H   UNL     1       2.662  11.386  19.409  0.00  0.00    +0.026 HD
ATOM     10  H   UNL     1       2.286  10.044  17.401  0.00  0.00    +0.006 HD
ATOM     11  H   UNL     1       0.574   9.772  17.825  0.00  0.00    +0.006 HD
ATOM     12  H   UNL     1       2.941   8.865  19.351  0.00  0.00    -0.081 HD
ATOM     13  H   UNL     1       1.499   7.699  20.818  0.00  0.00    +0.006 HD
ATOM     14  H   UNL     1       0.089   8.343  19.927  0.00  0.00    +0.006 HD
ATOM     15  H   UNL     1       0.615   9.653  22.031  0.00  0.00    +0.026 HD
ATOM     16  H   UNL     1       2.234   9.945  21.447  0.00  0.00    +0.026 HD
ENDROOT
BRANCH   1  19
ATOM     17  O   UNL     1      -1.360  12.589  21.518  0.00  0.00    -0.276 OA
ATOM     18  C   UNL     1      -1.583  11.909  20.525  0.00  0.00    +0.213 C 
ATOM     19  N   UNL     1      -0.661  11.044  19.962  0.00  0.00    -0.313 N 
ATOM     20  H   UNL     1      -0.861  10.883  18.969  0.00  0.00    +0.149 HD
BRANCH  18  21
ATOM     21  C   UNL     1      -2.910  11.937  19.798  0.00  0.00    +0.026 C 
ATOM     22  H   UNL     1      -3.497  12.775  20.193  0.00  0.00    +0.036 HD
ATOM     23  H   UNL     1      -3.473  11.030  20.044  0.00  0.00    +0.036 HD
BRANCH  21  24
ATOM     24  C   UNL     1      -2.764  12.080  18.283  0.00  0.00    -0.018 C 
ATOM     25  H   UNL     1      -3.296  12.996  17.998  0.00  0.00    +0.029 HD
ATOM     26  H   UNL     1      -1.710  12.239  18.022  0.00  0.00    +0.029 HD
BRANCH  24  27
ATOM     27  C   UNL     1      -3.298  10.900  17.467  0.00  0.00    +0.059 C 
ATOM     28  C   UNL     1      -2.202  10.010  16.898  0.00  0.00    -0.025 C 
ATOM     29  C   UNL     1      -2.845   9.490  15.636  0.00  0.00    -0.027 C 
ATOM     30  C   UNL     1      -3.611  10.704  15.165  0.00  0.00    +0.048 C 
ATOM     31  O   UNL     1      -4.093  11.363  16.351  0.00  0.00    -0.377 OA
ATOM     32  H   UNL     1      -3.968  10.295  18.090  0.00  0.00    +0.060 HD
ATOM     33  H   UNL     1      -1.899   9.217  17.588  0.00  0.00    +0.029 HD
ATOM     34  H   UNL     1      -1.309  10.593  16.640  0.00  0.00    +0.029 HD
ATOM     35  H   UNL     1      -3.541   8.678  15.880  0.00  0.00    +0.029 HD
ATOM     36  H   UNL     1      -2.128   9.123  14.899  0.00  0.00    +0.029 HD
ATOM     37  H   UNL     1      -4.454  10.451  14.516  0.00  0.00    +0.056 HD
ATOM     38  H   UNL     1      -2.956  11.408  14.638  0.00  0.00    +0.056 HD
ENDBRANCH  24  27
ENDBRANCH  21  24
ENDBRANCH  18  21
ENDBRANCH   1  19
BRANCH   4  39
ATOM     39  C   UNL     1       1.991   7.495  18.153  0.00  0.00    -0.064 C 
ATOM     40  H   UNL     1       1.142   6.870  18.453  0.00  0.00    +0.011 HD
ATOM     41  H   UNL     1       1.818   7.822  17.121  0.00  0.00    +0.011 HD
BRANCH  39  42
ATOM     42  C   UNL     1       3.293   6.743  18.213  0.00  0.00    -0.064 A 
ATOM     43  C   UNL     1       3.515   5.780  19.213  0.00  0.00    -0.058 A 
ATOM     44  C   UNL     1       4.716   5.069  19.254  0.00  0.00    -0.026 A 
ATOM     45  C   UNL     1       5.693   5.313  18.297  0.00  0.00    +0.123 A 
ATOM     46  F   UNL     1       6.841   4.627  18.336  0.00  0.00    -0.205 F 
ATOM     47  C   UNL     1       5.497   6.265  17.304  0.00  0.00    -0.026 A 
ATOM     48  C   UNL     1       4.300   6.983  17.262  0.00  0.00    -0.058 A 
ATOM     49  H   UNL     1       2.769   5.578  19.979  0.00  0.00    +0.062 HD
ATOM     50  H   UNL     1       4.903   4.325  20.025  0.00  0.00    +0.065 HD
ATOM     51  H   UNL     1       6.281   6.442  16.573  0.00  0.00    +0.065 HD
ATOM     52  H   UNL     1       4.173   7.732  16.482  0.00  0.00    +0.062 HD
ENDBRANCH  39  42
ENDBRANCH   4  39
TORSDOF 6
ENDMDL
MODEL 24
REMARK VINA RESULT:    -5.440      8.355     10.242
REMARK INTER + INTRA:          -8.566
REMARK INTER:                  -7.498
REMARK INTRA:                  -1.068
REMARK UNBOUND:                -1.219
REMARK  Name = 
REMARK  6 active torsions:
REMARK  status: ('A' for Active; 'I' for Inactive)
REMARK    1  A    between atoms: C_2  and  C_3
REMARK    2  A    between atoms: C_3  and  C_4
REMARK    3  A    between atoms: C_4  and  C_5
REMARK    4  A    between atoms: N_10  and  C_11
REMARK    5  A    between atoms: N_14  and  C_15
REMARK    6  A    between atoms: C_15  and  C_16
REMARK                            x       y       z     vdW  Elec       q    Type
REMARK                         _______ _______ _______ _____ _____    ______ ____
ROOT
ATOM      1  C   UNL     1      -2.179  12.269  18.344  0.00  0.00    +0.020 C 
ATOM      2  C   UNL     1      -2.132  10.767  18.052  0.00  0.00    -0.049 C 
ATOM      3  C   UNL     1      -1.309  10.015  19.090  0.00  0.00    -0.089 C 
ATOM      4  N   UNL     1       0.083  10.589  19.177  0.00  0.00    +0.382 N 
ATOM      5  C   UNL     1       0.067  12.073  19.482  0.00  0.00    -0.089 C 
ATOM      6  C   UNL     1      -0.742  12.797  18.421  0.00  0.00    -0.049 C 
ATOM      7  H   UNL     1      -2.701  12.779  17.526  0.00  0.00    +0.050 HD
ATOM      8  H   UNL     1      -3.145  10.351  18.025  0.00  0.00    +0.026 HD
ATOM      9  H   UNL     1      -1.695  10.604  17.059  0.00  0.00    +0.026 HD
ATOM     10  H   UNL     1      -1.211   8.963  18.803  0.00  0.00    +0.006 HD
ATOM     11  H   UNL     1      -1.756  10.073  20.089  0.00  0.00    +0.006 HD
ATOM     12  H   UNL     1       0.534  10.474  18.261  0.00  0.00    -0.081 HD
ATOM     13  H   UNL     1       1.100  12.429  19.463  0.00  0.00    +0.006 HD
ATOM     14  H   UNL     1      -0.347  12.206  20.488  0.00  0.00    +0.006 HD
ATOM     15  H   UNL     1      -0.707  13.872  18.614  0.00  0.00    +0.026 HD
ATOM     16  H   UNL     1      -0.260  12.655  17.444  0.00  0.00    +0.026 HD
ENDROOT
BRANCH   1  19
ATOM     17  O   UNL     1      -5.030  12.300  18.544  0.00  0.00    -0.276 OA
ATOM     18  C   UNL     1      -4.350  12.397  19.557  0.00  0.00    +0.213 C 
ATOM     19  N   UNL     1      -2.970  12.512  19.549  0.00  0.00    -0.313 N 
ATOM     20  H   UNL     1      -2.566  12.188  20.435  0.00  0.00    +0.149 HD
BRANCH  18  21
ATOM     21  C   UNL     1      -4.950  12.407  20.946  0.00  0.00    +0.026 C 
ATOM     22  H   UNL     1      -4.573  11.531  21.486  0.00  0.00    +0.036 HD
ATOM     23  H   UNL     1      -6.035  12.271  20.868  0.00  0.00    +0.036 HD
BRANCH  21  24
ATOM     24  C   UNL     1      -4.627  13.677  21.732  0.00  0.00    -0.018 C 
ATOM     25  H   UNL     1      -4.250  14.411  21.008  0.00  0.00    +0.029 HD
ATOM     26  H   UNL     1      -5.547  14.101  22.154  0.00  0.00    +0.029 HD
BRANCH  24  27
ATOM     27  C   UNL     1      -3.608  13.499  22.860  0.00  0.00    +0.059 C 
ATOM     28  C   UNL     1      -2.414  14.438  22.753  0.00  0.00    -0.025 C 
ATOM     29  C   UNL     1      -1.319  13.626  23.396  0.00  0.00    -0.027 C 
ATOM     30  C   UNL     1      -1.651  12.234  22.912  0.00  0.00    +0.048 C 
ATOM     31  O   UNL     1      -3.088  12.150  22.878  0.00  0.00    -0.377 OA
ATOM     32  H   UNL     1      -4.101  13.651  23.829  0.00  0.00    +0.060 HD
ATOM     33  H   UNL     1      -2.587  15.401  23.246  0.00  0.00    +0.029 HD
ATOM     34  H   UNL     1      -2.156  14.637  21.705  0.00  0.00    +0.029 HD
ATOM     35  H   UNL     1      -1.409  13.675  24.488  0.00  0.00    +0.029 HD
ATOM     36  H   UNL     1      -0.313  13.949  23.116  0.00  0.00    +0.029 HD
ATOM     37  H   UNL     1      -1.251  11.449  23.561  0.00  0.00    +0.056 HD
ATOM     38  H   UNL     1      -1.285  12.070  21.891  0.00  0.00    +0.056 HD
ENDBRANCH  24  27
ENDBRANCH  21  24
ENDBRANCH  18  21
ENDBRANCH   1  19
BRANCH   4  39
ATOM     39  C   UNL     1       0.931   9.809  20.163  0.00  0.00    -0.064 C 
ATOM     40  H   UNL     1       1.633  10.514  20.622  0.00  0.00    +0.011 HD
ATOM     41  H   UNL     1       0.261   9.442  20.950  0.00  0.00    +0.011 HD
BRANCH  39  42
ATOM     42  C   UNL     1       1.638   8.635  19.540  0.00  0.00    -0.064 A 
ATOM     43  C   UNL     1       2.107   8.707  18.216  0.00  0.00    -0.058 A 
ATOM     44  C   UNL     1       2.780   7.623  17.648  0.00  0.00    -0.026 A 
ATOM     45  C   UNL     1       2.991   6.473  18.397  0.00  0.00    +0.123 A 
ATOM     46  F   UNL     1       3.641   5.439  17.851  0.00  0.00    -0.205 F 
ATOM     47  C   UNL     1       2.530   6.380  19.705  0.00  0.00    -0.026 A 
ATOM     48  C   UNL     1       1.851   7.458  20.277  0.00  0.00    -0.058 A 
ATOM     49  H   UNL     1       1.945   9.592  17.606  0.00  0.00    +0.062 HD
ATOM     50  H   UNL     1       3.143   7.663  16.623  0.00  0.00    +0.065 HD
ATOM     51  H   UNL     1       2.701   5.466  20.266  0.00  0.00    +0.065 HD
ATOM     52  H   UNL     1       1.489   7.358  21.299  0.00  0.00    +0.062 HD
ENDBRANCH  39  42
ENDBRANCH   4  39
TORSDOF 6
ENDMDL
MODEL 25
REMARK VINA RESULT:    -5.408      4.821      7.074
REMARK INTER + INTRA:          -8.523
REMARK INTER:                  -8.229
REMARK INTRA:                  -0.294
REMARK UNBOUND:                -1.219
REMARK  Name = 
REMARK  6 active torsions:
REMARK  status: ('A' for Active; 'I' for Inactive)
REMARK    1  A    between atoms: C_2  and  C_3
REMARK    2  A    between atoms: C_3  and  C_4
REMARK    3  A    between atoms: C_4  and  C_5
REMARK    4  A    between atoms: N_10  and  C_11
REMARK    5  A    between atoms: N_14  and  C_15
REMARK    6  A    between atoms: C_15  and  C_16
REMARK                            x       y       z     vdW  Elec       q    Type
REMARK                         _______ _______ _______ _____ _____    ______ ____
ROOT
ATOM      1  C   UNL     1       2.539   5.439  18.171  0.00  0.00    +0.020 C 
ATOM      2  C   UNL     1       2.006   6.855  17.935  0.00  0.00    -0.049 C 
ATOM      3  C   UNL     1       2.295   7.773  19.116  0.00  0.00    -0.089 C 
ATOM      4  N   UNL     1       1.728   7.191  20.387  0.00  0.00    +0.382 N 
ATOM      5  C   UNL     1       2.252   5.795  20.656  0.00  0.00    -0.089 C 
ATOM      6  C   UNL     1       1.931   4.901  19.472  0.00  0.00    -0.049 C 
ATOM      7  H   UNL     1       2.228   4.794  17.341  0.00  0.00    +0.050 HD
ATOM      8  H   UNL     1       2.449   7.283  17.029  0.00  0.00    +0.026 HD
ATOM      9  H   UNL     1       0.922   6.812  17.769  0.00  0.00    +0.026 HD
ATOM     10  H   UNL     1       1.819   8.747  18.962  0.00  0.00    +0.006 HD
ATOM     11  H   UNL     1       3.371   7.920  19.267  0.00  0.00    +0.006 HD
ATOM     12  H   UNL     1       0.709   7.116  20.278  0.00  0.00    -0.081 HD
ATOM     13  H   UNL     1       1.750   5.416  21.549  0.00  0.00    +0.006 HD
ATOM     14  H   UNL     1       3.328   5.870  20.845  0.00  0.00    +0.006 HD
ATOM     15  H   UNL     1       2.262   3.883  19.691  0.00  0.00    +0.026 HD
ATOM     16  H   UNL     1       0.841   4.839  19.354  0.00  0.00    +0.026 HD
ENDROOT
BRANCH   1  19
ATOM     17  O   UNL     1       4.256   3.582  16.843  0.00  0.00    -0.276 OA
ATOM     18  C   UNL     1       4.735   4.567  17.389  0.00  0.00    +0.213 C 
ATOM     19  N   UNL     1       4.000   5.455  18.156  0.00  0.00    -0.313 N 
ATOM     20  H   UNL     1       4.448   6.376  18.188  0.00  0.00    +0.149 HD
BRANCH  18  21
ATOM     21  C   UNL     1       6.202   4.923  17.289  0.00  0.00    +0.026 C 
ATOM     22  H   UNL     1       6.685   4.644  18.234  0.00  0.00    +0.036 HD
ATOM     23  H   UNL     1       6.302   6.012  17.209  0.00  0.00    +0.036 HD
BRANCH  21  24
ATOM     24  C   UNL     1       6.912   4.235  16.124  0.00  0.00    -0.018 C 
ATOM     25  H   UNL     1       7.987   4.402  16.264  0.00  0.00    +0.029 HD
ATOM     26  H   UNL     1       6.756   3.150  16.180  0.00  0.00    +0.029 HD
BRANCH  24  27
ATOM     27  C   UNL     1       6.494   4.719  14.733  0.00  0.00    +0.059 C 
ATOM     28  C   UNL     1       6.066   3.593  13.803  0.00  0.00    -0.025 C 
ATOM     29  C   UNL     1       6.447   4.143  12.451  0.00  0.00    -0.027 C 
ATOM     30  C   UNL     1       7.741   4.855  12.769  0.00  0.00    +0.048 C 
ATOM     31  O   UNL     1       7.579   5.420  14.084  0.00  0.00    -0.377 OA
ATOM     32  H   UNL     1       5.674   5.442  14.826  0.00  0.00    +0.060 HD
ATOM     33  H   UNL     1       5.001   3.354  13.889  0.00  0.00    +0.029 HD
ATOM     34  H   UNL     1       6.635   2.676  13.999  0.00  0.00    +0.029 HD
ATOM     35  H   UNL     1       5.693   4.865  12.116  0.00  0.00    +0.029 HD
ATOM     36  H   UNL     1       6.557   3.375  11.682  0.00  0.00    +0.029 HD
ATOM     37  H   UNL     1       7.978   5.648  12.054  0.00  0.00    +0.056 HD
ATOM     38  H   UNL     1       8.582   4.152  12.811  0.00  0.00    +0.056 HD
ENDBRANCH  24  27
ENDBRANCH  21  24
ENDBRANCH  18  21
ENDBRANCH   1  19
BRANCH   4  39
ATOM     39  C   UNL     1       1.956   8.126  21.559  0.00  0.00    -0.064 C 
ATOM     40  H   UNL     1       2.048   7.507  22.459  0.00  0.00    +0.011 HD
ATOM     41  H   UNL     1       2.918   8.625  21.396  0.00  0.00    +0.011 HD
BRANCH  39  42
ATOM     42  C   UNL     1       0.883   9.172  21.701  0.00  0.00    -0.064 A 
ATOM     43  C   UNL     1       0.186   9.319  22.914  0.00  0.00    -0.058 A 
ATOM     44  C   UNL     1      -0.794  10.304  23.049  0.00  0.00    -0.026 A 
ATOM     45  C   UNL     1      -1.076  11.146  21.980  0.00  0.00    +0.123 A 
ATOM     46  F   UNL     1      -2.012  12.092  22.115  0.00  0.00    -0.205 F 
ATOM     47  C   UNL     1      -0.404  11.014  20.772  0.00  0.00    -0.026 A 
ATOM     48  C   UNL     1       0.573  10.027  20.629  0.00  0.00    -0.058 A 
ATOM     49  H   UNL     1       0.382   8.665  23.761  0.00  0.00    +0.062 HD
ATOM     50  H   UNL     1      -1.344  10.425  23.980  0.00  0.00    +0.065 HD
ATOM     51  H   UNL     1      -0.650  11.680  19.950  0.00  0.00    +0.065 HD
ATOM     52  H   UNL     1       1.080   9.934  19.669  0.00  0.00    +0.062 HD
ENDBRANCH  39  42
ENDBRANCH   4  39
TORSDOF 6
ENDMDL
MODEL 26
REMARK VINA RESULT:    -5.370      7.457     10.105
REMARK INTER + INTRA:          -8.472
REMARK INTER:                  -7.731
REMARK INTRA:                  -0.742
REMARK UNBOUND:                -1.219
REMARK  Name = 
REMARK  6 active torsions:
REMARK  status: ('A' for Active; 'I' for Inactive)
REMARK    1  A    between atoms: C_2  and  C_3
REMARK    2  A    between atoms: C_3  and  C_4
REMARK    3  A    between atoms: C_4  and  C_5
REMARK    4  A    between atoms: N_10  and  C_11
REMARK    5  A    between atoms: N_14  and  C_15
REMARK    6  A    between atoms: C_15  and  C_16
REMARK                            x       y       z     vdW  Elec       q    Type
REMARK                         _______ _______ _______ _____ _____    ______ ____
ROOT
ATOM      1  C   UNL     1       0.807  10.203  18.537  0.00  0.00    +0.020 C 
ATOM      2  C   UNL     1       1.564  11.259  19.347  0.00  0.00    -0.049 C 
ATOM      3  C   UNL     1       1.104  11.295  20.799  0.00  0.00    -0.089 C 
ATOM      4  N   UNL     1      -0.384  11.526  20.875  0.00  0.00    +0.382 N 
ATOM      5  C   UNL     1      -1.161  10.484  20.096  0.00  0.00    -0.089 C 
ATOM      6  C   UNL     1      -0.696  10.486  18.651  0.00  0.00    -0.049 C 
ATOM      7  H   UNL     1       1.103  10.275  17.484  0.00  0.00    +0.050 HD
ATOM      8  H   UNL     1       2.642  11.065  19.314  0.00  0.00    +0.026 HD
ATOM      9  H   UNL     1       1.406  12.246  18.894  0.00  0.00    +0.026 HD
ATOM     10  H   UNL     1       1.590  12.122  21.327  0.00  0.00    +0.006 HD
ATOM     11  H   UNL     1       1.324  10.358  21.322  0.00  0.00    +0.006 HD
ATOM     12  H   UNL     1      -0.589  12.437  20.449  0.00  0.00    -0.081 HD
ATOM     13  H   UNL     1      -2.219  10.753  20.142  0.00  0.00    +0.006 HD
ATOM     14  H   UNL     1      -1.008   9.515  20.585  0.00  0.00    +0.006 HD
ATOM     15  H   UNL     1      -1.294   9.771  18.080  0.00  0.00    +0.026 HD
ATOM     16  H   UNL     1      -0.905  11.468  18.208  0.00  0.00    +0.026 HD
ENDROOT
BRANCH   1  19
ATOM     17  O   UNL     1       2.726   8.481  17.305  0.00  0.00    -0.276 OA
ATOM     18  C   UNL     1       2.220   8.160  18.372  0.00  0.00    +0.213 C 
ATOM     19  N   UNL     1       1.199   8.867  18.983  0.00  0.00    -0.313 N 
ATOM     20  H   UNL     1       1.186   8.700  19.995  0.00  0.00    +0.149 HD
BRANCH  18  21
ATOM     21  C   UNL     1       2.658   6.937  19.147  0.00  0.00    +0.026 C 
ATOM     22  H   UNL     1       1.851   6.665  19.838  0.00  0.00    +0.036 HD
ATOM     23  H   UNL     1       3.518   7.199  19.775  0.00  0.00    +0.036 HD
BRANCH  21  24
ATOM     24  C   UNL     1       2.995   5.745  18.252  0.00  0.00    -0.018 C 
ATOM     25  H   UNL     1       2.446   5.889  17.312  0.00  0.00    +0.029 HD
ATOM     26  H   UNL     1       4.061   5.759  17.995  0.00  0.00    +0.029 HD
BRANCH  24  27
ATOM     27  C   UNL     1       2.651   4.374  18.841  0.00  0.00    +0.059 C 
ATOM     28  C   UNL     1       1.464   3.703  18.163  0.00  0.00    -0.025 C 
ATOM     29  C   UNL     1       0.885   2.882  19.287  0.00  0.00    -0.027 C 
ATOM     30  C   UNL     1       1.081   3.805  20.467  0.00  0.00    +0.048 C 
ATOM     31  O   UNL     1       2.333   4.482  20.247  0.00  0.00    -0.377 OA
ATOM     32  H   UNL     1       3.525   3.715  18.774  0.00  0.00    +0.060 HD
ATOM     33  H   UNL     1       1.756   3.104  17.294  0.00  0.00    +0.029 HD
ATOM     34  H   UNL     1       0.725   4.442  17.830  0.00  0.00    +0.029 HD
ATOM     35  H   UNL     1       1.475   1.968  19.424  0.00  0.00    +0.029 HD
ATOM     36  H   UNL     1      -0.159   2.601  19.131  0.00  0.00    +0.029 HD
ATOM     37  H   UNL     1       1.112   3.275  21.423  0.00  0.00    +0.056 HD
ATOM     38  H   UNL     1       0.294   4.569  20.510  0.00  0.00    +0.056 HD
ENDBRANCH  24  27
ENDBRANCH  21  24
ENDBRANCH  18  21
ENDBRANCH   1  19
BRANCH   4  39
ATOM     39  C   UNL     1      -0.844  11.625  22.317  0.00  0.00    -0.064 C 
ATOM     40  H   UNL     1      -1.100  10.614  22.651  0.00  0.00    +0.011 HD
ATOM     41  H   UNL     1       0.013  11.966  22.910  0.00  0.00    +0.011 HD
BRANCH  39  42
ATOM     42  C   UNL     1      -1.984  12.589  22.511  0.00  0.00    -0.064 A 
ATOM     43  C   UNL     1      -2.003  13.818  21.828  0.00  0.00    -0.058 A 
ATOM     44  C   UNL     1      -3.071  14.700  21.994  0.00  0.00    -0.026 A 
ATOM     45  C   UNL     1      -4.122  14.359  22.836  0.00  0.00    +0.123 A 
ATOM     46  F   UNL     1      -5.147  15.205  22.989  0.00  0.00    -0.205 F 
ATOM     47  C   UNL     1      -4.120  13.153  23.526  0.00  0.00    -0.026 A 
ATOM     48  C   UNL     1      -3.051  12.269  23.367  0.00  0.00    -0.058 A 
ATOM     49  H   UNL     1      -1.187  14.112  21.171  0.00  0.00    +0.062 HD
ATOM     50  H   UNL     1      -3.096  15.657  21.475  0.00  0.00    +0.065 HD
ATOM     51  H   UNL     1      -4.951  12.914  24.184  0.00  0.00    +0.065 HD
ATOM     52  H   UNL     1      -3.065  11.334  23.927  0.00  0.00    +0.062 HD
ENDBRANCH  39  42
ENDBRANCH   4  39
TORSDOF 6
ENDMDL
MODEL 27
REMARK VINA RESULT:    -5.370      5.075      7.687
REMARK INTER + INTRA:          -8.472
REMARK INTER:                  -8.167
REMARK INTRA:                  -0.305
REMARK UNBOUND:                -1.219
REMARK  Name = 
REMARK  6 active torsions:
REMARK  status: ('A' for Active; 'I' for Inactive)
REMARK    1  A    between atoms: C_2  and  C_3
REMARK    2  A    between atoms: C_3  and  C_4
REMARK    3  A    between atoms: C_4  and  C_5
REMARK    4  A    between atoms: N_10  and  C_11
REMARK    5  A    between atoms: N_14  and  C_15
REMARK    6  A    between atoms: C_15  and  C_16
REMARK                            x       y       z     vdW  Elec       q    Type
REMARK                         _______ _______ _______ _____ _____    ______ ____
ROOT
ATOM      1  C   UNL     1       1.505   5.594  19.840  0.00  0.00    +0.020 C 
ATOM      2  C   UNL     1       2.140   4.268  20.268  0.00  0.00    -0.049 C 
ATOM      3  C   UNL     1       3.659   4.306  20.154  0.00  0.00    -0.089 C 
ATOM      4  N   UNL     1       4.074   4.671  18.751  0.00  0.00    +0.382 N 
ATOM      5  C   UNL     1       3.473   5.989  18.306  0.00  0.00    -0.089 C 
ATOM      6  C   UNL     1       1.961   5.914  18.411  0.00  0.00    -0.049 C 
ATOM      7  H   UNL     1       0.413   5.490  19.849  0.00  0.00    +0.050 HD
ATOM      8  H   UNL     1       1.862   4.027  21.300  0.00  0.00    +0.026 HD
ATOM      9  H   UNL     1       1.751   3.459  19.637  0.00  0.00    +0.026 HD
ATOM     10  H   UNL     1       4.077   3.318  20.372  0.00  0.00    +0.006 HD
ATOM     11  H   UNL     1       4.103   5.041  20.836  0.00  0.00    +0.006 HD
ATOM     12  H   UNL     1       3.720   3.947  18.114  0.00  0.00    -0.081 HD
ATOM     13  H   UNL     1       3.762   6.153  17.265  0.00  0.00    +0.006 HD
ATOM     14  H   UNL     1       3.898   6.781  18.933  0.00  0.00    +0.006 HD
ATOM     15  H   UNL     1       1.528   6.845  18.040  0.00  0.00    +0.026 HD
ATOM     16  H   UNL     1       1.593   5.127  17.739  0.00  0.00    +0.026 HD
ENDROOT
BRANCH   1  19
ATOM     17  O   UNL     1       0.880   8.376  19.651  0.00  0.00    -0.276 OA
ATOM     18  C   UNL     1       1.382   7.935  20.676  0.00  0.00    +0.213 C 
ATOM     19  N   UNL     1       1.828   6.632  20.816  0.00  0.00    -0.313 N 
ATOM     20  H   UNL     1       1.836   6.347  21.802  0.00  0.00    +0.149 HD
BRANCH  18  21
ATOM     21  C   UNL     1       1.578   8.779  21.917  0.00  0.00    +0.026 C 
ATOM     22  H   UNL     1       2.177   9.655  21.641  0.00  0.00    +0.036 HD
ATOM     23  H   UNL     1       2.180   8.217  22.641  0.00  0.00    +0.036 HD
BRANCH  21  24
ATOM     24  C   UNL     1       0.264   9.231  22.552  0.00  0.00    -0.018 C 
ATOM     25  H   UNL     1      -0.532   8.624  22.100  0.00  0.00    +0.029 HD
ATOM     26  H   UNL     1       0.265   8.995  23.623  0.00  0.00    +0.029 HD
BRANCH  24  27
ATOM     27  C   UNL     1      -0.063  10.716  22.378  0.00  0.00    +0.059 C 
ATOM     28  C   UNL     1      -1.327  11.148  23.108  0.00  0.00    -0.025 C 
ATOM     29  C   UNL     1      -1.821  12.276  22.236  0.00  0.00    -0.027 C 
ATOM     30  C   UNL     1      -1.488  11.758  20.856  0.00  0.00    +0.048 C 
ATOM     31  O   UNL     1      -0.243  11.045  20.982  0.00  0.00    -0.377 OA
ATOM     32  H   UNL     1       0.782  11.322  22.729  0.00  0.00    +0.060 HD
ATOM     33  H   UNL     1      -1.137  11.452  24.142  0.00  0.00    +0.029 HD
ATOM     34  H   UNL     1      -2.073  10.344  23.124  0.00  0.00    +0.029 HD
ATOM     35  H   UNL     1      -1.248  13.187  22.444  0.00  0.00    +0.029 HD
ATOM     36  H   UNL     1      -2.883  12.496  22.366  0.00  0.00    +0.029 HD
ATOM     37  H   UNL     1      -1.382  12.557  20.115  0.00  0.00    +0.056 HD
ATOM     38  H   UNL     1      -2.244  11.046  20.504  0.00  0.00    +0.056 HD
ENDBRANCH  24  27
ENDBRANCH  21  24
ENDBRANCH  18  21
ENDBRANCH   1  19
BRANCH   4  39
ATOM     39  C   UNL     1       5.583   4.652  18.610  0.00  0.00    -0.064 C 
ATOM     40  H   UNL     1       5.976   5.516  19.157  0.00  0.00    +0.011 HD
ATOM     41  H   UNL     1       5.947   3.746  19.110  0.00  0.00    +0.011 HD
BRANCH  39  42
ATOM     42  C   UNL     1       6.046   4.634  17.177  0.00  0.00    -0.064 A 
ATOM     43  C   UNL     1       5.346   3.889  16.212  0.00  0.00    -0.058 A 
ATOM     44  C   UNL     1       5.765   3.892  14.880  0.00  0.00    -0.026 A 
ATOM     45  C   UNL     1       6.876   4.639  14.509  0.00  0.00    +0.123 A 
ATOM     46  F   UNL     1       7.271   4.643  13.231  0.00  0.00    -0.205 F 
ATOM     47  C   UNL     1       7.585   5.377  15.448  0.00  0.00    -0.026 A 
ATOM     48  C   UNL     1       7.174   5.374  16.782  0.00  0.00    -0.058 A 
ATOM     49  H   UNL     1       4.480   3.288  16.480  0.00  0.00    +0.062 HD
ATOM     50  H   UNL     1       5.236   3.315  14.123  0.00  0.00    +0.065 HD
ATOM     51  H   UNL     1       8.455   5.946  15.132  0.00  0.00    +0.065 HD
ATOM     52  H   UNL     1       7.751   5.951  17.504  0.00  0.00    +0.062 HD
ENDBRANCH  39  42
ENDBRANCH   4  39
TORSDOF 6
ENDMDL
MODEL 28
REMARK VINA RESULT:    -5.275      6.341      8.718
REMARK INTER + INTRA:          -8.344
REMARK INTER:                  -7.905
REMARK INTRA:                  -0.439
REMARK UNBOUND:                -1.219
REMARK  Name = 
REMARK  6 active torsions:
REMARK  status: ('A' for Active; 'I' for Inactive)
REMARK    1  A    between atoms: C_2  and  C_3
REMARK    2  A    between atoms: C_3  and  C_4
REMARK    3  A    between atoms: C_4  and  C_5
REMARK    4  A    between atoms: N_10  and  C_11
REMARK    5  A    between atoms: N_14  and  C_15
REMARK    6  A    between atoms: C_15  and  C_16
REMARK                            x       y       z     vdW  Elec       q    Type
REMARK                         _______ _______ _______ _____ _____    ______ ____
ROOT
ATOM      1  C   UNL     1       1.035   8.315  21.632  0.00  0.00    +0.020 C 
ATOM      2  C   UNL     1      -0.415   8.356  21.141  0.00  0.00    -0.049 C 
ATOM      3  C   UNL     1      -0.647   9.498  20.161  0.00  0.00    -0.089 C 
ATOM      4  N   UNL     1      -0.254  10.815  20.782  0.00  0.00    +0.382 N 
ATOM      5  C   UNL     1       1.183  10.809  21.262  0.00  0.00    -0.089 C 
ATOM      6  C   UNL     1       1.379   9.675  22.252  0.00  0.00    -0.049 C 
ATOM      7  H   UNL     1       1.133   7.540  22.402  0.00  0.00    +0.050 HD
ATOM      8  H   UNL     1      -0.682   7.408  20.661  0.00  0.00    +0.026 HD
ATOM      9  H   UNL     1      -1.086   8.477  22.001  0.00  0.00    +0.026 HD
ATOM     10  H   UNL     1      -1.710   9.563  19.904  0.00  0.00    +0.006 HD
ATOM     11  H   UNL     1      -0.063   9.375  19.241  0.00  0.00    +0.006 HD
ATOM     12  H   UNL     1      -0.847  10.971  21.606  0.00  0.00    -0.081 HD
ATOM     13  H   UNL     1       1.374  11.765  21.756  0.00  0.00    +0.006 HD
ATOM     14  H   UNL     1       1.832  10.716  20.384  0.00  0.00    +0.006 HD
ATOM     15  H   UNL     1       2.401   9.706  22.636  0.00  0.00    +0.026 HD
ATOM     16  H   UNL     1       0.729   9.841  23.121  0.00  0.00    +0.026 HD
ENDROOT
BRANCH   1  19
ATOM     17  O   UNL     1       1.614   5.650  20.779  0.00  0.00    -0.276 OA
ATOM     18  C   UNL     1       2.041   6.599  20.136  0.00  0.00    +0.213 C 
ATOM     19  N   UNL     1       1.915   7.918  20.535  0.00  0.00    -0.313 N 
ATOM     20  H   UNL     1       1.961   8.555  19.732  0.00  0.00    +0.149 HD
BRANCH  18  21
ATOM     21  C   UNL     1       2.769   6.431  18.820  0.00  0.00    +0.026 C 
ATOM     22  H   UNL     1       3.800   6.780  18.954  0.00  0.00    +0.036 HD
ATOM     23  H   UNL     1       2.319   7.097  18.074  0.00  0.00    +0.036 HD
BRANCH  21  24
ATOM     24  C   UNL     1       2.774   4.989  18.314  0.00  0.00    -0.018 C 
ATOM     25  H   UNL     1       2.129   4.414  18.990  0.00  0.00    +0.029 HD
ATOM     26  H   UNL     1       2.309   4.939  17.321  0.00  0.00    +0.029 HD
BRANCH  24  27
ATOM     27  C   UNL     1       4.155   4.333  18.241  0.00  0.00    +0.059 C 
ATOM     28  C   UNL     1       5.235   5.109  18.982  0.00  0.00    -0.025 C 
ATOM     29  C   UNL     1       6.469   4.765  18.185  0.00  0.00    -0.027 C 
ATOM     30  C   UNL     1       5.922   4.742  16.777  0.00  0.00    +0.048 C 
ATOM     31  O   UNL     1       4.592   4.199  16.869  0.00  0.00    -0.377 OA
ATOM     32  H   UNL     1       4.100   3.315  18.645  0.00  0.00    +0.060 HD
ATOM     33  H   UNL     1       5.309   4.829  20.037  0.00  0.00    +0.029 HD
ATOM     34  H   UNL     1       5.056   6.190  18.931  0.00  0.00    +0.029 HD
ATOM     35  H   UNL     1       6.828   3.768  18.465  0.00  0.00    +0.029 HD
ATOM     36  H   UNL     1       7.287   5.478  18.316  0.00  0.00    +0.029 HD
ATOM     37  H   UNL     1       6.523   4.132  16.096  0.00  0.00    +0.056 HD
ATOM     38  H   UNL     1       5.839   5.756  16.365  0.00  0.00    +0.056 HD
ENDBRANCH  24  27
ENDBRANCH  21  24
ENDBRANCH  18  21
ENDBRANCH   1  19
BRANCH   4  39
ATOM     39  C   UNL     1      -0.539  11.967  19.837  0.00  0.00    -0.064 C 
ATOM     40  H   UNL     1      -0.605  12.879  20.441  0.00  0.00    +0.011 HD
ATOM     41  H   UNL     1       0.329  12.067  19.173  0.00  0.00    +0.011 HD
BRANCH  39  42
ATOM     42  C   UNL     1      -1.771  11.756  18.999  0.00  0.00    -0.064 A 
ATOM     43  C   UNL     1      -3.041  12.081  19.504  0.00  0.00    -0.058 A 
ATOM     44  C   UNL     1      -4.180  11.903  18.716  0.00  0.00    -0.026 A 
ATOM     45  C   UNL     1      -4.054  11.407  17.425  0.00  0.00    +0.123 A 
ATOM     46  F   UNL     1      -5.147  11.243  16.671  0.00  0.00    -0.205 F 
ATOM     47  C   UNL     1      -2.808  11.073  16.908  0.00  0.00    -0.026 A 
ATOM     48  C   UNL     1      -1.666  11.244  17.694  0.00  0.00    -0.058 A 
ATOM     49  H   UNL     1      -3.167  12.462  20.515  0.00  0.00    +0.062 HD
ATOM     50  H   UNL     1      -5.170  12.147  19.097  0.00  0.00    +0.065 HD
ATOM     51  H   UNL     1      -2.738  10.680  15.898  0.00  0.00    +0.065 HD
ATOM     52  H   UNL     1      -0.702  10.964  17.272  0.00  0.00    +0.062 HD
ENDBRANCH  39  42
ENDBRANCH   4  39
TORSDOF 6
ENDMDL
MODEL 29
REMARK VINA RESULT:    -5.259      6.421      8.633
REMARK INTER + INTRA:          -8.323
REMARK INTER:                  -7.733
REMARK INTRA:                  -0.590
REMARK UNBOUND:                -1.219
REMARK  Name = 
REMARK  6 active torsions:
REMARK  status: ('A' for Active; 'I' for Inactive)
REMARK    1  A    between atoms: C_2  and  C_3
REMARK    2  A    between atoms: C_3  and  C_4
REMARK    3  A    between atoms: C_4  and  C_5
REMARK    4  A    between atoms: N_10  and  C_11
REMARK    5  A    between atoms: N_14  and  C_15
REMARK    6  A    between atoms: C_15  and  C_16
REMARK                            x       y       z     vdW  Elec       q    Type
REMARK                         _______ _______ _______ _____ _____    ______ ____
ROOT
ATOM      1  C   UNL     1      -0.228   9.730  22.371  0.00  0.00    +0.020 C 
ATOM      2  C   UNL     1       1.249   9.574  22.744  0.00  0.00    -0.049 C 
ATOM      3  C   UNL     1       2.066   9.006  21.591  0.00  0.00    -0.089 C 
ATOM      4  N   UNL     1       1.487   7.691  21.131  0.00  0.00    +0.382 N 
ATOM      5  C   UNL     1       0.029   7.820  20.739  0.00  0.00    -0.089 C 
ATOM      6  C   UNL     1      -0.762   8.368  21.913  0.00  0.00    -0.049 C 
ATOM      7  H   UNL     1      -0.791  10.052  23.256  0.00  0.00    +0.050 HD
ATOM      8  H   UNL     1       1.671  10.539  23.044  0.00  0.00    +0.026 HD
ATOM      9  H   UNL     1       1.336   8.906  23.611  0.00  0.00    +0.026 HD
ATOM     10  H   UNL     1       3.094   8.813  21.916  0.00  0.00    +0.006 HD
ATOM     11  H   UNL     1       2.084   9.682  20.729  0.00  0.00    +0.006 HD
ATOM     12  H   UNL     1       1.532   7.030  21.915  0.00  0.00    -0.081 HD
ATOM     13  H   UNL     1      -0.337   6.823  20.483  0.00  0.00    +0.006 HD
ATOM     14  H   UNL     1      -0.027   8.467  19.857  0.00  0.00    +0.006 HD
ATOM     15  H   UNL     1      -1.820   8.410  21.645  0.00  0.00    +0.026 HD
ATOM     16  H   UNL     1      -0.695   7.662  22.751  0.00  0.00    +0.026 HD
ENDROOT
BRANCH   1  19
ATOM     17  O   UNL     1      -2.188  11.810  22.370  0.00  0.00    -0.276 OA
ATOM     18  C   UNL     1      -1.295  11.817  21.534  0.00  0.00    +0.213 C 
ATOM     19  N   UNL     1      -0.375  10.794  21.381  0.00  0.00    -0.313 N 
ATOM     20  H   UNL     1       0.487  11.134  20.942  0.00  0.00    +0.149 HD
BRANCH  18  21
ATOM     21  C   UNL     1      -1.100  12.958  20.559  0.00  0.00    +0.026 C 
ATOM     22  H   UNL     1      -0.103  13.383  20.728  0.00  0.00    +0.036 HD
ATOM     23  H   UNL     1      -1.813  13.757  20.794  0.00  0.00    +0.036 HD
BRANCH  21  24
ATOM     24  C   UNL     1      -1.239  12.532  19.098  0.00  0.00    -0.018 C 
ATOM     25  H   UNL     1      -1.546  13.424  18.536  0.00  0.00    +0.029 HD
ATOM     26  H   UNL     1      -0.260  12.236  18.700  0.00  0.00    +0.029 HD
BRANCH  24  27
ATOM     27  C   UNL     1      -2.235  11.398  18.845  0.00  0.00    +0.059 C 
ATOM     28  C   UNL     1      -1.725  10.350  17.866  0.00  0.00    -0.025 C 
ATOM     29  C   UNL     1      -3.005   9.863  17.234  0.00  0.00    -0.027 C 
ATOM     30  C   UNL     1      -3.799  11.145  17.135  0.00  0.00    +0.048 C 
ATOM     31  O   UNL     1      -3.477  11.911  18.311  0.00  0.00    -0.377 OA
ATOM     32  H   UNL     1      -2.488  10.912  19.795  0.00  0.00    +0.060 HD
ATOM     33  H   UNL     1      -1.154   9.555  18.356  0.00  0.00    +0.029 HD
ATOM     34  H   UNL     1      -1.085  10.800  17.097  0.00  0.00    +0.029 HD
ATOM     35  H   UNL     1      -3.509   9.160  17.907  0.00  0.00    +0.029 HD
ATOM     36  H   UNL     1      -2.857   9.375  16.268  0.00  0.00    +0.029 HD
ATOM     37  H   UNL     1      -4.879  10.975  17.090  0.00  0.00    +0.056 HD
ATOM     38  H   UNL     1      -3.496  11.735  16.261  0.00  0.00    +0.056 HD
ENDBRANCH  24  27
ENDBRANCH  21  24
ENDBRANCH  18  21
ENDBRANCH   1  19
BRANCH   4  39
ATOM     39  C   UNL     1       2.328   7.086  20.024  0.00  0.00    -0.064 C 
ATOM     40  H   UNL     1       2.254   7.749  19.155  0.00  0.00    +0.011 HD
ATOM     41  H   UNL     1       3.370   7.095  20.364  0.00  0.00    +0.011 HD
BRANCH  39  42
ATOM     42  C   UNL     1       1.938   5.671  19.688  0.00  0.00    -0.064 A 
ATOM     43  C   UNL     1       1.499   4.795  20.696  0.00  0.00    -0.058 A 
ATOM     44  C   UNL     1       1.119   3.489  20.378  0.00  0.00    -0.026 A 
ATOM     45  C   UNL     1       1.169   3.059  19.058  0.00  0.00    +0.123 A 
ATOM     46  F   UNL     1       0.798   1.810  18.756  0.00  0.00    -0.205 F 
ATOM     47  C   UNL     1       1.605   3.907  18.048  0.00  0.00    -0.026 A 
ATOM     48  C   UNL     1       1.992   5.212  18.361  0.00  0.00    -0.058 A 
ATOM     49  H   UNL     1       1.461   5.105  21.738  0.00  0.00    +0.062 HD
ATOM     50  H   UNL     1       0.783   2.799  21.149  0.00  0.00    +0.065 HD
ATOM     51  H   UNL     1       1.642   3.543  17.025  0.00  0.00    +0.065 HD
ATOM     52  H   UNL     1       2.341   5.856  17.555  0.00  0.00    +0.062 HD
ENDBRANCH  39  42
ENDBRANCH   4  39
TORSDOF 6
ENDMDL
MODEL 30
REMARK VINA RESULT:    -5.242      6.164      7.667
REMARK INTER + INTRA:          -8.300
REMARK INTER:                  -7.327
REMARK INTRA:                  -0.973
REMARK UNBOUND:                -1.219
REMARK  Name = 
REMARK  6 active torsions:
REMARK  status: ('A' for Active; 'I' for Inactive)
REMARK    1  A    between atoms: C_2  and  C_3
REMARK    2  A    between atoms: C_3  and  C_4
REMARK    3  A    between atoms: C_4  and  C_5
REMARK    4  A    between atoms: N_10  and  C_11
REMARK    5  A    between atoms: N_14  and  C_15
REMARK    6  A    between atoms: C_15  and  C_16
REMARK                            x       y       z     vdW  Elec       q    Type
REMARK                         _______ _______ _______ _____ _____    ______ ____
ROOT
ATOM      1  C   UNL     1      -0.976  10.404  20.001  0.00  0.00    +0.020 C 
ATOM      2  C   UNL     1      -0.174   9.323  20.732  0.00  0.00    -0.049 C 
ATOM      3  C   UNL     1       1.235   9.188  20.171  0.00  0.00    -0.089 C 
ATOM      4  N   UNL     1       1.189   8.912  18.689  0.00  0.00    +0.382 N 
ATOM      5  C   UNL     1       0.416   9.976  17.937  0.00  0.00    -0.089 C 
ATOM      6  C   UNL     1      -0.989  10.073  18.504  0.00  0.00    -0.049 C 
ATOM      7  H   UNL     1      -2.007  10.401  20.374  0.00  0.00    +0.050 HD
ATOM      8  H   UNL     1      -0.117   9.549  21.803  0.00  0.00    +0.026 HD
ATOM      9  H   UNL     1      -0.694   8.361  20.638  0.00  0.00    +0.026 HD
ATOM     10  H   UNL     1       1.750   8.345  20.644  0.00  0.00    +0.006 HD
ATOM     11  H   UNL     1       1.826  10.099  20.323  0.00  0.00    +0.006 HD
ATOM     12  H   UNL     1       0.698   8.022  18.544  0.00  0.00    -0.081 HD
ATOM     13  H   UNL     1       0.369   9.676  16.887  0.00  0.00    +0.006 HD
ATOM     14  H   UNL     1       0.968  10.918  18.023  0.00  0.00    +0.006 HD
ATOM     15  H   UNL     1      -1.560  10.802  17.926  0.00  0.00    +0.026 HD
ATOM     16  H   UNL     1      -1.501   9.112  18.359  0.00  0.00    +0.026 HD
ENDROOT
BRANCH   1  19
ATOM     17  O   UNL     1      -2.432  12.850  20.246  0.00  0.00    -0.276 OA
ATOM     18  C   UNL     1      -1.239  12.825  20.518  0.00  0.00    +0.213 C 
ATOM     19  N   UNL     1      -0.428  11.721  20.317  0.00  0.00    -0.313 N 
ATOM     20  H   UNL     1       0.386  11.740  20.941  0.00  0.00    +0.149 HD
BRANCH  18  21
ATOM     21  C   UNL     1      -0.510  14.013  21.107  0.00  0.00    +0.026 C 
ATOM     22  H   UNL     1       0.251  13.636  21.800  0.00  0.00    +0.036 HD
ATOM     23  H   UNL     1      -1.210  14.597  21.715  0.00  0.00    +0.036 HD
BRANCH  21  24
ATOM     24  C   UNL     1       0.147  14.900  20.050  0.00  0.00    -0.018 C 
ATOM     25  H   UNL     1      -0.418  14.758  19.120  0.00  0.00    +0.029 HD
ATOM     26  H   UNL     1       0.034  15.956  20.325  0.00  0.00    +0.029 HD
BRANCH  24  27
ATOM     27  C   UNL     1       1.630  14.616  19.797  0.00  0.00    +0.059 C 
ATOM     28  C   UNL     1       2.146  15.204  18.491  0.00  0.00    -0.025 C 
ATOM     29  C   UNL     1       3.236  14.230  18.119  0.00  0.00    -0.027 C 
ATOM     30  C   UNL     1       2.629  12.917  18.553  0.00  0.00    +0.048 C 
ATOM     31  O   UNL     1       1.883  13.193  19.754  0.00  0.00    -0.377 OA
ATOM     32  H   UNL     1       2.227  15.008  20.630  0.00  0.00    +0.060 HD
ATOM     33  H   UNL     1       2.502  16.233  18.601  0.00  0.00    +0.029 HD
ATOM     34  H   UNL     1       1.369  15.197  17.717  0.00  0.00    +0.029 HD
ATOM     35  H   UNL     1       4.138  14.439  18.706  0.00  0.00    +0.029 HD
ATOM     36  H   UNL     1       3.499  14.252  17.059  0.00  0.00    +0.029 HD
ATOM     37  H   UNL     1       3.379  12.146  18.754  0.00  0.00    +0.056 HD
ATOM     38  H   UNL     1       1.923  12.538  17.804  0.00  0.00    +0.056 HD
ENDBRANCH  24  27
ENDBRANCH  21  24
ENDBRANCH  18  21
ENDBRANCH   1  19
BRANCH   4  39
ATOM     39  C   UNL     1       2.585   8.715  18.131  0.00  0.00    -0.064 C 
ATOM     40  H   UNL     1       2.651   9.289  17.200  0.00  0.00    +0.011 HD
ATOM     41  H   UNL     1       3.289   9.156  18.847  0.00  0.00    +0.011 HD
BRANCH  39  42
ATOM     42  C   UNL     1       2.944   7.267  17.927  0.00  0.00    -0.064 A 
ATOM     43  C   UNL     1       2.034   6.252  18.270  0.00  0.00    -0.058 A 
ATOM     44  C   UNL     1       2.361   4.911  18.061  0.00  0.00    -0.026 A 
ATOM     45  C   UNL     1       3.591   4.581  17.505  0.00  0.00    +0.123 A 
ATOM     46  F   UNL     1       3.899   3.295  17.301  0.00  0.00    -0.205 F 
ATOM     47  C   UNL     1       4.507   5.568  17.164  0.00  0.00    -0.026 A 
ATOM     48  C   UNL     1       4.187   6.911  17.376  0.00  0.00    -0.058 A 
ATOM     49  H   UNL     1       1.069   6.485  18.716  0.00  0.00    +0.062 HD
ATOM     50  H   UNL     1       1.668   4.115  18.327  0.00  0.00    +0.065 HD
ATOM     51  H   UNL     1       5.465   5.282  16.738  0.00  0.00    +0.065 HD
ATOM     52  H   UNL     1       4.925   7.667  17.113  0.00  0.00    +0.062 HD
ENDBRANCH  39  42
ENDBRANCH   4  39
TORSDOF 6
ENDMDL
MODEL 31
REMARK VINA RESULT:    -5.223      6.122      9.768
REMARK INTER + INTRA:          -8.273
REMARK INTER:                  -7.884
REMARK INTRA:                  -0.389
REMARK UNBOUND:                -1.219
REMARK  Name = 
REMARK  6 active torsions:
REMARK  status: ('A' for Active; 'I' for Inactive)
REMARK    1  A    between atoms: C_2  and  C_3
REMARK    2  A    between atoms: C_3  and  C_4
REMARK    3  A    between atoms: C_4  and  C_5
REMARK    4  A    between atoms: N_10  and  C_11
REMARK    5  A    between atoms: N_14  and  C_15
REMARK    6  A    between atoms: C_15  and  C_16
REMARK                            x       y       z     vdW  Elec       q    Type
REMARK                         _______ _______ _______ _____ _____    ______ ____
ROOT
ATOM      1  C   UNL     1       0.153   9.673  19.875  0.00  0.00    +0.020 C 
ATOM      2  C   UNL     1      -1.009  10.308  19.106  0.00  0.00    -0.049 C 
ATOM      3  C   UNL     1      -0.626  11.659  18.516  0.00  0.00    -0.089 C 
ATOM      4  N   UNL     1      -0.129  12.585  19.598  0.00  0.00    +0.382 N 
ATOM      5  C   UNL     1       1.034  11.989  20.366  0.00  0.00    -0.089 C 
ATOM      6  C   UNL     1       0.616  10.655  20.958  0.00  0.00    -0.049 C 
ATOM      7  H   UNL     1      -0.194   8.751  20.357  0.00  0.00    +0.050 HD
ATOM      8  H   UNL     1      -1.342   9.644  18.300  0.00  0.00    +0.026 HD
ATOM      9  H   UNL     1      -1.863  10.438  19.782  0.00  0.00    +0.026 HD
ATOM     10  H   UNL     1      -1.501  12.132  18.059  0.00  0.00    +0.006 HD
ATOM     11  H   UNL     1       0.167  11.569  17.764  0.00  0.00    +0.006 HD
ATOM     12  H   UNL     1      -0.892  12.730  20.270  0.00  0.00    -0.081 HD
ATOM     13  H   UNL     1       1.294  12.683  21.169  0.00  0.00    +0.006 HD
ATOM     14  H   UNL     1       1.880  11.895  19.676  0.00  0.00    +0.006 HD
ATOM     15  H   UNL     1       1.438  10.253  21.554  0.00  0.00    +0.026 HD
ATOM     16  H   UNL     1      -0.210  10.819  21.663  0.00  0.00    +0.026 HD
ENDROOT
BRANCH   1  19
ATOM     17  O   UNL     1       1.968   7.485  20.165  0.00  0.00    -0.276 OA
ATOM     18  C   UNL     1       1.959   8.131  19.127  0.00  0.00    +0.213 C 
ATOM     19  N   UNL     1       1.204   9.276  18.940  0.00  0.00    -0.313 N 
ATOM     20  H   UNL     1       1.015   9.438  17.944  0.00  0.00    +0.149 HD
BRANCH  18  21
ATOM     21  C   UNL     1       2.787   7.748  17.919  0.00  0.00    +0.026 C 
ATOM     22  H   UNL     1       3.314   8.644  17.570  0.00  0.00    +0.036 HD
ATOM     23  H   UNL     1       2.117   7.455  17.103  0.00  0.00    +0.036 HD
BRANCH  21  24
ATOM     24  C   UNL     1       3.794   6.636  18.209  0.00  0.00    -0.018 C 
ATOM     25  H   UNL     1       4.778   7.012  17.900  0.00  0.00    +0.029 HD
ATOM     26  H   UNL     1       3.855   6.458  19.290  0.00  0.00    +0.029 HD
BRANCH  24  27
ATOM     27  C   UNL     1       3.510   5.305  17.507  0.00  0.00    +0.059 C 
ATOM     28  C   UNL     1       2.143   4.724  17.841  0.00  0.00    -0.025 C 
ATOM     29  C   UNL     1       2.396   3.242  17.717  0.00  0.00    -0.027 C 
ATOM     30  C   UNL     1       3.792   3.125  18.282  0.00  0.00    +0.048 C 
ATOM     31  O   UNL     1       4.496   4.311  17.868  0.00  0.00    -0.377 OA
ATOM     32  H   UNL     1       3.591   5.437  16.421  0.00  0.00    +0.060 HD
ATOM     33  H   UNL     1       1.354   5.087  17.175  0.00  0.00    +0.029 HD
ATOM     34  H   UNL     1       1.850   4.961  18.871  0.00  0.00    +0.029 HD
ATOM     35  H   UNL     1       2.392   2.951  16.660  0.00  0.00    +0.029 HD
ATOM     36  H   UNL     1       1.665   2.628  18.249  0.00  0.00    +0.029 HD
ATOM     37  H   UNL     1       4.323   2.238  17.925  0.00  0.00    +0.056 HD
ATOM     38  H   UNL     1       3.778   3.114  19.379  0.00  0.00    +0.056 HD
ENDBRANCH  24  27
ENDBRANCH  21  24
ENDBRANCH  18  21
ENDBRANCH   1  19
BRANCH   4  39
ATOM     39  C   UNL     1       0.197  13.954  19.033  0.00  0.00    -0.064 C 
ATOM     40  H   UNL     1      -0.185  13.985  18.007  0.00  0.00    +0.011 HD
ATOM     41  H   UNL     1      -0.362  14.692  19.621  0.00  0.00    +0.011 HD
BRANCH  39  42
ATOM     42  C   UNL     1       1.663  14.289  19.099  0.00  0.00    -0.064 A 
ATOM     43  C   UNL     1       2.187  14.975  20.209  0.00  0.00    -0.058 A 
ATOM     44  C   UNL     1       3.551  15.267  20.277  0.00  0.00    -0.026 A 
ATOM     45  C   UNL     1       4.392  14.872  19.245  0.00  0.00    +0.123 A 
ATOM     46  F   UNL     1       5.699  15.148  19.316  0.00  0.00    -0.205 F 
ATOM     47  C   UNL     1       3.894  14.199  18.137  0.00  0.00    -0.026 A 
ATOM     48  C   UNL     1       2.530  13.909  18.060  0.00  0.00    -0.058 A 
ATOM     49  H   UNL     1       1.547  15.304  21.025  0.00  0.00    +0.062 HD
ATOM     50  H   UNL     1       3.969  15.802  21.128  0.00  0.00    +0.065 HD
ATOM     51  H   UNL     1       4.572  13.908  17.339  0.00  0.00    +0.065 HD
ATOM     52  H   UNL     1       2.159  13.391  17.177  0.00  0.00    +0.062 HD
ENDBRANCH  39  42
ENDBRANCH   4  39
TORSDOF 6
ENDMDL
MODEL 32
REMARK VINA RESULT:    -5.222      5.809      9.420
REMARK INTER + INTRA:          -8.273
REMARK INTER:                  -7.734
REMARK INTRA:                  -0.539
REMARK UNBOUND:                -1.219
REMARK  Name = 
REMARK  6 active torsions:
REMARK  status: ('A' for Active; 'I' for Inactive)
REMARK    1  A    between atoms: C_2  and  C_3
REMARK    2  A    between atoms: C_3  and  C_4
REMARK    3  A    between atoms: C_4  and  C_5
REMARK    4  A    between atoms: N_10  and  C_11
REMARK    5  A    between atoms: N_14  and  C_15
REMARK    6  A    between atoms: C_15  and  C_16
REMARK                            x       y       z     vdW  Elec       q    Type
REMARK                         _______ _______ _______ _____ _____    ______ ____
ROOT
ATOM      1  C   UNL     1       1.014   8.068  21.622  0.00  0.00    +0.020 C 
ATOM      2  C   UNL     1      -0.442   8.192  21.161  0.00  0.00    -0.049 C 
ATOM      3  C   UNL     1      -0.658   9.429  20.298  0.00  0.00    -0.089 C 
ATOM      4  N   UNL     1      -0.220  10.670  21.035  0.00  0.00    +0.382 N 
ATOM      5  C   UNL     1       1.223  10.582  21.488  0.00  0.00    -0.089 C 
ATOM      6  C   UNL     1       1.402   9.354  22.362  0.00  0.00    -0.049 C 
ATOM      7  H   UNL     1       1.102   7.221  22.312  0.00  0.00    +0.050 HD
ATOM      8  H   UNL     1      -0.741   7.302  20.598  0.00  0.00    +0.026 HD
ATOM      9  H   UNL     1      -1.097   8.247  22.040  0.00  0.00    +0.026 HD
ATOM     10  H   UNL     1      -1.722   9.544  20.066  0.00  0.00    +0.006 HD
ATOM     11  H   UNL     1      -0.091   9.379  19.361  0.00  0.00    +0.006 HD
ATOM     12  H   UNL     1      -0.798  10.760  21.880  0.00  0.00    -0.081 HD
ATOM     13  H   UNL     1       1.446  11.481  22.068  0.00  0.00    +0.006 HD
ATOM     14  H   UNL     1       1.856  10.557  20.594  0.00  0.00    +0.006 HD
ATOM     15  H   UNL     1       2.430   9.322  22.730  0.00  0.00    +0.026 HD
ATOM     16  H   UNL     1       0.770   9.452  23.254  0.00  0.00    +0.026 HD
ENDROOT
BRANCH   1  19
ATOM     17  O   UNL     1       1.910   5.479  20.809  0.00  0.00    -0.276 OA
ATOM     18  C   UNL     1       2.154   6.453  20.109  0.00  0.00    +0.213 C 
ATOM     19  N   UNL     1       1.867   7.756  20.477  0.00  0.00    -0.313 N 
ATOM     20  H   UNL     1       1.768   8.360  19.654  0.00  0.00    +0.149 HD
BRANCH  18  21
ATOM     21  C   UNL     1       2.810   6.338  18.751  0.00  0.00    +0.026 C 
ATOM     22  H   UNL     1       3.884   6.176  18.904  0.00  0.00    +0.036 HD
ATOM     23  H   UNL     1       2.720   7.296  18.227  0.00  0.00    +0.036 HD
BRANCH  21  24
ATOM     24  C   UNL     1       2.234   5.208  17.898  0.00  0.00    -0.018 C 
ATOM     25  H   UNL     1       1.281   4.917  18.359  0.00  0.00    +0.029 HD
ATOM     26  H   UNL     1       1.993   5.581  16.895  0.00  0.00    +0.029 HD
BRANCH  24  27
ATOM     27  C   UNL     1       3.133   3.977  17.760  0.00  0.00    +0.059 C 
ATOM     28  C   UNL     1       2.377   2.659  17.859  0.00  0.00    -0.025 C 
ATOM     29  C   UNL     1       3.423   1.742  18.444  0.00  0.00    -0.027 C 
ATOM     30  C   UNL     1       4.125   2.666  19.412  0.00  0.00    +0.048 C 
ATOM     31  O   UNL     1       4.151   3.963  18.787  0.00  0.00    -0.377 OA
ATOM     32  H   UNL     1       3.666   4.016  16.802  0.00  0.00    +0.060 HD
ATOM     33  H   UNL     1       1.994   2.317  16.892  0.00  0.00    +0.029 HD
ATOM     34  H   UNL     1       1.530   2.737  18.550  0.00  0.00    +0.029 HD
ATOM     35  H   UNL     1       4.118   1.421  17.660  0.00  0.00    +0.029 HD
ATOM     36  H   UNL     1       3.005   0.854  18.924  0.00  0.00    +0.029 HD
ATOM     37  H   UNL     1       5.147   2.347  19.640  0.00  0.00    +0.056 HD
ATOM     38  H   UNL     1       3.565   2.760  20.350  0.00  0.00    +0.056 HD
ENDBRANCH  24  27
ENDBRANCH  21  24
ENDBRANCH  18  21
ENDBRANCH   1  19
BRANCH   4  39
ATOM     39  C   UNL     1      -0.488  11.913  20.210  0.00  0.00    -0.064 C 
ATOM     40  H   UNL     1      -1.182  11.633  19.409  0.00  0.00    +0.011 HD
ATOM     41  H   UNL     1      -1.001  12.633  20.860  0.00  0.00    +0.011 HD
BRANCH  39  42
ATOM     42  C   UNL     1       0.765  12.550  19.672  0.00  0.00    -0.064 A 
ATOM     43  C   UNL     1       1.450  11.973  18.589  0.00  0.00    -0.058 A 
ATOM     44  C   UNL     1       2.601  12.578  18.080  0.00  0.00    -0.026 A 
ATOM     45  C   UNL     1       3.066  13.758  18.645  0.00  0.00    +0.123 A 
ATOM     46  F   UNL     1       4.166  14.338  18.150  0.00  0.00    -0.205 F 
ATOM     47  C   UNL     1       2.408  14.342  19.720  0.00  0.00    -0.026 A 
ATOM     48  C   UNL     1       1.260  13.739  20.237  0.00  0.00    -0.058 A 
ATOM     49  H   UNL     1       1.111  11.044  18.136  0.00  0.00    +0.062 HD
ATOM     50  H   UNL     1       3.144  12.139  17.245  0.00  0.00    +0.065 HD
ATOM     51  H   UNL     1       2.798  15.261  20.148  0.00  0.00    +0.065 HD
ATOM     52  H   UNL     1       0.767  14.208  21.087  0.00  0.00    +0.062 HD
ENDBRANCH  39  42
ENDBRANCH   4  39
TORSDOF 6
ENDMDL
MODEL 33
REMARK VINA RESULT:    -5.199      6.456      8.077
REMARK INTER + INTRA:          -8.241
REMARK INTER:                  -7.022
REMARK INTRA:                  -1.219
REMARK UNBOUND:                -1.219
REMARK  Name = 
REMARK  6 active torsions:
REMARK  status: ('A' for Active; 'I' for Inactive)
REMARK    1  A    between atoms: C_2  and  C_3
REMARK    2  A    between atoms: C_3  and  C_4
REMARK    3  A    between atoms: C_4  and  C_5
REMARK    4  A    between atoms: N_10  and  C_11
REMARK    5  A    between atoms: N_14  and  C_15
REMARK    6  A    between atoms: C_15  and  C_16
REMARK                            x       y       z     vdW  Elec       q    Type
REMARK                         _______ _______ _______ _____ _____    ______ ____
ROOT
ATOM      1  C   UNL     1      -0.220   9.709  23.001  0.00  0.00    +0.020 C 
ATOM      2  C   UNL     1       1.214   9.277  23.325  0.00  0.00    -0.049 C 
ATOM      3  C   UNL     1       2.013   8.980  22.064  0.00  0.00    -0.089 C 
ATOM      4  N   UNL     1       1.314   7.935  21.230  0.00  0.00    +0.382 N 
ATOM      5  C   UNL     1      -0.102   8.344  20.879  0.00  0.00    -0.089 C 
ATOM      6  C   UNL     1      -0.879   8.613  22.155  0.00  0.00    -0.049 C 
ATOM      7  H   UNL     1      -0.782   9.822  23.935  0.00  0.00    +0.050 HD
ATOM      8  H   UNL     1       1.725  10.056  23.902  0.00  0.00    +0.026 HD
ATOM      9  H   UNL     1       1.188   8.380  23.956  0.00  0.00    +0.026 HD
ATOM     10  H   UNL     1       2.998   8.581  22.328  0.00  0.00    +0.006 HD
ATOM     11  H   UNL     1       2.144   9.872  21.440  0.00  0.00    +0.006 HD
ATOM     12  H   UNL     1       1.252   7.073  21.784  0.00  0.00    -0.081 HD
ATOM     13  H   UNL     1      -0.563   7.515  20.335  0.00  0.00    +0.006 HD
ATOM     14  H   UNL     1      -0.048   9.223  20.228  0.00  0.00    +0.006 HD
ATOM     15  H   UNL     1      -1.913   8.856  21.901  0.00  0.00    +0.026 HD
ATOM     16  H   UNL     1      -0.927   7.690  22.747  0.00  0.00    +0.026 HD
ENDROOT
BRANCH   1  19
ATOM     17  O   UNL     1      -2.180  11.768  23.288  0.00  0.00    -0.276 OA
ATOM     18  C   UNL     1      -1.154  11.991  22.661  0.00  0.00    +0.213 C 
ATOM     19  N   UNL     1      -0.206  11.026  22.368  0.00  0.00    -0.313 N 
ATOM     20  H   UNL     1       0.716  11.447  22.208  0.00  0.00    +0.149 HD
BRANCH  18  21
ATOM     21  C   UNL     1      -0.806  13.363  22.126  0.00  0.00    +0.026 C 
ATOM     22  H   UNL     1      -0.826  14.071  22.964  0.00  0.00    +0.036 HD
ATOM     23  H   UNL     1      -1.594  13.689  21.436  0.00  0.00    +0.036 HD
BRANCH  21  24
ATOM     24  C   UNL     1       0.558  13.414  21.439  0.00  0.00    -0.018 C 
ATOM     25  H   UNL     1       0.988  14.400  21.661  0.00  0.00    +0.029 HD
ATOM     26  H   UNL     1       1.231  12.673  21.888  0.00  0.00    +0.029 HD
BRANCH  24  27
ATOM     27  C   UNL     1       0.530  13.197  19.924  0.00  0.00    +0.059 C 
ATOM     28  C   UNL     1      -0.781  13.619  19.275  0.00  0.00    -0.025 C 
ATOM     29  C   UNL     1      -0.866  12.677  18.100  0.00  0.00    -0.027 C 
ATOM     30  C   UNL     1      -0.310  11.404  18.694  0.00  0.00    +0.048 C 
ATOM     31  O   UNL     1       0.736  11.803  19.599  0.00  0.00    -0.377 OA
ATOM     32  H   UNL     1       1.357  13.745  19.458  0.00  0.00    +0.060 HD
ATOM     33  H   UNL     1      -0.789  14.675  18.985  0.00  0.00    +0.029 HD
ATOM     34  H   UNL     1      -1.631  13.447  19.945  0.00  0.00    +0.029 HD
ATOM     35  H   UNL     1      -0.215  13.030  17.291  0.00  0.00    +0.029 HD
ATOM     36  H   UNL     1      -1.878  12.560  17.706  0.00  0.00    +0.029 HD
ATOM     37  H   UNL     1       0.095  10.723  17.939  0.00  0.00    +0.056 HD
ATOM     38  H   UNL     1      -1.071  10.872  19.279  0.00  0.00    +0.056 HD
ENDBRANCH  24  27
ENDBRANCH  21  24
ENDBRANCH  18  21
ENDBRANCH   1  19
BRANCH   4  39
ATOM     39  C   UNL     1       2.132   7.586  20.002  0.00  0.00    -0.064 C 
ATOM     40  H   UNL     1       1.838   8.276  19.203  0.00  0.00    +0.011 HD
ATOM     41  H   UNL     1       3.184   7.782  20.243  0.00  0.00    +0.011 HD
BRANCH  39  42
ATOM     42  C   UNL     1       1.990   6.147  19.583  0.00  0.00    -0.064 A 
ATOM     43  C   UNL     1       2.264   5.759  18.261  0.00  0.00    -0.058 A 
ATOM     44  C   UNL     1       2.151   4.420  17.881  0.00  0.00    -0.026 A 
ATOM     45  C   UNL     1       1.771   3.468  18.818  0.00  0.00    +0.123 A 
ATOM     46  F   UNL     1       1.669   2.185  18.452  0.00  0.00    -0.205 F 
ATOM     47  C   UNL     1       1.489   3.831  20.129  0.00  0.00    -0.026 A 
ATOM     48  C   UNL     1       1.595   5.169  20.513  0.00  0.00    -0.058 A 
ATOM     49  H   UNL     1       2.554   6.487  17.506  0.00  0.00    +0.062 HD
ATOM     50  H   UNL     1       2.356   4.106  16.859  0.00  0.00    +0.065 HD
ATOM     51  H   UNL     1       1.186   3.068  20.840  0.00  0.00    +0.065 HD
ATOM     52  H   UNL     1       1.358   5.433  21.543  0.00  0.00    +0.062 HD
ENDBRANCH  39  42
ENDBRANCH   4  39
TORSDOF 6
ENDMDL
