MODEL 1
REMARK VINA RESULT:    -8.671      0.000      0.000
REMARK INTER + INTRA:         -12.961
REMARK INTER:                 -11.964
REMARK INTRA:                  -0.997
REMARK UNBOUND:                -0.489
REMARK  Name = 
REMARK  9 active torsions:
REMARK  status: ('A' for Active; 'I' for Inactive)
REMARK    1  A    between atoms: C_1  and  C_2
REMARK    2  A    between atoms: C_2  and  C_3
REMARK    3  A    between atoms: C_2  and  S_24
REMARK    4  A    between atoms: C_7  and  C_9
REMARK    5  A    between atoms: C_11  and  C_14
REMARK    6  A    between atoms: C_17  and  C_20
REMARK    7  A    between atoms: N_22  and  C_23
REMARK    8  A    between atoms: S_24  and  C_25
REMARK    9  A    between atoms: N_29  and  N_30
REMARK                            x       y       z     vdW  Elec       q    Type
REMARK                         _______ _______ _______ _____ _____    ______ ____
ROOT
ATOM      1  C   UNL     1      -0.590  11.164  20.996  0.00  0.00    -0.034 A 
ATOM      2  C   UNL     1      -0.853  10.969  22.360  0.00  0.00    -0.057 A 
ATOM      3  C   UNL     1      -0.379   9.838  23.019  0.00  0.00    -0.061 A 
ATOM      4  C   UNL     1       0.372   8.884  22.329  0.00  0.00    -0.051 A 
ATOM      5  C   UNL     1       0.660   9.048  20.967  0.00  0.00    +0.020 A 
ATOM      6  C   UNL     1       0.171  10.193  20.316  0.00  0.00    -0.047 A 
ATOM      7  H   UNL     1      -1.431  11.702  22.921  0.00  0.00    +0.062 HD
ATOM      8  H   UNL     1      -0.594   9.697  24.077  0.00  0.00    +0.062 HD
ATOM      9  H   UNL     1       0.724   8.012  22.873  0.00  0.00    +0.062 HD
ATOM     10  H   UNL     1       0.397  10.343  19.261  0.00  0.00    +0.063 HD
ENDROOT
BRANCH   5  11
ATOM     11  C   UNL     1       1.456   8.052  20.256  0.00  0.00    +0.168 A 
ATOM     12  C   UNL     1       2.198   8.043  19.098  0.00  0.00    +0.013 A 
ATOM     13  C   UNL     1       2.719   6.725  18.991  0.00  0.00    +0.114 A 
ATOM     14  N   UNL     1       2.314   5.989  20.038  0.00  0.00    -0.078 NA
ATOM     15  O   UNL     1       1.530   6.813  20.817  0.00  0.00    -0.354 OA
ATOM     16  H   UNL     1       2.347   8.872  18.425  0.00  0.00    +0.068 HD
BRANCH  13  17
ATOM     17  C   UNL     1       3.572   6.163  17.940  0.00  0.00    +0.004 A 
ATOM     18  C   UNL     1       4.384   6.989  17.148  0.00  0.00    -0.052 A 
ATOM     19  C   UNL     1       5.194   6.442  16.146  0.00  0.00    -0.049 A 
ATOM     20  C   UNL     1       5.200   5.062  15.912  0.00  0.00    +0.037 A 
ATOM     21  C   UNL     1       4.406   4.228  16.706  0.00  0.00    -0.049 A 
ATOM     22  C   UNL     1       3.595   4.779  17.706  0.00  0.00    -0.052 A 
ATOM     23  H   UNL     1       4.396   8.066  17.286  0.00  0.00    +0.062 HD
ATOM     24  H   UNL     1       5.818   7.099  15.542  0.00  0.00    +0.063 HD
ATOM     25  H   UNL     1       4.422   3.150  16.584  0.00  0.00    +0.063 HD
ATOM     26  H   UNL     1       2.987   4.110  18.314  0.00  0.00    +0.062 HD
BRANCH  20  27
ATOM     27  C   UNL     1       6.081   4.530  14.835  0.00  0.00    +0.244 C 
ATOM     28  O   UNL     1       7.299   4.641  14.928  0.00  0.00    -0.270 OA
ATOM     29  N   UNL     1       5.449   3.961  13.749  0.00  0.00    -0.314 N 
ATOM     30  H   UNL     1       4.462   4.131  13.616  0.00  0.00    +0.149 HD
BRANCH  29  31
ATOM     31  C   UNL     1       6.210   3.526  12.603  0.00  0.00    +0.000 C 
ATOM     32  H   UNL     1       5.642   3.760  11.699  0.00  0.00    +0.043 HD
ATOM     33  H   UNL     1       7.175   4.036  12.569  0.00  0.00    +0.043 HD
ATOM     34  H   UNL     1       6.360   2.448  12.676  0.00  0.00    +0.043 HD
ENDBRANCH  29  31
ENDBRANCH  20  27
ENDBRANCH  13  17
ENDBRANCH   5  11
BRANCH   1  35
ATOM     35  C   UNL     1      -1.111  12.415  20.301  0.00  0.00    +0.035 C 
ATOM     36  H   UNL     1      -0.640  13.283  20.775  0.00  0.00    +0.046 HD
BRANCH  35  37
ATOM     37  C   UNL     1      -2.628  12.568  20.446  0.00  0.00    -0.049 C 
ATOM     38  H   UNL     1      -2.872  13.138  21.349  0.00  0.00    +0.024 HD
ATOM     39  H   UNL     1      -3.143  11.604  20.520  0.00  0.00    +0.024 HD
ATOM     40  H   UNL     1      -3.059  13.108  19.597  0.00  0.00    +0.024 HD
ENDBRANCH  35  37
BRANCH  35  41
ATOM     41  S   UNL     1      -0.627  12.391  18.531  0.00  0.00    -0.077 S 
BRANCH  41  42
ATOM     42  C   UNL     1       0.748  13.437  18.535  0.00  0.00    +0.209 A 
ATOM     43  N   UNL     1       0.802  14.691  18.925  0.00  0.00    -0.121 NA
ATOM     44  N   UNL     1       2.104  15.124  18.758  0.00  0.00    -0.135 NA
ATOM     45  C   UNL     1       2.798  14.115  18.275  0.00  0.00    +0.138 A 
ATOM     46  N   UNL     1       1.990  13.031  18.118  0.00  0.00    -0.231 N 
ATOM     47  H   UNL     1       3.849  14.114  18.030  0.00  0.00    +0.106 HD
BRANCH  46  48
ATOM     48  N   UNL     1       2.391  11.751  17.620  0.00  0.00    -0.295 N 
ATOM     49  H   UNL     1       3.319  11.813  17.202  0.00  0.00    +0.163 HD
ATOM     50  H   UNL     1       1.780  11.468  16.854  0.00  0.00    +0.163 HD
ENDBRANCH  46  48
ENDBRANCH  41  42
ENDBRANCH  35  41
ENDBRANCH   1  35
TORSDOF 9
ENDMDL
MODEL 2
REMARK VINA RESULT:    -8.606      3.279     10.087
REMARK INTER + INTRA:         -12.868
REMARK INTER:                 -12.056
REMARK INTRA:                  -0.812
REMARK UNBOUND:                -0.489
REMARK  Name = 
REMARK  9 active torsions:
REMARK  status: ('A' for Active; 'I' for Inactive)
REMARK    1  A    between atoms: C_1  and  C_2
REMARK    2  A    between atoms: C_2  and  C_3
REMARK    3  A    between atoms: C_2  and  S_24
REMARK    4  A    between atoms: C_7  and  C_9
REMARK    5  A    between atoms: C_11  and  C_14
REMARK    6  A    between atoms: C_17  and  C_20
REMARK    7  A    between atoms: N_22  and  C_23
REMARK    8  A    between atoms: S_24  and  C_25
REMARK    9  A    between atoms: N_29  and  N_30
REMARK                            x       y       z     vdW  Elec       q    Type
REMARK                         _______ _______ _______ _____ _____    ______ ____
ROOT
ATOM      1  C   UNL     1       4.802   4.428  18.027  0.00  0.00    -0.034 A 
ATOM      2  C   UNL     1       4.490   3.262  18.742  0.00  0.00    -0.057 A 
ATOM      3  C   UNL     1       3.511   3.278  19.732  0.00  0.00    -0.061 A 
ATOM      4  C   UNL     1       2.821   4.457  20.020  0.00  0.00    -0.051 A 
ATOM      5  C   UNL     1       3.100   5.639  19.322  0.00  0.00    +0.020 A 
ATOM      6  C   UNL     1       4.093   5.607  18.329  0.00  0.00    -0.047 A 
ATOM      7  H   UNL     1       5.011   2.330  18.531  0.00  0.00    +0.062 HD
ATOM      8  H   UNL     1       3.283   2.367  20.283  0.00  0.00    +0.062 HD
ATOM      9  H   UNL     1       2.065   4.434  20.800  0.00  0.00    +0.062 HD
ATOM     10  H   UNL     1       4.314   6.514  17.767  0.00  0.00    +0.063 HD
ENDROOT
BRANCH   5  11
ATOM     11  C   UNL     1       2.365   6.865  19.622  0.00  0.00    +0.168 A 
ATOM     12  C   UNL     1       1.633   7.326  20.690  0.00  0.00    +0.013 A 
ATOM     13  C   UNL     1       1.186   8.621  20.313  0.00  0.00    +0.114 A 
ATOM     14  N   UNL     1       1.639   8.920  19.085  0.00  0.00    -0.078 NA
ATOM     15  O   UNL     1       2.365   7.828  18.659  0.00  0.00    -0.354 OA
ATOM     16  H   UNL     1       1.448   6.803  21.615  0.00  0.00    +0.068 HD
BRANCH  13  17
ATOM     17  C   UNL     1       0.359   9.559  21.077  0.00  0.00    +0.004 A 
ATOM     18  C   UNL     1      -0.192  10.699  20.471  0.00  0.00    -0.052 A 
ATOM     19  C   UNL     1      -0.980  11.589  21.210  0.00  0.00    -0.049 A 
ATOM     20  C   UNL     1      -1.224  11.361  22.568  0.00  0.00    +0.037 A 
ATOM     21  C   UNL     1      -0.693  10.221  23.179  0.00  0.00    -0.049 A 
ATOM     22  C   UNL     1       0.097   9.333  22.438  0.00  0.00    -0.052 A 
ATOM     23  H   UNL     1      -0.013  10.922  19.423  0.00  0.00    +0.062 HD
ATOM     24  H   UNL     1      -1.400  12.467  20.722  0.00  0.00    +0.063 HD
ATOM     25  H   UNL     1      -0.902   9.988  24.219  0.00  0.00    +0.063 HD
ATOM     26  H   UNL     1       0.498   8.450  22.934  0.00  0.00    +0.062 HD
BRANCH  20  27
ATOM     27  C   UNL     1      -2.071  12.338  23.310  0.00  0.00    +0.244 C 
ATOM     28  O   UNL     1      -1.619  13.437  23.611  0.00  0.00    -0.270 OA
ATOM     29  N   UNL     1      -3.339  11.915  23.654  0.00  0.00    -0.314 N 
ATOM     30  H   UNL     1      -3.552  10.929  23.607  0.00  0.00    +0.149 HD
BRANCH  29  31
ATOM     31  C   UNL     1      -4.189  12.741  24.475  0.00  0.00    +0.000 C 
ATOM     32  H   UNL     1      -4.888  12.096  25.013  0.00  0.00    +0.043 HD
ATOM     33  H   UNL     1      -3.592  13.310  25.193  0.00  0.00    +0.043 HD
ATOM     34  H   UNL     1      -4.740  13.424  23.826  0.00  0.00    +0.043 HD
ENDBRANCH  29  31
ENDBRANCH  20  27
ENDBRANCH  13  17
ENDBRANCH   5  11
BRANCH   1  35
ATOM     35  C   UNL     1       5.869   4.382  16.942  0.00  0.00    +0.035 C 
ATOM     36  H   UNL     1       5.870   3.373  16.514  0.00  0.00    +0.046 HD
BRANCH  35  37
ATOM     37  C   UNL     1       7.270   4.657  17.497  0.00  0.00    -0.049 C 
ATOM     38  H   UNL     1       7.380   4.220  18.496  0.00  0.00    +0.024 HD
ATOM     39  H   UNL     1       7.486   5.727  17.584  0.00  0.00    +0.024 HD
ATOM     40  H   UNL     1       8.046   4.214  16.865  0.00  0.00    +0.024 HD
ENDBRANCH  35  37
BRANCH  35  41
ATOM     41  S   UNL     1       5.454   5.572  15.609  0.00  0.00    -0.077 S 
BRANCH  41  42
ATOM     42  C   UNL     1       5.869   4.667  14.197  0.00  0.00    +0.209 A 
ATOM     43  N   UNL     1       5.118   3.811  13.541  0.00  0.00    -0.121 NA
ATOM     44  N   UNL     1       5.858   3.337  12.476  0.00  0.00    -0.135 NA
ATOM     45  C   UNL     1       7.036   3.923  12.518  0.00  0.00    +0.138 A 
ATOM     46  N   UNL     1       7.091   4.771  13.582  0.00  0.00    -0.231 N 
ATOM     47  H   UNL     1       7.854   3.778  11.830  0.00  0.00    +0.106 HD
BRANCH  46  48
ATOM     48  N   UNL     1       8.211   5.584  13.949  0.00  0.00    -0.295 N 
ATOM     49  H   UNL     1       8.058   6.546  13.649  0.00  0.00    +0.163 HD
ATOM     50  H   UNL     1       9.042   5.282  13.440  0.00  0.00    +0.163 HD
ENDBRANCH  46  48
ENDBRANCH  41  42
ENDBRANCH  35  41
ENDBRANCH   1  35
TORSDOF 9
ENDMDL
MODEL 3
REMARK VINA RESULT:    -8.466      2.480      3.036
REMARK INTER + INTRA:         -12.667
REMARK INTER:                 -11.831
REMARK INTRA:                  -0.836
REMARK UNBOUND:                -0.489
REMARK  Name = 
REMARK  9 active torsions:
REMARK  status: ('A' for Active; 'I' for Inactive)
REMARK    1  A    between atoms: C_1  and  C_2
REMARK    2  A    between atoms: C_2  and  C_3
REMARK    3  A    between atoms: C_2  and  S_24
REMARK    4  A    between atoms: C_7  and  C_9
REMARK    5  A    between atoms: C_11  and  C_14
REMARK    6  A    between atoms: C_17  and  C_20
REMARK    7  A    between atoms: N_22  and  C_23
REMARK    8  A    between atoms: S_24  and  C_25
REMARK    9  A    between atoms: N_29  and  N_30
REMARK                            x       y       z     vdW  Elec       q    Type
REMARK                         _______ _______ _______ _____ _____    ______ ____
ROOT
ATOM      1  C   UNL     1      -0.537  11.030  20.330  0.00  0.00    -0.034 A 
ATOM      2  C   UNL     1      -0.747  10.916  21.712  0.00  0.00    -0.057 A 
ATOM      3  C   UNL     1      -0.181   9.865  22.431  0.00  0.00    -0.061 A 
ATOM      4  C   UNL     1       0.611   8.916  21.782  0.00  0.00    -0.051 A 
ATOM      5  C   UNL     1       0.849   9.001  20.404  0.00  0.00    +0.020 A 
ATOM      6  C   UNL     1       0.268  10.065  19.693  0.00  0.00    -0.047 A 
ATOM      7  H   UNL     1      -1.356  11.647  22.239  0.00  0.00    +0.062 HD
ATOM      8  H   UNL     1      -0.357   9.786  23.501  0.00  0.00    +0.062 HD
ATOM      9  H   UNL     1       1.035   8.109  22.373  0.00  0.00    +0.062 HD
ATOM     10  H   UNL     1       0.454  10.155  18.623  0.00  0.00    +0.063 HD
ENDROOT
BRANCH   5  11
ATOM     11  C   UNL     1       1.689   8.011  19.737  0.00  0.00    +0.168 A 
ATOM     12  C   UNL     1       2.370   7.955  18.543  0.00  0.00    +0.013 A 
ATOM     13  C   UNL     1       2.992   6.678  18.521  0.00  0.00    +0.114 A 
ATOM     14  N   UNL     1       2.705   6.011  19.649  0.00  0.00    -0.078 NA
ATOM     15  O   UNL     1       1.895   6.838  20.398  0.00  0.00    -0.354 OA
ATOM     16  H   UNL     1       2.414   8.729  17.793  0.00  0.00    +0.068 HD
BRANCH  13  17
ATOM     17  C   UNL     1       3.835   6.093  17.475  0.00  0.00    +0.004 A 
ATOM     18  C   UNL     1       4.546   6.904  16.578  0.00  0.00    -0.052 A 
ATOM     19  C   UNL     1       5.347   6.334  15.582  0.00  0.00    -0.049 A 
ATOM     20  C   UNL     1       5.445   4.944  15.458  0.00  0.00    +0.037 A 
ATOM     21  C   UNL     1       4.753   4.125  16.356  0.00  0.00    -0.049 A 
ATOM     22  C   UNL     1       3.950   4.698  17.350  0.00  0.00    -0.052 A 
ATOM     23  H   UNL     1       4.484   7.988  16.628  0.00  0.00    +0.062 HD
ATOM     24  H   UNL     1       5.892   6.980  14.895  0.00  0.00    +0.063 HD
ATOM     25  H   UNL     1       4.844   3.044  16.320  0.00  0.00    +0.063 HD
ATOM     26  H   UNL     1       3.423   4.041  18.041  0.00  0.00    +0.062 HD
BRANCH  20  27
ATOM     27  C   UNL     1       6.312   4.387  14.383  0.00  0.00    +0.244 C 
ATOM     28  O   UNL     1       7.523   4.576  14.412  0.00  0.00    -0.270 OA
ATOM     29  N   UNL     1       5.673   3.703  13.369  0.00  0.00    -0.314 N 
ATOM     30  H   UNL     1       4.672   3.806  13.269  0.00  0.00    +0.149 HD
BRANCH  29  31
ATOM     31  C   UNL     1       6.411   3.232  12.223  0.00  0.00    +0.000 C 
ATOM     32  H   UNL     1       6.213   3.901  11.382  0.00  0.00    +0.043 HD
ATOM     33  H   UNL     1       7.482   3.221  12.437  0.00  0.00    +0.043 HD
ATOM     34  H   UNL     1       6.069   2.224  11.981  0.00  0.00    +0.043 HD
ENDBRANCH  29  31
ENDBRANCH  20  27
ENDBRANCH  13  17
ENDBRANCH   5  11
BRANCH   1  35
ATOM     35  C   UNL     1      -1.158  12.193  19.568  0.00  0.00    +0.035 C 
ATOM     36  H   UNL     1      -0.678  12.245  18.584  0.00  0.00    +0.046 HD
BRANCH  35  37
ATOM     37  C   UNL     1      -0.928  13.534  20.272  0.00  0.00    -0.049 C 
ATOM     38  H   UNL     1      -0.256  14.167  19.681  0.00  0.00    +0.024 HD
ATOM     39  H   UNL     1      -0.478  13.418  21.264  0.00  0.00    +0.024 HD
ATOM     40  H   UNL     1      -1.865  14.087  20.396  0.00  0.00    +0.024 HD
ENDBRANCH  35  37
BRANCH  35  41
ATOM     41  S   UNL     1      -2.950  11.889  19.320  0.00  0.00    -0.077 S 
BRANCH  41  42
ATOM     42  C   UNL     1      -2.974  11.253  17.714  0.00  0.00    +0.209 A 
ATOM     43  N   UNL     1      -2.091  10.459  17.151  0.00  0.00    -0.121 NA
ATOM     44  N   UNL     1      -2.521  10.203  15.864  0.00  0.00    -0.135 NA
ATOM     45  C   UNL     1      -3.654  10.848  15.688  0.00  0.00    +0.138 A 
ATOM     46  N   UNL     1      -3.982  11.523  16.824  0.00  0.00    -0.231 N 
ATOM     47  H   UNL     1      -4.258  10.861  14.793  0.00  0.00    +0.106 HD
BRANCH  46  48
ATOM     48  N   UNL     1      -5.147  12.333  17.011  0.00  0.00    -0.295 N 
ATOM     49  H   UNL     1      -4.985  13.013  17.754  0.00  0.00    +0.163 HD
ATOM     50  H   UNL     1      -5.920  11.759  17.349  0.00  0.00    +0.163 HD
ENDBRANCH  46  48
ENDBRANCH  41  42
ENDBRANCH  35  41
ENDBRANCH   1  35
TORSDOF 9
ENDMDL
MODEL 4
REMARK VINA RESULT:    -8.456      2.162      2.603
REMARK INTER + INTRA:         -12.652
REMARK INTER:                 -12.060
REMARK INTRA:                  -0.592
REMARK UNBOUND:                -0.489
REMARK  Name = 
REMARK  9 active torsions:
REMARK  status: ('A' for Active; 'I' for Inactive)
REMARK    1  A    between atoms: C_1  and  C_2
REMARK    2  A    between atoms: C_2  and  C_3
REMARK    3  A    between atoms: C_2  and  S_24
REMARK    4  A    between atoms: C_7  and  C_9
REMARK    5  A    between atoms: C_11  and  C_14
REMARK    6  A    between atoms: C_17  and  C_20
REMARK    7  A    between atoms: N_22  and  C_23
REMARK    8  A    between atoms: S_24  and  C_25
REMARK    9  A    between atoms: N_29  and  N_30
REMARK                            x       y       z     vdW  Elec       q    Type
REMARK                         _______ _______ _______ _____ _____    ______ ____
ROOT
ATOM      1  C   UNL     1      -0.740  11.358  21.036  0.00  0.00    -0.034 A 
ATOM      2  C   UNL     1      -1.048  11.189  22.394  0.00  0.00    -0.057 A 
ATOM      3  C   UNL     1      -0.610  10.061  23.085  0.00  0.00    -0.061 A 
ATOM      4  C   UNL     1       0.148   9.087  22.432  0.00  0.00    -0.051 A 
ATOM      5  C   UNL     1       0.481   9.225  21.078  0.00  0.00    +0.020 A 
ATOM      6  C   UNL     1       0.028  10.367  20.394  0.00  0.00    -0.047 A 
ATOM      7  H   UNL     1      -1.633  11.937  22.925  0.00  0.00    +0.062 HD
ATOM      8  H   UNL     1      -0.860   9.940  24.137  0.00  0.00    +0.062 HD
ATOM      9  H   UNL     1       0.472   8.219  23.001  0.00  0.00    +0.062 HD
ATOM     10  H   UNL     1       0.289  10.497  19.345  0.00  0.00    +0.063 HD
ENDROOT
BRANCH   5  11
ATOM     11  C   UNL     1       1.284   8.208  20.407  0.00  0.00    +0.168 A 
ATOM     12  C   UNL     1       2.057   8.169  19.271  0.00  0.00    +0.013 A 
ATOM     13  C   UNL     1       2.566   6.844  19.202  0.00  0.00    +0.114 A 
ATOM     14  N   UNL     1       2.126   6.132  20.252  0.00  0.00    -0.078 NA
ATOM     15  O   UNL     1       1.330   6.979  20.993  0.00  0.00    -0.354 OA
ATOM     16  H   UNL     1       2.233   8.984  18.586  0.00  0.00    +0.068 HD
BRANCH  13  17
ATOM     17  C   UNL     1       3.441   6.254  18.185  0.00  0.00    +0.004 A 
ATOM     18  C   UNL     1       4.238   7.060  17.359  0.00  0.00    -0.052 A 
ATOM     19  C   UNL     1       5.069   6.485  16.391  0.00  0.00    -0.049 A 
ATOM     20  C   UNL     1       5.111   5.097  16.224  0.00  0.00    +0.037 A 
ATOM     21  C   UNL     1       4.331   4.282  17.052  0.00  0.00    -0.049 A 
ATOM     22  C   UNL     1       3.500   4.860  18.019  0.00  0.00    -0.052 A 
ATOM     23  H   UNL     1       4.223   8.143  17.444  0.00  0.00    +0.062 HD
ATOM     24  H   UNL     1       5.682   7.127  15.759  0.00  0.00    +0.063 HD
ATOM     25  H   UNL     1       4.376   3.200  16.982  0.00  0.00    +0.063 HD
ATOM     26  H   UNL     1       2.903   4.207  18.654  0.00  0.00    +0.062 HD
BRANCH  20  27
ATOM     27  C   UNL     1       6.013   4.535  15.180  0.00  0.00    +0.244 C 
ATOM     28  O   UNL     1       7.224   4.498  15.371  0.00  0.00    -0.270 OA
ATOM     29  N   UNL     1       5.414   4.113  14.011  0.00  0.00    -0.314 N 
ATOM     30  H   UNL     1       4.466   4.404  13.818  0.00  0.00    +0.149 HD
BRANCH  29  31
ATOM     31  C   UNL     1       6.213   3.666  12.897  0.00  0.00    +0.000 C 
ATOM     32  H   UNL     1       6.537   2.640  13.089  0.00  0.00    +0.043 HD
ATOM     33  H   UNL     1       5.631   3.697  11.972  0.00  0.00    +0.043 HD
ATOM     34  H   UNL     1       7.083   4.319  12.811  0.00  0.00    +0.043 HD
ENDBRANCH  29  31
ENDBRANCH  20  27
ENDBRANCH  13  17
ENDBRANCH   5  11
BRANCH   1  35
ATOM     35  C   UNL     1      -1.222  12.605  20.305  0.00  0.00    +0.035 C 
ATOM     36  H   UNL     1      -0.664  12.679  19.365  0.00  0.00    +0.046 HD
BRANCH  35  37
ATOM     37  C   UNL     1      -0.959  13.883  21.108  0.00  0.00    -0.049 C 
ATOM     38  H   UNL     1       0.013  13.827  21.610  0.00  0.00    +0.024 HD
ATOM     39  H   UNL     1      -1.716  14.058  21.880  0.00  0.00    +0.024 HD
ATOM     40  H   UNL     1      -0.937  14.765  20.460  0.00  0.00    +0.024 HD
ENDBRANCH  35  37
BRANCH  35  41
ATOM     41  S   UNL     1      -3.006  12.443  19.907  0.00  0.00    -0.077 S 
BRANCH  41  42
ATOM     42  C   UNL     1      -2.955  11.465  18.484  0.00  0.00    +0.209 A 
ATOM     43  N   UNL     1      -3.709  10.428  18.194  0.00  0.00    -0.121 NA
ATOM     44  N   UNL     1      -3.320   9.964  16.953  0.00  0.00    -0.135 NA
ATOM     45  C   UNL     1      -2.343  10.737  16.528  0.00  0.00    +0.138 A 
ATOM     46  N   UNL     1      -2.077  11.697  17.456  0.00  0.00    -0.231 N 
ATOM     47  H   UNL     1      -1.812  10.650  15.592  0.00  0.00    +0.106 HD
BRANCH  46  48
ATOM     48  N   UNL     1      -1.081  12.719  17.343  0.00  0.00    -0.295 N 
ATOM     49  H   UNL     1      -0.619  12.659  16.437  0.00  0.00    +0.163 HD
ATOM     50  H   UNL     1      -0.339  12.558  18.025  0.00  0.00    +0.163 HD
ENDBRANCH  46  48
ENDBRANCH  41  42
ENDBRANCH  35  41
ENDBRANCH   1  35
TORSDOF 9
ENDMDL
MODEL 5
REMARK VINA RESULT:    -8.303      3.891      9.611
REMARK INTER + INTRA:         -12.432
REMARK INTER:                 -11.503
REMARK INTRA:                  -0.929
REMARK UNBOUND:                -0.489
REMARK  Name = 
REMARK  9 active torsions:
REMARK  status: ('A' for Active; 'I' for Inactive)
REMARK    1  A    between atoms: C_1  and  C_2
REMARK    2  A    between atoms: C_2  and  C_3
REMARK    3  A    between atoms: C_2  and  S_24
REMARK    4  A    between atoms: C_7  and  C_9
REMARK    5  A    between atoms: C_11  and  C_14
REMARK    6  A    between atoms: C_17  and  C_20
REMARK    7  A    between atoms: N_22  and  C_23
REMARK    8  A    between atoms: S_24  and  C_25
REMARK    9  A    between atoms: N_29  and  N_30
REMARK                            x       y       z     vdW  Elec       q    Type
REMARK                         _______ _______ _______ _____ _____    ______ ____
ROOT
ATOM      1  C   UNL     1       4.450   4.953  17.086  0.00  0.00    -0.034 A 
ATOM      2  C   UNL     1       3.945   3.714  17.508  0.00  0.00    -0.057 A 
ATOM      3  C   UNL     1       2.868   3.650  18.389  0.00  0.00    -0.061 A 
ATOM      4  C   UNL     1       2.273   4.823  18.859  0.00  0.00    -0.051 A 
ATOM      5  C   UNL     1       2.746   6.078  18.454  0.00  0.00    +0.020 A 
ATOM      6  C   UNL     1       3.835   6.126  17.568  0.00  0.00    -0.047 A 
ATOM      7  H   UNL     1       4.389   2.787  17.151  0.00  0.00    +0.062 HD
ATOM      8  H   UNL     1       2.489   2.683  18.712  0.00  0.00    +0.062 HD
ATOM      9  H   UNL     1       1.436   4.736  19.547  0.00  0.00    +0.062 HD
ATOM     10  H   UNL     1       4.207   7.093  17.232  0.00  0.00    +0.063 HD
ENDROOT
BRANCH   5  11
ATOM     11  C   UNL     1       2.110   7.299  18.941  0.00  0.00    +0.168 A 
ATOM     12  C   UNL     1       1.343   7.630  20.033  0.00  0.00    +0.013 A 
ATOM     13  C   UNL     1       1.053   9.014  19.888  0.00  0.00    +0.114 A 
ATOM     14  N   UNL     1       1.628   9.485  18.770  0.00  0.00    -0.078 NA
ATOM     15  O   UNL     1       2.278   8.419  18.185  0.00  0.00    -0.354 OA
ATOM     16  H   UNL     1       1.035   6.967  20.827  0.00  0.00    +0.068 HD
BRANCH  13  17
ATOM     17  C   UNL     1       0.261   9.878  20.768  0.00  0.00    +0.004 A 
ATOM     18  C   UNL     1      -0.330  11.055  20.286  0.00  0.00    -0.052 A 
ATOM     19  C   UNL     1      -1.084  11.873  21.136  0.00  0.00    -0.049 A 
ATOM     20  C   UNL     1      -1.253  11.534  22.482  0.00  0.00    +0.037 A 
ATOM     21  C   UNL     1      -0.680  10.355  22.970  0.00  0.00    -0.049 A 
ATOM     22  C   UNL     1       0.075   9.540  22.118  0.00  0.00    -0.052 A 
ATOM     23  H   UNL     1      -0.209  11.364  19.251  0.00  0.00    +0.062 HD
ATOM     24  H   UNL     1      -1.536  12.783  20.743  0.00  0.00    +0.063 HD
ATOM     25  H   UNL     1      -0.831  10.037  23.997  0.00  0.00    +0.063 HD
ATOM     26  H   UNL     1       0.509   8.624  22.519  0.00  0.00    +0.062 HD
BRANCH  20  27
ATOM     27  C   UNL     1      -2.065  12.438  23.344  0.00  0.00    +0.244 C 
ATOM     28  O   UNL     1      -1.595  13.502  23.732  0.00  0.00    -0.270 OA
ATOM     29  N   UNL     1      -3.323  11.989  23.693  0.00  0.00    -0.314 N 
ATOM     30  H   UNL     1      -3.544  11.012  23.559  0.00  0.00    +0.149 HD
BRANCH  29  31
ATOM     31  C   UNL     1      -4.137  12.735  24.620  0.00  0.00    +0.000 C 
ATOM     32  H   UNL     1      -5.188  12.583  24.361  0.00  0.00    +0.043 HD
ATOM     33  H   UNL     1      -3.961  12.395  25.643  0.00  0.00    +0.043 HD
ATOM     34  H   UNL     1      -3.884  13.793  24.529  0.00  0.00    +0.043 HD
ENDBRANCH  29  31
ENDBRANCH  20  27
ENDBRANCH  13  17
ENDBRANCH   5  11
BRANCH   1  35
ATOM     35  C   UNL     1       5.621   4.996  16.114  0.00  0.00    +0.035 C 
ATOM     36  H   UNL     1       5.674   6.008  15.697  0.00  0.00    +0.046 HD
BRANCH  35  37
ATOM     37  C   UNL     1       5.442   4.018  14.949  0.00  0.00    -0.049 C 
ATOM     38  H   UNL     1       5.991   3.089  15.139  0.00  0.00    +0.024 HD
ATOM     39  H   UNL     1       5.807   4.423  13.999  0.00  0.00    +0.024 HD
ATOM     40  H   UNL     1       4.390   3.748  14.811  0.00  0.00    +0.024 HD
ENDBRANCH  35  37
BRANCH  35  41
ATOM     41  S   UNL     1       7.187   4.659  17.009  0.00  0.00    -0.077 S 
BRANCH  41  42
ATOM     42  C   UNL     1       7.619   6.240  17.556  0.00  0.00    +0.209 A 
ATOM     43  N   UNL     1       7.545   7.369  16.889  0.00  0.00    -0.121 NA
ATOM     44  N   UNL     1       7.988   8.377  17.724  0.00  0.00    -0.135 NA
ATOM     45  C   UNL     1       8.313   7.825  18.874  0.00  0.00    +0.138 A 
ATOM     46  N   UNL     1       8.098   6.482  18.819  0.00  0.00    -0.231 N 
ATOM     47  H   UNL     1       8.695   8.331  19.747  0.00  0.00    +0.106 HD
BRANCH  46  48
ATOM     48  N   UNL     1       8.334   5.551  19.880  0.00  0.00    -0.295 N 
ATOM     49  H   UNL     1       7.728   5.762  20.672  0.00  0.00    +0.163 HD
ATOM     50  H   UNL     1       9.281   5.666  20.239  0.00  0.00    +0.163 HD
ENDBRANCH  46  48
ENDBRANCH  41  42
ENDBRANCH  35  41
ENDBRANCH   1  35
TORSDOF 9
ENDMDL
MODEL 6
REMARK VINA RESULT:    -7.933      2.476      3.425
REMARK INTER + INTRA:         -11.900
REMARK INTER:                 -11.065
REMARK INTRA:                  -0.836
REMARK UNBOUND:                -0.489
REMARK  Name = 
REMARK  9 active torsions:
REMARK  status: ('A' for Active; 'I' for Inactive)
REMARK    1  A    between atoms: C_1  and  C_2
REMARK    2  A    between atoms: C_2  and  C_3
REMARK    3  A    between atoms: C_2  and  S_24
REMARK    4  A    between atoms: C_7  and  C_9
REMARK    5  A    between atoms: C_11  and  C_14
REMARK    6  A    between atoms: C_17  and  C_20
REMARK    7  A    between atoms: N_22  and  C_23
REMARK    8  A    between atoms: S_24  and  C_25
REMARK    9  A    between atoms: N_29  and  N_30
REMARK                            x       y       z     vdW  Elec       q    Type
REMARK                         _______ _______ _______ _____ _____    ______ ____
ROOT
ATOM      1  C   UNL     1      -0.642  10.749  21.174  0.00  0.00    -0.034 A 
ATOM      2  C   UNL     1      -0.639  10.659  22.574  0.00  0.00    -0.057 A 
ATOM      3  C   UNL     1       0.068   9.647  23.218  0.00  0.00    -0.061 A 
ATOM      4  C   UNL     1       0.790   8.710  22.475  0.00  0.00    -0.051 A 
ATOM      5  C   UNL     1       0.816   8.772  21.076  0.00  0.00    +0.020 A 
ATOM      6  C   UNL     1       0.094   9.798  20.441  0.00  0.00    -0.047 A 
ATOM      7  H   UNL     1      -1.190  11.381  23.174  0.00  0.00    +0.062 HD
ATOM      8  H   UNL     1       0.058   9.586  24.304  0.00  0.00    +0.062 HD
ATOM      9  H   UNL     1       1.328   7.933  23.009  0.00  0.00    +0.062 HD
ATOM     10  H   UNL     1       0.114   9.869  19.354  0.00  0.00    +0.063 HD
ENDROOT
BRANCH   5  11
ATOM     11  C   UNL     1       1.583   7.797  20.307  0.00  0.00    +0.168 A 
ATOM     12  C   UNL     1       2.343   7.838  19.162  0.00  0.00    +0.013 A 
ATOM     13  C   UNL     1       2.813   6.511  18.970  0.00  0.00    +0.114 A 
ATOM     14  N   UNL     1       2.363   5.721  19.957  0.00  0.00    -0.078 NA
ATOM     15  O   UNL     1       1.599   6.520  20.781  0.00  0.00    -0.354 OA
ATOM     16  H   UNL     1       2.535   8.705  18.549  0.00  0.00    +0.068 HD
BRANCH  13  17
ATOM     17  C   UNL     1       3.660   5.989  17.893  0.00  0.00    +0.004 A 
ATOM     18  C   UNL     1       3.778   4.610  17.669  0.00  0.00    -0.052 A 
ATOM     19  C   UNL     1       4.591   4.122  16.639  0.00  0.00    -0.049 A 
ATOM     20  C   UNL     1       5.306   5.004  15.821  0.00  0.00    +0.037 A 
ATOM     21  C   UNL     1       5.184   6.382  16.026  0.00  0.00    -0.049 A 
ATOM     22  C   UNL     1       4.372   6.866  17.059  0.00  0.00    -0.052 A 
ATOM     23  H   UNL     1       3.253   3.890  18.291  0.00  0.00    +0.062 HD
ATOM     24  H   UNL     1       4.670   3.048  16.479  0.00  0.00    +0.063 HD
ATOM     25  H   UNL     1       5.687   7.096  15.381  0.00  0.00    +0.063 HD
ATOM     26  H   UNL     1       4.289   7.944  17.198  0.00  0.00    +0.062 HD
BRANCH  20  27
ATOM     27  C   UNL     1       6.156   4.434  14.738  0.00  0.00    +0.244 C 
ATOM     28  O   UNL     1       7.376   4.415  14.862  0.00  0.00    -0.270 OA
ATOM     29  N   UNL     1       5.497   3.985  13.612  0.00  0.00    -0.314 N 
ATOM     30  H   UNL     1       4.537   4.263  13.467  0.00  0.00    +0.149 HD
BRANCH  29  31
ATOM     31  C   UNL     1       6.239   3.529  12.462  0.00  0.00    +0.000 C 
ATOM     32  H   UNL     1       6.450   2.463  12.584  0.00  0.00    +0.043 HD
ATOM     33  H   UNL     1       5.660   3.683  11.548  0.00  0.00    +0.043 HD
ATOM     34  H   UNL     1       7.175   4.088  12.409  0.00  0.00    +0.043 HD
ENDBRANCH  29  31
ENDBRANCH  20  27
ENDBRANCH  13  17
ENDBRANCH   5  11
BRANCH   1  35
ATOM     35  C   UNL     1      -1.415  11.872  20.494  0.00  0.00    +0.035 C 
ATOM     36  H   UNL     1      -2.456  11.545  20.386  0.00  0.00    +0.046 HD
BRANCH  35  37
ATOM     37  C   UNL     1      -0.873  12.181  19.095  0.00  0.00    -0.049 C 
ATOM     38  H   UNL     1      -1.472  11.674  18.331  0.00  0.00    +0.024 HD
ATOM     39  H   UNL     1       0.165  11.857  18.964  0.00  0.00    +0.024 HD
ATOM     40  H   UNL     1      -0.915  13.253  18.878  0.00  0.00    +0.024 HD
ENDBRANCH  35  37
BRANCH  35  41
ATOM     41  S   UNL     1      -1.389  13.373  21.548  0.00  0.00    -0.077 S 
BRANCH  41  42
ATOM     42  C   UNL     1      -3.066  13.786  21.602  0.00  0.00    +0.209 A 
ATOM     43  N   UNL     1      -3.712  14.628  20.827  0.00  0.00    -0.121 NA
ATOM     44  N   UNL     1      -5.033  14.635  21.229  0.00  0.00    -0.135 NA
ATOM     45  C   UNL     1      -5.147  13.794  22.234  0.00  0.00    +0.138 A 
ATOM     46  N   UNL     1      -3.936  13.233  22.506  0.00  0.00    -0.231 N 
ATOM     47  H   UNL     1      -6.047  13.560  22.781  0.00  0.00    +0.106 HD
BRANCH  46  48
ATOM     48  N   UNL     1      -3.670  12.270  23.531  0.00  0.00    -0.295 N 
ATOM     49  H   UNL     1      -2.864  12.561  24.083  0.00  0.00    +0.163 HD
ATOM     50  H   UNL     1      -3.391  11.383  23.111  0.00  0.00    +0.163 HD
ENDBRANCH  46  48
ENDBRANCH  41  42
ENDBRANCH  35  41
ENDBRANCH   1  35
TORSDOF 9
ENDMDL
MODEL 7
REMARK VINA RESULT:    -7.775      4.020     10.180
REMARK INTER + INTRA:         -11.674
REMARK INTER:                 -10.944
REMARK INTRA:                  -0.729
REMARK UNBOUND:                -0.489
REMARK  Name = 
REMARK  9 active torsions:
REMARK  status: ('A' for Active; 'I' for Inactive)
REMARK    1  A    between atoms: C_1  and  C_2
REMARK    2  A    between atoms: C_2  and  C_3
REMARK    3  A    between atoms: C_2  and  S_24
REMARK    4  A    between atoms: C_7  and  C_9
REMARK    5  A    between atoms: C_11  and  C_14
REMARK    6  A    between atoms: C_17  and  C_20
REMARK    7  A    between atoms: N_22  and  C_23
REMARK    8  A    between atoms: S_24  and  C_25
REMARK    9  A    between atoms: N_29  and  N_30
REMARK                            x       y       z     vdW  Elec       q    Type
REMARK                         _______ _______ _______ _____ _____    ______ ____
ROOT
ATOM      1  C   UNL     1       4.170   4.992  17.502  0.00  0.00    -0.034 A 
ATOM      2  C   UNL     1       4.789   5.788  16.528  0.00  0.00    -0.057 A 
ATOM      3  C   UNL     1       4.547   7.159  16.472  0.00  0.00    -0.061 A 
ATOM      4  C   UNL     1       3.686   7.759  17.394  0.00  0.00    -0.051 A 
ATOM      5  C   UNL     1       3.054   6.997  18.386  0.00  0.00    +0.020 A 
ATOM      6  C   UNL     1       3.306   5.615  18.426  0.00  0.00    -0.047 A 
ATOM      7  H   UNL     1       5.468   5.344  15.803  0.00  0.00    +0.062 HD
ATOM      8  H   UNL     1       5.031   7.764  15.708  0.00  0.00    +0.062 HD
ATOM      9  H   UNL     1       3.518   8.830  17.321  0.00  0.00    +0.062 HD
ATOM     10  H   UNL     1       2.834   5.009  19.198  0.00  0.00    +0.063 HD
ENDROOT
BRANCH   5  11
ATOM     11  C   UNL     1       2.165   7.634  19.353  0.00  0.00    +0.168 A 
ATOM     12  C   UNL     1       1.481   8.825  19.411  0.00  0.00    +0.013 A 
ATOM     13  C   UNL     1       0.795   8.809  20.655  0.00  0.00    +0.114 A 
ATOM     14  N   UNL     1       1.050   7.661  21.301  0.00  0.00    -0.078 NA
ATOM     15  O   UNL     1       1.902   6.938  20.493  0.00  0.00    -0.354 OA
ATOM     16  H   UNL     1       1.474   9.599  18.659  0.00  0.00    +0.068 HD
BRANCH  13  17
ATOM     17  C   UNL     1      -0.077   9.837  21.229  0.00  0.00    +0.004 A 
ATOM     18  C   UNL     1      -0.394   9.837  22.596  0.00  0.00    -0.052 A 
ATOM     19  C   UNL     1      -1.229  10.823  23.134  0.00  0.00    -0.049 A 
ATOM     20  C   UNL     1      -1.770  11.820  22.316  0.00  0.00    +0.037 A 
ATOM     21  C   UNL     1      -1.449  11.838  20.954  0.00  0.00    -0.049 A 
ATOM     22  C   UNL     1      -0.615  10.850  20.418  0.00  0.00    -0.052 A 
ATOM     23  H   UNL     1      -0.009   9.071  23.264  0.00  0.00    +0.062 HD
ATOM     24  H   UNL     1      -1.462  10.807  24.198  0.00  0.00    +0.063 HD
ATOM     25  H   UNL     1      -1.812  12.625  20.299  0.00  0.00    +0.063 HD
ATOM     26  H   UNL     1      -0.376  10.885  19.356  0.00  0.00    +0.062 HD
BRANCH  20  27
ATOM     27  C   UNL     1      -2.651  12.847  22.938  0.00  0.00    +0.244 C 
ATOM     28  O   UNL     1      -2.216  13.969  23.171  0.00  0.00    -0.270 OA
ATOM     29  N   UNL     1      -3.933  12.446  23.256  0.00  0.00    -0.314 N 
ATOM     30  H   UNL     1      -4.142  11.458  23.278  0.00  0.00    +0.149 HD
BRANCH  29  31
ATOM     31  C   UNL     1      -4.821  13.330  23.970  0.00  0.00    +0.000 C 
ATOM     32  H   UNL     1      -5.487  13.811  23.249  0.00  0.00    +0.043 HD
ATOM     33  H   UNL     1      -5.415  12.771  24.697  0.00  0.00    +0.043 HD
ATOM     34  H   UNL     1      -4.222  14.086  24.480  0.00  0.00    +0.043 HD
ENDBRANCH  29  31
ENDBRANCH  20  27
ENDBRANCH  13  17
ENDBRANCH   5  11
BRANCH   1  35
ATOM     35  C   UNL     1       4.459   3.498  17.548  0.00  0.00    +0.035 C 
ATOM     36  H   UNL     1       5.051   3.298  18.449  0.00  0.00    +0.046 HD
BRANCH  35  37
ATOM     37  C   UNL     1       5.273   3.029  16.338  0.00  0.00    -0.049 C 
ATOM     38  H   UNL     1       5.404   1.941  16.362  0.00  0.00    +0.024 HD
ATOM     39  H   UNL     1       6.272   3.477  16.304  0.00  0.00    +0.024 HD
ATOM     40  H   UNL     1       4.769   3.273  15.398  0.00  0.00    +0.024 HD
ENDBRANCH  35  37
BRANCH  35  41
ATOM     41  S   UNL     1       2.886   2.562  17.674  0.00  0.00    -0.077 S 
BRANCH  41  42
ATOM     42  C   UNL     1       2.621   2.559  19.381  0.00  0.00    +0.209 A 
ATOM     43  N   UNL     1       3.525   2.566  20.335  0.00  0.00    -0.121 NA
ATOM     44  N   UNL     1       2.856   2.568  21.543  0.00  0.00    -0.135 NA
ATOM     45  C   UNL     1       1.566   2.566  21.283  0.00  0.00    +0.138 A 
ATOM     46  N   UNL     1       1.367   2.562  19.936  0.00  0.00    -0.231 N 
ATOM     47  H   UNL     1       0.762   2.568  22.004  0.00  0.00    +0.106 HD
BRANCH  46  48
ATOM     48  N   UNL     1       0.096   2.561  19.277  0.00  0.00    -0.295 N 
ATOM     49  H   UNL     1      -0.015   1.706  18.732  0.00  0.00    +0.163 HD
ATOM     50  H   UNL     1       0.060   3.314  18.590  0.00  0.00    +0.163 HD
ENDBRANCH  46  48
ENDBRANCH  41  42
ENDBRANCH  35  41
ENDBRANCH   1  35
TORSDOF 9
ENDMDL
MODEL 8
REMARK VINA RESULT:    -7.660      3.752      9.718
REMARK INTER + INTRA:         -11.507
REMARK INTER:                 -10.728
REMARK INTRA:                  -0.780
REMARK UNBOUND:                -0.489
REMARK  Name = 
REMARK  9 active torsions:
REMARK  status: ('A' for Active; 'I' for Inactive)
REMARK    1  A    between atoms: C_1  and  C_2
REMARK    2  A    between atoms: C_2  and  C_3
REMARK    3  A    between atoms: C_2  and  S_24
REMARK    4  A    between atoms: C_7  and  C_9
REMARK    5  A    between atoms: C_11  and  C_14
REMARK    6  A    between atoms: C_17  and  C_20
REMARK    7  A    between atoms: N_22  and  C_23
REMARK    8  A    between atoms: S_24  and  C_25
REMARK    9  A    between atoms: N_29  and  N_30
REMARK                            x       y       z     vdW  Elec       q    Type
REMARK                         _______ _______ _______ _____ _____    ______ ____
ROOT
ATOM      1  C   UNL     1       4.634   5.085  16.660  0.00  0.00    -0.034 A 
ATOM      2  C   UNL     1       4.371   3.857  17.287  0.00  0.00    -0.057 A 
ATOM      3  C   UNL     1       3.480   3.782  18.355  0.00  0.00    -0.061 A 
ATOM      4  C   UNL     1       2.830   4.930  18.810  0.00  0.00    -0.051 A 
ATOM      5  C   UNL     1       3.061   6.173  18.205  0.00  0.00    +0.020 A 
ATOM      6  C   UNL     1       3.966   6.233  17.132  0.00  0.00    -0.047 A 
ATOM      7  H   UNL     1       4.862   2.948  16.945  0.00  0.00    +0.062 HD
ATOM      8  H   UNL     1       3.290   2.824  18.834  0.00  0.00    +0.062 HD
ATOM      9  H   UNL     1       2.142   4.836  19.646  0.00  0.00    +0.062 HD
ATOM     10  H   UNL     1       4.148   7.188  16.641  0.00  0.00    +0.063 HD
ENDROOT
BRANCH   5  11
ATOM     11  C   UNL     1       2.368   7.367  18.680  0.00  0.00    +0.168 A 
ATOM     12  C   UNL     1       1.653   7.695  19.808  0.00  0.00    +0.013 A 
ATOM     13  C   UNL     1       1.249   9.045  19.622  0.00  0.00    +0.114 A 
ATOM     14  N   UNL     1       1.709   9.500  18.446  0.00  0.00    -0.078 NA
ATOM     15  O   UNL     1       2.398   8.457  17.865  0.00  0.00    -0.354 OA
ATOM     16  H   UNL     1       1.452   7.052  20.651  0.00  0.00    +0.068 HD
BRANCH  13  17
ATOM     17  C   UNL     1       0.454   9.891  20.516  0.00  0.00    +0.004 A 
ATOM     18  C   UNL     1       0.167   9.488  21.829  0.00  0.00    -0.052 A 
ATOM     19  C   UNL     1      -0.594  10.304  22.674  0.00  0.00    -0.049 A 
ATOM     20  C   UNL     1      -1.089  11.531  22.221  0.00  0.00    +0.037 A 
ATOM     21  C   UNL     1      -0.796  11.950  20.918  0.00  0.00    -0.049 A 
ATOM     22  C   UNL     1      -0.036  11.131  20.074  0.00  0.00    -0.052 A 
ATOM     23  H   UNL     1       0.518   8.535  22.216  0.00  0.00    +0.062 HD
ATOM     24  H   UNL     1      -0.806   9.975  23.691  0.00  0.00    +0.063 HD
ATOM     25  H   UNL     1      -1.123  12.917  20.549  0.00  0.00    +0.063 HD
ATOM     26  H   UNL     1       0.182  11.478  19.065  0.00  0.00    +0.062 HD
BRANCH  20  27
ATOM     27  C   UNL     1      -1.892  12.363  23.160  0.00  0.00    +0.244 C 
ATOM     28  O   UNL     1      -1.413  13.386  23.637  0.00  0.00    -0.270 OA
ATOM     29  N   UNL     1      -3.152  11.895  23.473  0.00  0.00    -0.314 N 
ATOM     30  H   UNL     1      -3.382  10.935  23.256  0.00  0.00    +0.149 HD
BRANCH  29  31
ATOM     31  C   UNL     1      -3.958  12.564  24.463  0.00  0.00    +0.000 C 
ATOM     32  H   UNL     1      -3.817  12.063  25.425  0.00  0.00    +0.043 HD
ATOM     33  H   UNL     1      -3.662  13.613  24.552  0.00  0.00    +0.043 HD
ATOM     34  H   UNL     1      -5.005  12.497  24.162  0.00  0.00    +0.043 HD
ENDBRANCH  29  31
ENDBRANCH  20  27
ENDBRANCH  13  17
ENDBRANCH   5  11
BRANCH   1  35
ATOM     35  C   UNL     1       5.605   5.139  15.489  0.00  0.00    +0.035 C 
ATOM     36  H   UNL     1       5.764   6.193  15.233  0.00  0.00    +0.046 HD
BRANCH  35  37
ATOM     37  C   UNL     1       5.052   4.434  14.246  0.00  0.00    -0.049 C 
ATOM     38  H   UNL     1       4.337   3.655  14.534  0.00  0.00    +0.024 HD
ATOM     39  H   UNL     1       5.835   3.954  13.651  0.00  0.00    +0.024 HD
ATOM     40  H   UNL     1       4.521   5.133  13.592  0.00  0.00    +0.024 HD
ENDBRANCH  35  37
BRANCH  35  41
ATOM     41  S   UNL     1       7.217   4.416  15.982  0.00  0.00    -0.077 S 
BRANCH  41  42
ATOM     42  C   UNL     1       7.468   5.151  17.525  0.00  0.00    +0.209 A 
ATOM     43  N   UNL     1       7.544   4.558  18.695  0.00  0.00    -0.121 NA
ATOM     44  N   UNL     1       7.758   5.536  19.646  0.00  0.00    -0.135 NA
ATOM     45  C   UNL     1       7.809   6.693  19.020  0.00  0.00    +0.138 A 
ATOM     46  N   UNL     1       7.633   6.504  17.684  0.00  0.00    -0.231 N 
ATOM     47  H   UNL     1       7.965   7.663  19.468  0.00  0.00    +0.106 HD
BRANCH  46  48
ATOM     48  N   UNL     1       7.629   7.529  16.685  0.00  0.00    -0.295 N 
ATOM     49  H   UNL     1       8.514   8.034  16.698  0.00  0.00    +0.163 HD
ATOM     50  H   UNL     1       6.924   8.232  16.910  0.00  0.00    +0.163 HD
ENDBRANCH  46  48
ENDBRANCH  41  42
ENDBRANCH  35  41
ENDBRANCH   1  35
TORSDOF 9
ENDMDL
MODEL 9
REMARK VINA RESULT:    -7.654      3.656     10.097
REMARK INTER + INTRA:         -11.499
REMARK INTER:                 -10.442
REMARK INTRA:                  -1.057
REMARK UNBOUND:                -0.489
REMARK  Name = 
REMARK  9 active torsions:
REMARK  status: ('A' for Active; 'I' for Inactive)
REMARK    1  A    between atoms: C_1  and  C_2
REMARK    2  A    between atoms: C_2  and  C_3
REMARK    3  A    between atoms: C_2  and  S_24
REMARK    4  A    between atoms: C_7  and  C_9
REMARK    5  A    between atoms: C_11  and  C_14
REMARK    6  A    between atoms: C_17  and  C_20
REMARK    7  A    between atoms: N_22  and  C_23
REMARK    8  A    between atoms: S_24  and  C_25
REMARK    9  A    between atoms: N_29  and  N_30
REMARK                            x       y       z     vdW  Elec       q    Type
REMARK                         _______ _______ _______ _____ _____    ______ ____
ROOT
ATOM      1  C   UNL     1       4.477   5.616  18.443  0.00  0.00    -0.034 A 
ATOM      2  C   UNL     1       4.981   5.817  17.150  0.00  0.00    -0.057 A 
ATOM      3  C   UNL     1       4.501   6.855  16.355  0.00  0.00    -0.061 A 
ATOM      4  C   UNL     1       3.514   7.715  16.841  0.00  0.00    -0.051 A 
ATOM      5  C   UNL     1       2.991   7.549  18.130  0.00  0.00    +0.020 A 
ATOM      6  C   UNL     1       3.483   6.494  18.918  0.00  0.00    -0.047 A 
ATOM      7  H   UNL     1       5.755   5.163  16.752  0.00  0.00    +0.062 HD
ATOM      8  H   UNL     1       4.897   6.996  15.351  0.00  0.00    +0.062 HD
ATOM      9  H   UNL     1       3.161   8.512  16.193  0.00  0.00    +0.062 HD
ATOM     10  H   UNL     1       3.098   6.359  19.928  0.00  0.00    +0.063 HD
ENDROOT
BRANCH   5  11
ATOM     11  C   UNL     1       1.968   8.460  18.635  0.00  0.00    +0.168 A 
ATOM     12  C   UNL     1       1.523   8.832  19.882  0.00  0.00    +0.013 A 
ATOM     13  C   UNL     1       0.485   9.774  19.649  0.00  0.00    +0.114 A 
ATOM     14  N   UNL     1       0.326   9.961  18.330  0.00  0.00    -0.078 NA
ATOM     15  O   UNL     1       1.244   9.143  17.705  0.00  0.00    -0.354 OA
ATOM     16  H   UNL     1       1.896   8.476  20.829  0.00  0.00    +0.068 HD
BRANCH  13  17
ATOM     17  C   UNL     1      -0.341  10.483  20.631  0.00  0.00    +0.004 A 
ATOM     18  C   UNL     1      -1.206  11.515  20.239  0.00  0.00    -0.052 A 
ATOM     19  C   UNL     1      -1.989  12.187  21.185  0.00  0.00    -0.049 A 
ATOM     20  C   UNL     1      -1.914  11.845  22.539  0.00  0.00    +0.037 A 
ATOM     21  C   UNL     1      -1.066  10.808  22.940  0.00  0.00    -0.049 A 
ATOM     22  C   UNL     1      -0.283  10.139  21.992  0.00  0.00    -0.052 A 
ATOM     23  H   UNL     1      -1.281  11.823  19.200  0.00  0.00    +0.062 HD
ATOM     24  H   UNL     1      -2.656  12.985  20.861  0.00  0.00    +0.063 HD
ATOM     25  H   UNL     1      -1.019  10.485  23.975  0.00  0.00    +0.063 HD
ATOM     26  H   UNL     1       0.369   9.332  22.326  0.00  0.00    +0.062 HD
BRANCH  20  27
ATOM     27  C   UNL     1      -2.770  12.590  23.506  0.00  0.00    +0.244 C 
ATOM     28  O   UNL     1      -2.422  13.694  23.909  0.00  0.00    -0.270 OA
ATOM     29  N   UNL     1      -3.918  11.952  23.929  0.00  0.00    -0.314 N 
ATOM     30  H   UNL     1      -4.012  10.959  23.765  0.00  0.00    +0.149 HD
BRANCH  29  31
ATOM     31  C   UNL     1      -4.747  12.538  24.953  0.00  0.00    +0.000 C 
ATOM     32  H   UNL     1      -5.411  11.765  25.349  0.00  0.00    +0.043 HD
ATOM     33  H   UNL     1      -4.131  12.938  25.762  0.00  0.00    +0.043 HD
ATOM     34  H   UNL     1      -5.339  13.338  24.504  0.00  0.00    +0.043 HD
ENDBRANCH  29  31
ENDBRANCH  20  27
ENDBRANCH  13  17
ENDBRANCH   5  11
BRANCH   1  35
ATOM     35  C   UNL     1       5.025   4.480  19.296  0.00  0.00    +0.035 C 
ATOM     36  H   UNL     1       4.763   4.688  20.340  0.00  0.00    +0.046 HD
BRANCH  35  37
ATOM     37  C   UNL     1       6.551   4.375  19.208  0.00  0.00    -0.049 C 
ATOM     38  H   UNL     1       7.012   5.358  19.352  0.00  0.00    +0.024 HD
ATOM     39  H   UNL     1       6.891   3.994  18.239  0.00  0.00    +0.024 HD
ATOM     40  H   UNL     1       6.952   3.713  19.982  0.00  0.00    +0.024 HD
ENDBRANCH  35  37
BRANCH  35  41
ATOM     41  S   UNL     1       4.236   2.897  18.809  0.00  0.00    -0.077 S 
BRANCH  41  42
ATOM     42  C   UNL     1       2.754   2.962  19.695  0.00  0.00    +0.209 A 
ATOM     43  N   UNL     1       2.564   2.681  20.964  0.00  0.00    -0.121 NA
ATOM     44  N   UNL     1       1.225   2.880  21.239  0.00  0.00    -0.135 NA
ATOM     45  C   UNL     1       0.646   3.280  20.127  0.00  0.00    +0.138 A 
ATOM     46  N   UNL     1       1.567   3.348  19.126  0.00  0.00    -0.231 N 
ATOM     47  H   UNL     1      -0.396   3.524  19.993  0.00  0.00    +0.106 HD
BRANCH  46  48
ATOM     48  N   UNL     1       1.310   3.746  17.776  0.00  0.00    -0.295 N 
ATOM     49  H   UNL     1       0.364   3.479  17.506  0.00  0.00    +0.163 HD
ATOM     50  H   UNL     1       1.917   3.230  17.139  0.00  0.00    +0.163 HD
ENDBRANCH  46  48
ENDBRANCH  41  42
ENDBRANCH  35  41
ENDBRANCH   1  35
TORSDOF 9
ENDMDL
MODEL 10
REMARK VINA RESULT:    -7.625      1.548      1.736
REMARK INTER + INTRA:         -11.458
REMARK INTER:                 -10.628
REMARK INTRA:                  -0.830
REMARK UNBOUND:                -0.489
REMARK  Name = 
REMARK  9 active torsions:
REMARK  status: ('A' for Active; 'I' for Inactive)
REMARK    1  A    between atoms: C_1  and  C_2
REMARK    2  A    between atoms: C_2  and  C_3
REMARK    3  A    between atoms: C_2  and  S_24
REMARK    4  A    between atoms: C_7  and  C_9
REMARK    5  A    between atoms: C_11  and  C_14
REMARK    6  A    between atoms: C_17  and  C_20
REMARK    7  A    between atoms: N_22  and  C_23
REMARK    8  A    between atoms: S_24  and  C_25
REMARK    9  A    between atoms: N_29  and  N_30
REMARK                            x       y       z     vdW  Elec       q    Type
REMARK                         _______ _______ _______ _____ _____    ______ ____
ROOT
ATOM      1  C   UNL     1      -1.023  11.160  22.131  0.00  0.00    -0.034 A 
ATOM      2  C   UNL     1      -0.929  10.495  23.363  0.00  0.00    -0.057 A 
ATOM      3  C   UNL     1      -0.163   9.339  23.489  0.00  0.00    -0.061 A 
ATOM      4  C   UNL     1       0.529   8.830  22.388  0.00  0.00    -0.051 A 
ATOM      5  C   UNL     1       0.465   9.470  21.143  0.00  0.00    +0.020 A 
ATOM      6  C   UNL     1      -0.315  10.634  21.032  0.00  0.00    -0.047 A 
ATOM      7  H   UNL     1      -1.455  10.876  24.236  0.00  0.00    +0.062 HD
ATOM      8  H   UNL     1      -0.104   8.831  24.449  0.00  0.00    +0.062 HD
ATOM      9  H   UNL     1       1.115   7.925  22.521  0.00  0.00    +0.062 HD
ATOM     10  H   UNL     1      -0.365  11.152  20.075  0.00  0.00    +0.063 HD
ENDROOT
BRANCH   5  11
ATOM     11  C   UNL     1       1.202   8.939  20.000  0.00  0.00    +0.168 A 
ATOM     12  C   UNL     1       1.990   7.835  19.777  0.00  0.00    +0.013 A 
ATOM     13  C   UNL     1       2.398   7.928  18.419  0.00  0.00    +0.114 A 
ATOM     14  N   UNL     1       1.870   9.027  17.859  0.00  0.00    -0.078 NA
ATOM     15  O   UNL     1       1.133   9.652  18.842  0.00  0.00    -0.354 OA
ATOM     16  H   UNL     1       2.236   7.066  20.492  0.00  0.00    +0.068 HD
BRANCH  13  17
ATOM     17  C   UNL     1       3.258   7.016  17.659  0.00  0.00    +0.004 A 
ATOM     18  C   UNL     1       4.221   7.505  16.764  0.00  0.00    -0.052 A 
ATOM     19  C   UNL     1       5.036   6.625  16.043  0.00  0.00    -0.049 A 
ATOM     20  C   UNL     1       4.898   5.242  16.197  0.00  0.00    +0.037 A 
ATOM     21  C   UNL     1       3.951   4.743  17.097  0.00  0.00    -0.049 A 
ATOM     22  C   UNL     1       3.135   5.625  17.816  0.00  0.00    -0.052 A 
ATOM     23  H   UNL     1       4.349   8.572  16.603  0.00  0.00    +0.062 HD
ATOM     24  H   UNL     1       5.779   7.024  15.354  0.00  0.00    +0.063 HD
ATOM     25  H   UNL     1       3.850   3.677  17.277  0.00  0.00    +0.063 HD
ATOM     26  H   UNL     1       2.407   5.215  18.514  0.00  0.00    +0.062 HD
BRANCH  20  27
ATOM     27  C   UNL     1       5.791   4.348  15.407  0.00  0.00    +0.244 C 
ATOM     28  O   UNL     1       6.720   3.768  15.958  0.00  0.00    -0.270 OA
ATOM     29  N   UNL     1       5.530   4.256  14.056  0.00  0.00    -0.314 N 
ATOM     30  H   UNL     1       4.927   4.945  13.628  0.00  0.00    +0.149 HD
BRANCH  29  31
ATOM     31  C   UNL     1       6.410   3.512  13.188  0.00  0.00    +0.000 C 
ATOM     32  H   UNL     1       6.655   2.562  13.671  0.00  0.00    +0.043 HD
ATOM     33  H   UNL     1       5.927   3.319  12.228  0.00  0.00    +0.043 HD
ATOM     34  H   UNL     1       7.321   4.095  13.037  0.00  0.00    +0.043 HD
ENDBRANCH  29  31
ENDBRANCH  20  27
ENDBRANCH  13  17
ENDBRANCH   5  11
BRANCH   1  35
ATOM     35  C   UNL     1      -1.858  12.428  22.022  0.00  0.00    +0.035 C 
ATOM     36  H   UNL     1      -1.242  13.267  22.366  0.00  0.00    +0.046 HD
BRANCH  35  37
ATOM     37  C   UNL     1      -3.110  12.374  22.904  0.00  0.00    -0.049 C 
ATOM     38  H   UNL     1      -2.833  12.225  23.954  0.00  0.00    +0.024 HD
ATOM     39  H   UNL     1      -3.785  11.557  22.627  0.00  0.00    +0.024 HD
ATOM     40  H   UNL     1      -3.679  13.307  22.849  0.00  0.00    +0.024 HD
ENDBRANCH  35  37
BRANCH  35  41
ATOM     41  S   UNL     1      -2.312  12.726  20.269  0.00  0.00    -0.077 S 
BRANCH  41  42
ATOM     42  C   UNL     1      -0.981  13.685  19.726  0.00  0.00    +0.209 A 
ATOM     43  N   UNL     1      -0.299  14.575  20.412  0.00  0.00    -0.121 NA
ATOM     44  N   UNL     1       0.676  15.086  19.578  0.00  0.00    -0.135 NA
ATOM     45  C   UNL     1       0.556  14.485  18.413  0.00  0.00    +0.138 A 
ATOM     46  N   UNL     1      -0.472  13.594  18.456  0.00  0.00    -0.231 N 
ATOM     47  H   UNL     1       1.164  14.651  17.536  0.00  0.00    +0.106 HD
BRANCH  46  48
ATOM     48  N   UNL     1      -0.900  12.755  17.379  0.00  0.00    -0.295 N 
ATOM     49  H   UNL     1      -1.543  12.043  17.723  0.00  0.00    +0.163 HD
ATOM     50  H   UNL     1      -0.106  12.231  17.009  0.00  0.00    +0.163 HD
ENDBRANCH  46  48
ENDBRANCH  41  42
ENDBRANCH  35  41
ENDBRANCH   1  35
TORSDOF 9
ENDMDL
MODEL 11
REMARK VINA RESULT:    -7.601      3.870      9.772
REMARK INTER + INTRA:         -11.422
REMARK INTER:                 -11.106
REMARK INTRA:                  -0.316
REMARK UNBOUND:                -0.489
REMARK  Name = 
REMARK  9 active torsions:
REMARK  status: ('A' for Active; 'I' for Inactive)
REMARK    1  A    between atoms: C_1  and  C_2
REMARK    2  A    between atoms: C_2  and  C_3
REMARK    3  A    between atoms: C_2  and  S_24
REMARK    4  A    between atoms: C_7  and  C_9
REMARK    5  A    between atoms: C_11  and  C_14
REMARK    6  A    between atoms: C_17  and  C_20
REMARK    7  A    between atoms: N_22  and  C_23
REMARK    8  A    between atoms: S_24  and  C_25
REMARK    9  A    between atoms: N_29  and  N_30
REMARK                            x       y       z     vdW  Elec       q    Type
REMARK                         _______ _______ _______ _____ _____    ______ ____
ROOT
ATOM      1  C   UNL     1       3.635   5.034  18.681  0.00  0.00    -0.034 A 
ATOM      2  C   UNL     1       3.253   3.976  19.518  0.00  0.00    -0.057 A 
ATOM      3  C   UNL     1       2.364   4.188  20.569  0.00  0.00    -0.061 A 
ATOM      4  C   UNL     1       1.835   5.460  20.797  0.00  0.00    -0.051 A 
ATOM      5  C   UNL     1       2.189   6.540  19.978  0.00  0.00    +0.020 A 
ATOM      6  C   UNL     1       3.090   6.310  18.924  0.00  0.00    -0.047 A 
ATOM      7  H   UNL     1       3.647   2.974  19.356  0.00  0.00    +0.062 HD
ATOM      8  H   UNL     1       2.080   3.359  21.214  0.00  0.00    +0.062 HD
ATOM      9  H   UNL     1       1.146   5.591  21.627  0.00  0.00    +0.062 HD
ATOM     10  H   UNL     1       3.365   7.136  18.269  0.00  0.00    +0.063 HD
ENDROOT
BRANCH   5  11
ATOM     11  C   UNL     1       1.622   7.865  20.216  0.00  0.00    +0.168 A 
ATOM     12  C   UNL     1       1.048   8.500  21.291  0.00  0.00    +0.013 A 
ATOM     13  C   UNL     1       0.711   9.801  20.828  0.00  0.00    +0.114 A 
ATOM     14  N   UNL     1       1.076   9.936  19.544  0.00  0.00    -0.078 NA
ATOM     15  O   UNL     1       1.637   8.734  19.167  0.00  0.00    -0.354 OA
ATOM     16  H   UNL     1       0.894   8.086  22.275  0.00  0.00    +0.068 HD
BRANCH  13  17
ATOM     17  C   UNL     1       0.065  10.892  21.562  0.00  0.00    +0.004 A 
ATOM     18  C   UNL     1      -0.866  10.630  22.578  0.00  0.00    -0.052 A 
ATOM     19  C   UNL     1      -1.478  11.680  23.273  0.00  0.00    -0.049 A 
ATOM     20  C   UNL     1      -1.177  13.010  22.958  0.00  0.00    +0.037 A 
ATOM     21  C   UNL     1      -0.239  13.283  21.957  0.00  0.00    -0.049 A 
ATOM     22  C   UNL     1       0.370  12.230  21.263  0.00  0.00    -0.052 A 
ATOM     23  H   UNL     1      -1.140   9.613  22.842  0.00  0.00    +0.062 HD
ATOM     24  H   UNL     1      -2.198  11.457  24.059  0.00  0.00    +0.063 HD
ATOM     25  H   UNL     1       0.053  14.301  21.720  0.00  0.00    +0.063 HD
ATOM     26  H   UNL     1       1.100  12.466  20.490  0.00  0.00    +0.062 HD
BRANCH  20  27
ATOM     27  C   UNL     1      -1.855  14.091  23.728  0.00  0.00    +0.244 C 
ATOM     28  O   UNL     1      -1.201  14.820  24.466  0.00  0.00    -0.270 OA
ATOM     29  N   UNL     1      -3.224  14.183  23.585  0.00  0.00    -0.314 N 
ATOM     30  H   UNL     1      -3.723  13.406  23.175  0.00  0.00    +0.149 HD
BRANCH  29  31
ATOM     31  C   UNL     1      -3.983  15.117  24.379  0.00  0.00    +0.000 C 
ATOM     32  H   UNL     1      -3.513  15.201  25.362  0.00  0.00    +0.043 HD
ATOM     33  H   UNL     1      -4.003  16.099  23.900  0.00  0.00    +0.043 HD
ATOM     34  H   UNL     1      -5.000  14.734  24.487  0.00  0.00    +0.043 HD
ENDBRANCH  29  31
ENDBRANCH  20  27
ENDBRANCH  13  17
ENDBRANCH   5  11
BRANCH   1  35
ATOM     35  C   UNL     1       4.601   4.774  17.533  0.00  0.00    +0.035 C 
ATOM     36  H   UNL     1       4.685   5.698  16.949  0.00  0.00    +0.046 HD
BRANCH  35  37
ATOM     37  C   UNL     1       4.101   3.671  16.595  0.00  0.00    -0.049 C 
ATOM     38  H   UNL     1       4.781   3.553  15.744  0.00  0.00    +0.024 HD
ATOM     39  H   UNL     1       3.106   3.881  16.190  0.00  0.00    +0.024 HD
ATOM     40  H   UNL     1       4.053   2.703  17.105  0.00  0.00    +0.024 HD
ENDBRANCH  35  37
BRANCH  35  41
ATOM     41  S   UNL     1       6.261   4.359  18.196  0.00  0.00    -0.077 S 
BRANCH  41  42
ATOM     42  C   UNL     1       7.050   5.895  18.137  0.00  0.00    +0.209 A 
ATOM     43  N   UNL     1       7.921   6.385  18.991  0.00  0.00    -0.121 NA
ATOM     44  N   UNL     1       8.288   7.637  18.540  0.00  0.00    -0.135 NA
ATOM     45  C   UNL     1       7.629   7.867  17.424  0.00  0.00    +0.138 A 
ATOM     46  N   UNL     1       6.837   6.800  17.128  0.00  0.00    -0.231 N 
ATOM     47  H   UNL     1       7.685   8.754  16.812  0.00  0.00    +0.106 HD
BRANCH  46  48
ATOM     48  N   UNL     1       5.977   6.684  15.990  0.00  0.00    -0.295 N 
ATOM     49  H   UNL     1       5.392   5.853  16.076  0.00  0.00    +0.163 HD
ATOM     50  H   UNL     1       6.532   6.526  15.149  0.00  0.00    +0.163 HD
ENDBRANCH  46  48
ENDBRANCH  41  42
ENDBRANCH  35  41
ENDBRANCH   1  35
TORSDOF 9
ENDMDL
MODEL 12
REMARK VINA RESULT:    -7.510      3.596      9.942
REMARK INTER + INTRA:         -11.291
REMARK INTER:                 -10.766
REMARK INTRA:                  -0.525
REMARK UNBOUND:                -0.489
REMARK  Name = 
REMARK  9 active torsions:
REMARK  status: ('A' for Active; 'I' for Inactive)
REMARK    1  A    between atoms: C_1  and  C_2
REMARK    2  A    between atoms: C_2  and  C_3
REMARK    3  A    between atoms: C_2  and  S_24
REMARK    4  A    between atoms: C_7  and  C_9
REMARK    5  A    between atoms: C_11  and  C_14
REMARK    6  A    between atoms: C_17  and  C_20
REMARK    7  A    between atoms: N_22  and  C_23
REMARK    8  A    between atoms: S_24  and  C_25
REMARK    9  A    between atoms: N_29  and  N_30
REMARK                            x       y       z     vdW  Elec       q    Type
REMARK                         _______ _______ _______ _____ _____    ______ ____
ROOT
ATOM      1  C   UNL     1       3.797   4.771  17.339  0.00  0.00    -0.034 A 
ATOM      2  C   UNL     1       4.992   5.191  16.736  0.00  0.00    -0.057 A 
ATOM      3  C   UNL     1       5.300   6.545  16.639  0.00  0.00    -0.061 A 
ATOM      4  C   UNL     1       4.423   7.505  17.149  0.00  0.00    -0.051 A 
ATOM      5  C   UNL     1       3.224   7.124  17.764  0.00  0.00    +0.020 A 
ATOM      6  C   UNL     1       2.925   5.753  17.851  0.00  0.00    -0.047 A 
ATOM      7  H   UNL     1       5.694   4.461  16.336  0.00  0.00    +0.062 HD
ATOM      8  H   UNL     1       6.229   6.857  16.164  0.00  0.00    +0.062 HD
ATOM      9  H   UNL     1       4.694   8.553  17.054  0.00  0.00    +0.062 HD
ATOM     10  H   UNL     1       2.003   5.438  18.338  0.00  0.00    +0.063 HD
ENDROOT
BRANCH   5  11
ATOM     11  C   UNL     1       2.318   8.133  18.306  0.00  0.00    +0.168 A 
ATOM     12  C   UNL     1       1.807   8.417  19.550  0.00  0.00    +0.013 A 
ATOM     13  C   UNL     1       0.973   9.553  19.368  0.00  0.00    +0.114 A 
ATOM     14  N   UNL     1       0.995   9.933  18.081  0.00  0.00    -0.078 NA
ATOM     15  O   UNL     1       1.826   9.049  17.426  0.00  0.00    -0.354 OA
ATOM     16  H   UNL     1       2.009   7.882  20.465  0.00  0.00    +0.068 HD
BRANCH  13  17
ATOM     17  C   UNL     1       0.175  10.269  20.367  0.00  0.00    +0.004 A 
ATOM     18  C   UNL     1      -0.590  11.391  20.015  0.00  0.00    -0.052 A 
ATOM     19  C   UNL     1      -1.348  12.068  20.977  0.00  0.00    -0.049 A 
ATOM     20  C   UNL     1      -1.347  11.642  22.310  0.00  0.00    +0.037 A 
ATOM     21  C   UNL     1      -0.599  10.516  22.670  0.00  0.00    -0.049 A 
ATOM     22  C   UNL     1       0.160   9.842  21.705  0.00  0.00    -0.052 A 
ATOM     23  H   UNL     1      -0.606  11.764  18.994  0.00  0.00    +0.062 HD
ATOM     24  H   UNL     1      -1.937  12.936  20.684  0.00  0.00    +0.063 HD
ATOM     25  H   UNL     1      -0.613  10.130  23.685  0.00  0.00    +0.063 HD
ATOM     26  H   UNL     1       0.732   8.966  22.008  0.00  0.00    +0.062 HD
BRANCH  20  27
ATOM     27  C   UNL     1      -2.171  12.396  23.296  0.00  0.00    +0.244 C 
ATOM     28  O   UNL     1      -1.734  13.423  23.802  0.00  0.00    -0.270 OA
ATOM     29  N   UNL     1      -3.399  11.853  23.614  0.00  0.00    -0.314 N 
ATOM     30  H   UNL     1      -3.585  10.891  23.364  0.00  0.00    +0.149 HD
BRANCH  29  31
ATOM     31  C   UNL     1      -4.217  12.443  24.644  0.00  0.00    +0.000 C 
ATOM     32  H   UNL     1      -4.272  11.748  25.487  0.00  0.00    +0.043 HD
ATOM     33  H   UNL     1      -3.786  13.389  24.980  0.00  0.00    +0.043 HD
ATOM     34  H   UNL     1      -5.217  12.612  24.239  0.00  0.00    +0.043 HD
ENDBRANCH  29  31
ENDBRANCH  20  27
ENDBRANCH  13  17
ENDBRANCH   5  11
BRANCH   1  35
ATOM     35  C   UNL     1       3.487   3.284  17.442  0.00  0.00    +0.035 C 
ATOM     36  H   UNL     1       3.941   2.786  16.576  0.00  0.00    +0.046 HD
BRANCH  35  37
ATOM     37  C   UNL     1       1.982   3.003  17.409  0.00  0.00    -0.049 C 
ATOM     38  H   UNL     1       1.444   3.720  18.039  0.00  0.00    +0.024 HD
ATOM     39  H   UNL     1       1.733   2.000  17.771  0.00  0.00    +0.024 HD
ATOM     40  H   UNL     1       1.579   3.098  16.395  0.00  0.00    +0.024 HD
ENDBRANCH  35  37
BRANCH  35  41
ATOM     41  S   UNL     1       4.243   2.594  18.965  0.00  0.00    -0.077 S 
BRANCH  41  42
ATOM     42  C   UNL     1       2.950   2.759  20.098  0.00  0.00    +0.209 A 
ATOM     43  N   UNL     1       2.054   1.857  20.431  0.00  0.00    -0.121 NA
ATOM     44  N   UNL     1       1.222   2.426  21.376  0.00  0.00    -0.135 NA
ATOM     45  C   UNL     1       1.642   3.655  21.587  0.00  0.00    +0.138 A 
ATOM     46  N   UNL     1       2.728   3.912  20.807  0.00  0.00    -0.231 N 
ATOM     47  H   UNL     1       1.215   4.375  22.268  0.00  0.00    +0.106 HD
BRANCH  46  48
ATOM     48  N   UNL     1       3.458   5.142  20.766  0.00  0.00    -0.295 N 
ATOM     49  H   UNL     1       3.361   5.637  21.652  0.00  0.00    +0.163 HD
ATOM     50  H   UNL     1       3.049   5.767  20.072  0.00  0.00    +0.163 HD
ENDBRANCH  46  48
ENDBRANCH  41  42
ENDBRANCH  35  41
ENDBRANCH   1  35
TORSDOF 9
ENDMDL
MODEL 13
REMARK VINA RESULT:    -7.509      3.337     10.271
REMARK INTER + INTRA:         -11.290
REMARK INTER:                 -10.849
REMARK INTRA:                  -0.441
REMARK UNBOUND:                -0.489
REMARK  Name = 
REMARK  9 active torsions:
REMARK  status: ('A' for Active; 'I' for Inactive)
REMARK    1  A    between atoms: C_1  and  C_2
REMARK    2  A    between atoms: C_2  and  C_3
REMARK    3  A    between atoms: C_2  and  S_24
REMARK    4  A    between atoms: C_7  and  C_9
REMARK    5  A    between atoms: C_11  and  C_14
REMARK    6  A    between atoms: C_17  and  C_20
REMARK    7  A    between atoms: N_22  and  C_23
REMARK    8  A    between atoms: S_24  and  C_25
REMARK    9  A    between atoms: N_29  and  N_30
REMARK                            x       y       z     vdW  Elec       q    Type
REMARK                         _______ _______ _______ _____ _____    ______ ____
ROOT
ATOM      1  C   UNL     1       4.675   5.488  17.428  0.00  0.00    -0.034 A 
ATOM      2  C   UNL     1       4.541   4.285  18.137  0.00  0.00    -0.057 A 
ATOM      3  C   UNL     1       3.655   4.188  19.207  0.00  0.00    -0.061 A 
ATOM      4  C   UNL     1       2.881   5.288  19.583  0.00  0.00    -0.051 A 
ATOM      5  C   UNL     1       2.982   6.503  18.894  0.00  0.00    +0.020 A 
ATOM      6  C   UNL     1       3.884   6.587  17.819  0.00  0.00    -0.047 A 
ATOM      7  H   UNL     1       5.129   3.413  17.860  0.00  0.00    +0.062 HD
ATOM      8  H   UNL     1       3.565   3.250  19.752  0.00  0.00    +0.062 HD
ATOM      9  H   UNL     1       2.201   5.177  20.423  0.00  0.00    +0.062 HD
ATOM     10  H   UNL     1       3.966   7.520  17.263  0.00  0.00    +0.063 HD
ENDROOT
BRANCH   5  11
ATOM     11  C   UNL     1       2.161   7.645  19.285  0.00  0.00    +0.168 A 
ATOM     12  C   UNL     1       1.494   8.020  20.427  0.00  0.00    +0.013 A 
ATOM     13  C   UNL     1       0.885   9.267  20.120  0.00  0.00    +0.114 A 
ATOM     14  N   UNL     1       1.184   9.621  18.860  0.00  0.00    -0.078 NA
ATOM     15  O   UNL     1       1.971   8.613  18.346  0.00  0.00    -0.354 OA
ATOM     16  H   UNL     1       1.453   7.473  21.356  0.00  0.00    +0.068 HD
BRANCH  13  17
ATOM     17  C   UNL     1       0.046  10.109  20.977  0.00  0.00    +0.004 A 
ATOM     18  C   UNL     1      -0.162   9.789  22.327  0.00  0.00    -0.052 A 
ATOM     19  C   UNL     1      -0.967  10.599  23.136  0.00  0.00    -0.049 A 
ATOM     20  C   UNL     1      -1.585  11.738  22.609  0.00  0.00    +0.037 A 
ATOM     21  C   UNL     1      -1.373  12.075  21.268  0.00  0.00    -0.049 A 
ATOM     22  C   UNL     1      -0.569  11.261  20.460  0.00  0.00    -0.052 A 
ATOM     23  H   UNL     1       0.285   8.904  22.771  0.00  0.00    +0.062 HD
ATOM     24  H   UNL     1      -1.115  10.335  24.182  0.00  0.00    +0.063 HD
ATOM     25  H   UNL     1      -1.797  12.978  20.839  0.00  0.00    +0.063 HD
ATOM     26  H   UNL     1      -0.415  11.545  19.420  0.00  0.00    +0.062 HD
BRANCH  20  27
ATOM     27  C   UNL     1      -2.430  12.569  23.512  0.00  0.00    +0.244 C 
ATOM     28  O   UNL     1      -3.531  12.163  23.866  0.00  0.00    -0.270 OA
ATOM     29  N   UNL     1      -1.918  13.798  23.875  0.00  0.00    -0.314 N 
ATOM     30  H   UNL     1      -1.140  14.174  23.352  0.00  0.00    +0.149 HD
BRANCH  29  31
ATOM     31  C   UNL     1      -2.711  14.723  24.647  0.00  0.00    +0.000 C 
ATOM     32  H   UNL     1      -2.763  14.361  25.677  0.00  0.00    +0.043 HD
ATOM     33  H   UNL     1      -2.260  15.718  24.633  0.00  0.00    +0.043 HD
ATOM     34  H   UNL     1      -3.714  14.762  24.218  0.00  0.00    +0.043 HD
ENDBRANCH  29  31
ENDBRANCH  20  27
ENDBRANCH  13  17
ENDBRANCH   5  11
BRANCH   1  35
ATOM     35  C   UNL     1       5.643   5.567  16.256  0.00  0.00    +0.035 C 
ATOM     36  H   UNL     1       6.631   5.828  16.653  0.00  0.00    +0.046 HD
BRANCH  35  37
ATOM     37  C   UNL     1       5.243   6.647  15.246  0.00  0.00    -0.049 C 
ATOM     38  H   UNL     1       5.493   6.331  14.227  0.00  0.00    +0.024 HD
ATOM     39  H   UNL     1       5.751   7.600  15.426  0.00  0.00    +0.024 HD
ATOM     40  H   UNL     1       4.166   6.837  15.269  0.00  0.00    +0.024 HD
ENDBRANCH  35  37
BRANCH  35  41
ATOM     41  S   UNL     1       5.767   3.928  15.439  0.00  0.00    -0.077 S 
BRANCH  41  42
ATOM     42  C   UNL     1       6.636   4.325  14.000  0.00  0.00    +0.209 A 
ATOM     43  N   UNL     1       7.599   5.209  13.860  0.00  0.00    -0.121 NA
ATOM     44  N   UNL     1       8.002   5.182  12.539  0.00  0.00    -0.135 NA
ATOM     45  C   UNL     1       7.272   4.278  11.920  0.00  0.00    +0.138 A 
ATOM     46  N   UNL     1       6.399   3.710  12.797  0.00  0.00    -0.231 N 
ATOM     47  H   UNL     1       7.331   4.004  10.877  0.00  0.00    +0.106 HD
BRANCH  46  48
ATOM     48  N   UNL     1       5.447   2.687  12.488  0.00  0.00    -0.295 N 
ATOM     49  H   UNL     1       4.604   2.812  13.048  0.00  0.00    +0.163 HD
ATOM     50  H   UNL     1       5.812   1.776  12.767  0.00  0.00    +0.163 HD
ENDBRANCH  46  48
ENDBRANCH  41  42
ENDBRANCH  35  41
ENDBRANCH   1  35
TORSDOF 9
ENDMDL
MODEL 14
REMARK VINA RESULT:    -7.500      3.675      9.898
REMARK INTER + INTRA:         -11.278
REMARK INTER:                 -10.378
REMARK INTRA:                  -0.899
REMARK UNBOUND:                -0.489
REMARK  Name = 
REMARK  9 active torsions:
REMARK  status: ('A' for Active; 'I' for Inactive)
REMARK    1  A    between atoms: C_1  and  C_2
REMARK    2  A    between atoms: C_2  and  C_3
REMARK    3  A    between atoms: C_2  and  S_24
REMARK    4  A    between atoms: C_7  and  C_9
REMARK    5  A    between atoms: C_11  and  C_14
REMARK    6  A    between atoms: C_17  and  C_20
REMARK    7  A    between atoms: N_22  and  C_23
REMARK    8  A    between atoms: S_24  and  C_25
REMARK    9  A    between atoms: N_29  and  N_30
REMARK                            x       y       z     vdW  Elec       q    Type
REMARK                         _______ _______ _______ _____ _____    ______ ____
ROOT
ATOM      1  C   UNL     1       3.146   3.710  19.728  0.00  0.00    -0.034 A 
ATOM      2  C   UNL     1       2.092   2.806  19.923  0.00  0.00    -0.057 A 
ATOM      3  C   UNL     1       0.826   3.260  20.286  0.00  0.00    -0.061 A 
ATOM      4  C   UNL     1       0.589   4.627  20.452  0.00  0.00    -0.051 A 
ATOM      5  C   UNL     1       1.617   5.560  20.259  0.00  0.00    +0.020 A 
ATOM      6  C   UNL     1       2.889   5.085  19.898  0.00  0.00    -0.047 A 
ATOM      7  H   UNL     1       2.250   1.737  19.794  0.00  0.00    +0.062 HD
ATOM      8  H   UNL     1       0.018   2.548  20.439  0.00  0.00    +0.062 HD
ATOM      9  H   UNL     1      -0.409   4.946  20.737  0.00  0.00    +0.062 HD
ATOM     10  H   UNL     1       3.696   5.798  19.730  0.00  0.00    +0.063 HD
ENDROOT
BRANCH   5  11
ATOM     11  C   UNL     1       1.358   6.987  20.424  0.00  0.00    +0.168 A 
ATOM     12  C   UNL     1       0.639   7.752  21.312  0.00  0.00    +0.013 A 
ATOM     13  C   UNL     1       0.817   9.096  20.886  0.00  0.00    +0.114 A 
ATOM     14  N   UNL     1       1.611   9.131  19.805  0.00  0.00    -0.078 NA
ATOM     15  O   UNL     1       1.941   7.823  19.519  0.00  0.00    -0.354 OA
ATOM     16  H   UNL     1       0.067   7.392  22.152  0.00  0.00    +0.068 HD
BRANCH  13  17
ATOM     17  C   UNL     1       0.262  10.320  21.472  0.00  0.00    +0.004 A 
ATOM     18  C   UNL     1       0.625  11.585  20.986  0.00  0.00    -0.052 A 
ATOM     19  C   UNL     1       0.090  12.747  21.554  0.00  0.00    -0.049 A 
ATOM     20  C   UNL     1      -0.810  12.666  22.621  0.00  0.00    +0.037 A 
ATOM     21  C   UNL     1      -1.191  11.410  23.104  0.00  0.00    -0.049 A 
ATOM     22  C   UNL     1      -0.653  10.249  22.536  0.00  0.00    -0.052 A 
ATOM     23  H   UNL     1       1.334  11.692  20.170  0.00  0.00    +0.062 HD
ATOM     24  H   UNL     1       0.384  13.720  21.162  0.00  0.00    +0.063 HD
ATOM     25  H   UNL     1      -1.924  11.309  23.899  0.00  0.00    +0.063 HD
ATOM     26  H   UNL     1      -0.966   9.281  22.925  0.00  0.00    +0.062 HD
BRANCH  20  27
ATOM     27  C   UNL     1      -1.353  13.932  23.189  0.00  0.00    +0.244 C 
ATOM     28  O   UNL     1      -0.804  15.000  22.939  0.00  0.00    -0.270 OA
ATOM     29  N   UNL     1      -2.451  13.815  24.015  0.00  0.00    -0.314 N 
ATOM     30  H   UNL     1      -2.690  12.904  24.380  0.00  0.00    +0.149 HD
BRANCH  29  31
ATOM     31  C   UNL     1      -2.975  14.967  24.707  0.00  0.00    +0.000 C 
ATOM     32  H   UNL     1      -4.011  15.121  24.394  0.00  0.00    +0.043 HD
ATOM     33  H   UNL     1      -2.940  14.813  25.788  0.00  0.00    +0.043 HD
ATOM     34  H   UNL     1      -2.374  15.837  24.435  0.00  0.00    +0.043 HD
ENDBRANCH  29  31
ENDBRANCH  20  27
ENDBRANCH  13  17
ENDBRANCH   5  11
BRANCH   1  35
ATOM     35  C   UNL     1       4.518   3.189  19.322  0.00  0.00    +0.035 C 
ATOM     36  H   UNL     1       4.432   2.764  18.316  0.00  0.00    +0.046 HD
BRANCH  35  37
ATOM     37  C   UNL     1       5.016   2.083  20.257  0.00  0.00    -0.049 C 
ATOM     38  H   UNL     1       5.197   1.159  19.696  0.00  0.00    +0.024 HD
ATOM     39  H   UNL     1       4.299   1.847  21.050  0.00  0.00    +0.024 HD
ATOM     40  H   UNL     1       5.960   2.359  20.737  0.00  0.00    +0.024 HD
ENDBRANCH  35  37
BRANCH  35  41
ATOM     41  S   UNL     1       5.718   4.576  19.261  0.00  0.00    -0.077 S 
BRANCH  41  42
ATOM     42  C   UNL     1       5.935   4.769  17.558  0.00  0.00    +0.209 A 
ATOM     43  N   UNL     1       5.055   5.191  16.678  0.00  0.00    -0.121 NA
ATOM     44  N   UNL     1       5.669   5.191  15.441  0.00  0.00    -0.135 NA
ATOM     45  C   UNL     1       6.905   4.772  15.611  0.00  0.00    +0.138 A 
ATOM     46  N   UNL     1       7.122   4.494  16.926  0.00  0.00    -0.231 N 
ATOM     47  H   UNL     1       7.658   4.655  14.846  0.00  0.00    +0.106 HD
BRANCH  46  48
ATOM     48  N   UNL     1       8.347   4.018  17.492  0.00  0.00    -0.295 N 
ATOM     49  H   UNL     1       8.873   3.491  16.795  0.00  0.00    +0.163 HD
ATOM     50  H   UNL     1       8.150   3.346  18.233  0.00  0.00    +0.163 HD
ENDBRANCH  46  48
ENDBRANCH  41  42
ENDBRANCH  35  41
ENDBRANCH   1  35
TORSDOF 9
ENDMDL
MODEL 15
REMARK VINA RESULT:    -7.416      1.594      2.336
REMARK INTER + INTRA:         -11.156
REMARK INTER:                 -10.112
REMARK INTRA:                  -1.044
REMARK UNBOUND:                -0.489
REMARK  Name = 
REMARK  9 active torsions:
REMARK  status: ('A' for Active; 'I' for Inactive)
REMARK    1  A    between atoms: C_1  and  C_2
REMARK    2  A    between atoms: C_2  and  C_3
REMARK    3  A    between atoms: C_2  and  S_24
REMARK    4  A    between atoms: C_7  and  C_9
REMARK    5  A    between atoms: C_11  and  C_14
REMARK    6  A    between atoms: C_17  and  C_20
REMARK    7  A    between atoms: N_22  and  C_23
REMARK    8  A    between atoms: S_24  and  C_25
REMARK    9  A    between atoms: N_29  and  N_30
REMARK                            x       y       z     vdW  Elec       q    Type
REMARK                         _______ _______ _______ _____ _____    ______ ____
ROOT
ATOM      1  C   UNL     1      -0.793  12.212  21.095  0.00  0.00    -0.034 A 
ATOM      2  C   UNL     1      -1.909  12.387  20.263  0.00  0.00    -0.057 A 
ATOM      3  C   UNL     1      -2.102  11.567  19.154  0.00  0.00    -0.061 A 
ATOM      4  C   UNL     1      -1.188  10.553  18.861  0.00  0.00    -0.051 A 
ATOM      5  C   UNL     1      -0.066  10.343  19.673  0.00  0.00    +0.020 A 
ATOM      6  C   UNL     1       0.117  11.182  20.786  0.00  0.00    -0.047 A 
ATOM      7  H   UNL     1      -2.638  13.167  20.474  0.00  0.00    +0.062 HD
ATOM      8  H   UNL     1      -2.969  11.717  18.514  0.00  0.00    +0.062 HD
ATOM      9  H   UNL     1      -1.368   9.933  17.987  0.00  0.00    +0.062 HD
ATOM     10  H   UNL     1       0.977  11.024  21.436  0.00  0.00    +0.063 HD
ENDROOT
BRANCH   5  11
ATOM     11  C   UNL     1       0.879   9.273  19.366  0.00  0.00    +0.168 A 
ATOM     12  C   UNL     1       1.547   8.855  18.240  0.00  0.00    +0.013 A 
ATOM     13  C   UNL     1       2.318   7.735  18.649  0.00  0.00    +0.114 A 
ATOM     14  N   UNL     1       2.128   7.503  19.957  0.00  0.00    -0.078 NA
ATOM     15  O   UNL     1       1.233   8.456  20.397  0.00  0.00    -0.354 OA
ATOM     16  H   UNL     1       1.488   9.297  17.257  0.00  0.00    +0.068 HD
BRANCH  13  17
ATOM     17  C   UNL     1       3.212   6.899  17.843  0.00  0.00    +0.004 A 
ATOM     18  C   UNL     1       3.105   5.500  17.858  0.00  0.00    -0.052 A 
ATOM     19  C   UNL     1       3.965   4.711  17.085  0.00  0.00    -0.049 A 
ATOM     20  C   UNL     1       4.953   5.305  16.292  0.00  0.00    +0.037 A 
ATOM     21  C   UNL     1       5.059   6.699  16.258  0.00  0.00    -0.049 A 
ATOM     22  C   UNL     1       4.199   7.485  17.034  0.00  0.00    -0.052 A 
ATOM     23  H   UNL     1       2.363   4.998  18.473  0.00  0.00    +0.062 HD
ATOM     24  H   UNL     1       3.866   3.627  17.108  0.00  0.00    +0.063 HD
ATOM     25  H   UNL     1       5.782   7.195  15.617  0.00  0.00    +0.063 HD
ATOM     26  H   UNL     1       4.298   8.569  16.989  0.00  0.00    +0.062 HD
BRANCH  20  27
ATOM     27  C   UNL     1       5.842   4.421  15.486  0.00  0.00    +0.244 C 
ATOM     28  O   UNL     1       6.842   3.928  15.997  0.00  0.00    -0.270 OA
ATOM     29  N   UNL     1       5.492   4.236  14.164  0.00  0.00    -0.314 N 
ATOM     30  H   UNL     1       4.819   4.864  13.747  0.00  0.00    +0.149 HD
BRANCH  29  31
ATOM     31  C   UNL     1       6.352   3.497  13.274  0.00  0.00    +0.000 C 
ATOM     32  H   UNL     1       5.737   2.821  12.676  0.00  0.00    +0.043 HD
ATOM     33  H   UNL     1       6.894   4.178  12.613  0.00  0.00    +0.043 HD
ATOM     34  H   UNL     1       7.058   2.920  13.875  0.00  0.00    +0.043 HD
ENDBRANCH  29  31
ENDBRANCH  20  27
ENDBRANCH  13  17
ENDBRANCH   5  11
BRANCH   1  35
ATOM     35  C   UNL     1      -0.610  13.115  22.308  0.00  0.00    +0.035 C 
ATOM     36  H   UNL     1       0.291  12.785  22.838  0.00  0.00    +0.046 HD
BRANCH  35  37
ATOM     37  C   UNL     1      -1.788  13.021  23.282  0.00  0.00    -0.049 C 
ATOM     38  H   UNL     1      -1.632  13.686  24.138  0.00  0.00    +0.024 HD
ATOM     39  H   UNL     1      -1.928  12.009  23.677  0.00  0.00    +0.024 HD
ATOM     40  H   UNL     1      -2.726  13.323  22.806  0.00  0.00    +0.024 HD
ENDBRANCH  35  37
BRANCH  35  41
ATOM     41  S   UNL     1      -0.356  14.848  21.761  0.00  0.00    -0.077 S 
BRANCH  41  42
ATOM     42  C   UNL     1       0.931  14.666  20.623  0.00  0.00    +0.209 A 
ATOM     43  N   UNL     1       2.179  14.334  20.867  0.00  0.00    -0.121 NA
ATOM     44  N   UNL     1       2.846  14.303  19.658  0.00  0.00    -0.135 NA
ATOM     45  C   UNL     1       1.979  14.613  18.717  0.00  0.00    +0.138 A 
ATOM     46  N   UNL     1       0.759  14.850  19.274  0.00  0.00    -0.231 N 
ATOM     47  H   UNL     1       2.172  14.680  17.658  0.00  0.00    +0.106 HD
BRANCH  46  48
ATOM     48  N   UNL     1      -0.431  15.211  18.565  0.00  0.00    -0.295 N 
ATOM     49  H   UNL     1      -0.209  15.879  17.828  0.00  0.00    +0.163 HD
ATOM     50  H   UNL     1      -1.068  15.710  19.186  0.00  0.00    +0.163 HD
ENDBRANCH  46  48
ENDBRANCH  41  42
ENDBRANCH  35  41
ENDBRANCH   1  35
TORSDOF 9
ENDMDL
MODEL 16
REMARK VINA RESULT:    -7.395      3.310      9.837
REMARK INTER + INTRA:         -11.126
REMARK INTER:                 -10.378
REMARK INTRA:                  -0.749
REMARK UNBOUND:                -0.489
REMARK  Name = 
REMARK  9 active torsions:
REMARK  status: ('A' for Active; 'I' for Inactive)
REMARK    1  A    between atoms: C_1  and  C_2
REMARK    2  A    between atoms: C_2  and  C_3
REMARK    3  A    between atoms: C_2  and  S_24
REMARK    4  A    between atoms: C_7  and  C_9
REMARK    5  A    between atoms: C_11  and  C_14
REMARK    6  A    between atoms: C_17  and  C_20
REMARK    7  A    between atoms: N_22  and  C_23
REMARK    8  A    between atoms: S_24  and  C_25
REMARK    9  A    between atoms: N_29  and  N_30
REMARK                            x       y       z     vdW  Elec       q    Type
REMARK                         _______ _______ _______ _____ _____    ______ ____
ROOT
ATOM      1  C   UNL     1       4.759   4.615  17.315  0.00  0.00    -0.034 A 
ATOM      2  C   UNL     1       3.944   3.544  16.921  0.00  0.00    -0.057 A 
ATOM      3  C   UNL     1       2.583   3.540  17.221  0.00  0.00    -0.061 A 
ATOM      4  C   UNL     1       2.013   4.610  17.914  0.00  0.00    -0.051 A 
ATOM      5  C   UNL     1       2.794   5.700  18.317  0.00  0.00    +0.020 A 
ATOM      6  C   UNL     1       4.166   5.687  18.010  0.00  0.00    -0.047 A 
ATOM      7  H   UNL     1       4.365   2.702  16.375  0.00  0.00    +0.062 HD
ATOM      8  H   UNL     1       1.964   2.700  16.914  0.00  0.00    +0.062 HD
ATOM      9  H   UNL     1       0.949   4.573  18.133  0.00  0.00    +0.062 HD
ATOM     10  H   UNL     1       4.786   6.533  18.304  0.00  0.00    +0.063 HD
ENDROOT
BRANCH   5  11
ATOM     11  C   UNL     1       2.187   6.820  19.031  0.00  0.00    +0.168 A 
ATOM     12  C   UNL     1       1.721   8.064  18.676  0.00  0.00    +0.013 A 
ATOM     13  C   UNL     1       1.252   8.652  19.882  0.00  0.00    +0.114 A 
ATOM     14  N   UNL     1       1.421   7.796  20.902  0.00  0.00    -0.078 NA
ATOM     15  O   UNL     1       2.004   6.665  20.371  0.00  0.00    -0.354 OA
ATOM     16  H   UNL     1       1.716   8.490  17.684  0.00  0.00    +0.068 HD
BRANCH  13  17
ATOM     17  C   UNL     1       0.659   9.977  20.081  0.00  0.00    +0.004 A 
ATOM     18  C   UNL     1       1.292  10.941  20.881  0.00  0.00    -0.052 A 
ATOM     19  C   UNL     1       0.717  12.203  21.065  0.00  0.00    -0.049 A 
ATOM     20  C   UNL     1      -0.504  12.523  20.461  0.00  0.00    +0.037 A 
ATOM     21  C   UNL     1      -1.136  11.576  19.649  0.00  0.00    -0.049 A 
ATOM     22  C   UNL     1      -0.559  10.313  19.468  0.00  0.00    -0.052 A 
ATOM     23  H   UNL     1       2.232  10.728  21.382  0.00  0.00    +0.062 HD
ATOM     24  H   UNL     1       1.223  12.938  21.689  0.00  0.00    +0.063 HD
ATOM     25  H   UNL     1      -2.059  11.806  19.126  0.00  0.00    +0.063 HD
ATOM     26  H   UNL     1      -1.068   9.592  18.829  0.00  0.00    +0.062 HD
BRANCH  20  27
ATOM     27  C   UNL     1      -1.073  13.881  20.687  0.00  0.00    +0.244 C 
ATOM     28  O   UNL     1      -0.342  14.802  21.036  0.00  0.00    -0.270 OA
ATOM     29  N   UNL     1      -2.436  14.012  20.521  0.00  0.00    -0.314 N 
ATOM     30  H   UNL     1      -3.005  13.178  20.489  0.00  0.00    +0.149 HD
BRANCH  29  31
ATOM     31  C   UNL     1      -3.097  15.256  20.833  0.00  0.00    +0.000 C 
ATOM     32  H   UNL     1      -4.035  15.302  20.275  0.00  0.00    +0.043 HD
ATOM     33  H   UNL     1      -3.306  15.319  21.903  0.00  0.00    +0.043 HD
ATOM     34  H   UNL     1      -2.447  16.079  20.530  0.00  0.00    +0.043 HD
ENDBRANCH  29  31
ENDBRANCH  20  27
ENDBRANCH  13  17
ENDBRANCH   5  11
BRANCH   1  35
ATOM     35  C   UNL     1       6.241   4.601  16.965  0.00  0.00    +0.035 C 
ATOM     36  H   UNL     1       6.484   3.605  16.576  0.00  0.00    +0.046 HD
BRANCH  35  37
ATOM     37  C   UNL     1       7.126   4.853  18.190  0.00  0.00    -0.049 C 
ATOM     38  H   UNL     1       6.532   4.803  19.109  0.00  0.00    +0.024 HD
ATOM     39  H   UNL     1       7.608   5.837  18.166  0.00  0.00    +0.024 HD
ATOM     40  H   UNL     1       7.916   4.100  18.275  0.00  0.00    +0.024 HD
ENDBRANCH  35  37
BRANCH  35  41
ATOM     41  S   UNL     1       6.584   5.834  15.651  0.00  0.00    -0.077 S 
BRANCH  41  42
ATOM     42  C   UNL     1       6.541   4.848  14.233  0.00  0.00    +0.209 A 
ATOM     43  N   UNL     1       5.677   3.904  13.936  0.00  0.00    -0.121 NA
ATOM     44  N   UNL     1       6.027   3.391  12.702  0.00  0.00    -0.135 NA
ATOM     45  C   UNL     1       7.092   4.043  12.288  0.00  0.00    +0.138 A 
ATOM     46  N   UNL     1       7.454   4.971  13.217  0.00  0.00    -0.231 N 
ATOM     47  H   UNL     1       7.623   3.891  11.361  0.00  0.00    +0.106 HD
BRANCH  46  48
ATOM     48  N   UNL     1       8.563   5.871  13.114  0.00  0.00    -0.295 N 
ATOM     49  H   UNL     1       8.330   6.764  13.546  0.00  0.00    +0.163 HD
ATOM     50  H   UNL     1       8.742   6.094  12.135  0.00  0.00    +0.163 HD
ENDBRANCH  46  48
ENDBRANCH  41  42
ENDBRANCH  35  41
ENDBRANCH   1  35
TORSDOF 9
ENDMDL
MODEL 17
REMARK VINA RESULT:    -7.189      3.387      9.662
REMARK INTER + INTRA:         -10.831
REMARK INTER:                  -9.810
REMARK INTRA:                  -1.021
REMARK UNBOUND:                -0.489
REMARK  Name = 
REMARK  9 active torsions:
REMARK  status: ('A' for Active; 'I' for Inactive)
REMARK    1  A    between atoms: C_1  and  C_2
REMARK    2  A    between atoms: C_2  and  C_3
REMARK    3  A    between atoms: C_2  and  S_24
REMARK    4  A    between atoms: C_7  and  C_9
REMARK    5  A    between atoms: C_11  and  C_14
REMARK    6  A    between atoms: C_17  and  C_20
REMARK    7  A    between atoms: N_22  and  C_23
REMARK    8  A    between atoms: S_24  and  C_25
REMARK    9  A    between atoms: N_29  and  N_30
REMARK                            x       y       z     vdW  Elec       q    Type
REMARK                         _______ _______ _______ _____ _____    ______ ____
ROOT
ATOM      1  C   UNL     1       5.359   5.052  18.846  0.00  0.00    -0.034 A 
ATOM      2  C   UNL     1       4.713   3.821  19.030  0.00  0.00    -0.057 A 
ATOM      3  C   UNL     1       3.330   3.762  19.189  0.00  0.00    -0.061 A 
ATOM      4  C   UNL     1       2.568   4.931  19.158  0.00  0.00    -0.051 A 
ATOM      5  C   UNL     1       3.178   6.179  18.969  0.00  0.00    +0.020 A 
ATOM      6  C   UNL     1       4.574   6.222  18.815  0.00  0.00    -0.047 A 
ATOM      7  H   UNL     1       5.285   2.895  19.052  0.00  0.00    +0.062 HD
ATOM      8  H   UNL     1       2.843   2.800  19.336  0.00  0.00    +0.062 HD
ATOM      9  H   UNL     1       1.493   4.849  19.287  0.00  0.00    +0.062 HD
ATOM     10  H   UNL     1       5.063   7.182  18.653  0.00  0.00    +0.063 HD
ENDROOT
BRANCH   5  11
ATOM     11  C   UNL     1       2.372   7.396  18.926  0.00  0.00    +0.168 A 
ATOM     12  C   UNL     1       1.566   8.064  19.818  0.00  0.00    +0.013 A 
ATOM     13  C   UNL     1       1.079   9.198  19.115  0.00  0.00    +0.114 A 
ATOM     14  N   UNL     1       1.578   9.210  17.869  0.00  0.00    -0.078 NA
ATOM     15  O   UNL     1       2.375   8.091  17.755  0.00  0.00    -0.354 OA
ATOM     16  H   UNL     1       1.359   7.775  20.837  0.00  0.00    +0.068 HD
BRANCH  13  17
ATOM     17  C   UNL     1       0.171  10.246  19.589  0.00  0.00    +0.004 A 
ATOM     18  C   UNL     1      -0.968  10.605  18.854  0.00  0.00    -0.052 A 
ATOM     19  C   UNL     1      -1.828  11.608  19.316  0.00  0.00    -0.049 A 
ATOM     20  C   UNL     1      -1.560  12.275  20.516  0.00  0.00    +0.037 A 
ATOM     21  C   UNL     1      -0.435  11.916  21.265  0.00  0.00    -0.049 A 
ATOM     22  C   UNL     1       0.424  10.913  20.799  0.00  0.00    -0.052 A 
ATOM     23  H   UNL     1      -1.204  10.123  17.909  0.00  0.00    +0.062 HD
ATOM     24  H   UNL     1      -2.708  11.872  18.731  0.00  0.00    +0.063 HD
ATOM     25  H   UNL     1      -0.224  12.379  22.224  0.00  0.00    +0.063 HD
ATOM     26  H   UNL     1       1.293  10.647  21.400  0.00  0.00    +0.062 HD
BRANCH  20  27
ATOM     27  C   UNL     1      -2.508  13.334  20.964  0.00  0.00    +0.244 C 
ATOM     28  O   UNL     1      -2.307  14.505  20.662  0.00  0.00    -0.270 OA
ATOM     29  N   UNL     1      -3.566  12.921  21.749  0.00  0.00    -0.314 N 
ATOM     30  H   UNL     1      -3.530  12.002  22.169  0.00  0.00    +0.149 HD
BRANCH  29  31
ATOM     31  C   UNL     1      -4.467  13.884  22.330  0.00  0.00    +0.000 C 
ATOM     32  H   UNL     1      -3.952  14.846  22.399  0.00  0.00    +0.043 HD
ATOM     33  H   UNL     1      -5.362  13.993  21.713  0.00  0.00    +0.043 HD
ATOM     34  H   UNL     1      -4.743  13.541  23.329  0.00  0.00    +0.043 HD
ENDBRANCH  29  31
ENDBRANCH  20  27
ENDBRANCH  13  17
ENDBRANCH   5  11
BRANCH   1  35
ATOM     35  C   UNL     1       6.870   5.089  18.665  0.00  0.00    +0.035 C 
ATOM     36  H   UNL     1       7.209   4.067  18.461  0.00  0.00    +0.046 HD
BRANCH  35  37
ATOM     37  C   UNL     1       7.592   5.579  19.924  0.00  0.00    -0.049 C 
ATOM     38  H   UNL     1       7.090   6.462  20.335  0.00  0.00    +0.024 HD
ATOM     39  H   UNL     1       8.634   5.856  19.732  0.00  0.00    +0.024 HD
ATOM     40  H   UNL     1       7.592   4.815  20.708  0.00  0.00    +0.024 HD
ENDBRANCH  35  37
BRANCH  35  41
ATOM     41  S   UNL     1       7.300   6.137  17.222  0.00  0.00    -0.077 S 
BRANCH  41  42
ATOM     42  C   UNL     1       6.661   5.204  15.915  0.00  0.00    +0.209 A 
ATOM     43  N   UNL     1       7.029   4.003  15.530  0.00  0.00    -0.121 NA
ATOM     44  N   UNL     1       6.241   3.651  14.453  0.00  0.00    -0.135 NA
ATOM     45  C   UNL     1       5.416   4.650  14.220  0.00  0.00    +0.138 A 
ATOM     46  N   UNL     1       5.641   5.651  15.115  0.00  0.00    -0.231 N 
ATOM     47  H   UNL     1       4.665   4.701  13.447  0.00  0.00    +0.106 HD
BRANCH  46  48
ATOM     48  N   UNL     1       4.937   6.896  15.175  0.00  0.00    -0.295 N 
ATOM     49  H   UNL     1       4.232   6.935  14.439  0.00  0.00    +0.163 HD
ATOM     50  H   UNL     1       5.572   7.666  14.967  0.00  0.00    +0.163 HD
ENDBRANCH  46  48
ENDBRANCH  41  42
ENDBRANCH  35  41
ENDBRANCH   1  35
TORSDOF 9
ENDMDL
MODEL 18
REMARK VINA RESULT:    -7.109      2.976      3.837
REMARK INTER + INTRA:         -10.714
REMARK INTER:                  -9.912
REMARK INTRA:                  -0.802
REMARK UNBOUND:                -0.489
REMARK  Name = 
REMARK  9 active torsions:
REMARK  status: ('A' for Active; 'I' for Inactive)
REMARK    1  A    between atoms: C_1  and  C_2
REMARK    2  A    between atoms: C_2  and  C_3
REMARK    3  A    between atoms: C_2  and  S_24
REMARK    4  A    between atoms: C_7  and  C_9
REMARK    5  A    between atoms: C_11  and  C_14
REMARK    6  A    between atoms: C_17  and  C_20
REMARK    7  A    between atoms: N_22  and  C_23
REMARK    8  A    between atoms: S_24  and  C_25
REMARK    9  A    between atoms: N_29  and  N_30
REMARK                            x       y       z     vdW  Elec       q    Type
REMARK                         _______ _______ _______ _____ _____    ______ ____
ROOT
ATOM      1  C   UNL     1      -1.547  11.544  21.767  0.00  0.00    -0.034 A 
ATOM      2  C   UNL     1      -1.399  11.050  23.072  0.00  0.00    -0.057 A 
ATOM      3  C   UNL     1      -0.501  10.019  23.342  0.00  0.00    -0.061 A 
ATOM      4  C   UNL     1       0.269   9.469  22.315  0.00  0.00    -0.051 A 
ATOM      5  C   UNL     1       0.153   9.942  21.001  0.00  0.00    +0.020 A 
ATOM      6  C   UNL     1      -0.760  10.979  20.744  0.00  0.00    -0.047 A 
ATOM      7  H   UNL     1      -1.984  11.466  23.890  0.00  0.00    +0.062 HD
ATOM      8  H   UNL     1      -0.400   9.642  24.358  0.00  0.00    +0.062 HD
ATOM      9  H   UNL     1       0.957   8.666  22.560  0.00  0.00    +0.062 HD
ATOM     10  H   UNL     1      -0.853  11.368  19.731  0.00  0.00    +0.063 HD
ENDROOT
BRANCH   5  11
ATOM     11  C   UNL     1       0.970   9.370  19.935  0.00  0.00    +0.168 A 
ATOM     12  C   UNL     1       1.696   8.213  19.778  0.00  0.00    +0.013 A 
ATOM     13  C   UNL     1       2.257   8.291  18.474  0.00  0.00    +0.114 A 
ATOM     14  N   UNL     1       1.875   9.433  17.881  0.00  0.00    -0.078 NA
ATOM     15  O   UNL     1       1.081  10.099  18.791  0.00  0.00    -0.354 OA
ATOM     16  H   UNL     1       1.806   7.420  20.501  0.00  0.00    +0.068 HD
BRANCH  13  17
ATOM     17  C   UNL     1       3.127   7.326  17.796  0.00  0.00    +0.004 A 
ATOM     18  C   UNL     1       4.175   7.754  16.966  0.00  0.00    -0.052 A 
ATOM     19  C   UNL     1       4.999   6.824  16.322  0.00  0.00    -0.049 A 
ATOM     20  C   UNL     1       4.786   5.452  16.489  0.00  0.00    +0.037 A 
ATOM     21  C   UNL     1       3.754   5.013  17.325  0.00  0.00    -0.049 A 
ATOM     22  C   UNL     1       2.930   5.946  17.967  0.00  0.00    -0.052 A 
ATOM     23  H   UNL     1       4.363   8.810  16.797  0.00  0.00    +0.062 HD
ATOM     24  H   UNL     1       5.808   7.176  15.683  0.00  0.00    +0.063 HD
ATOM     25  H   UNL     1       3.591   3.957  17.515  0.00  0.00    +0.063 HD
ATOM     26  H   UNL     1       2.135   5.582  18.616  0.00  0.00    +0.062 HD
BRANCH  20  27
ATOM     27  C   UNL     1       5.693   4.503  15.783  0.00  0.00    +0.244 C 
ATOM     28  O   UNL     1       6.594   3.943  16.398  0.00  0.00    -0.270 OA
ATOM     29  N   UNL     1       5.477   4.337  14.430  0.00  0.00    -0.314 N 
ATOM     30  H   UNL     1       4.900   5.009  13.944  0.00  0.00    +0.149 HD
BRANCH  29  31
ATOM     31  C   UNL     1       6.375   3.535  13.637  0.00  0.00    +0.000 C 
ATOM     32  H   UNL     1       5.785   2.945  12.931  0.00  0.00    +0.043 HD
ATOM     33  H   UNL     1       7.072   4.172  13.087  0.00  0.00    +0.043 HD
ATOM     34  H   UNL     1       6.926   2.869  14.304  0.00  0.00    +0.043 HD
ENDBRANCH  29  31
ENDBRANCH  20  27
ENDBRANCH  13  17
ENDBRANCH   5  11
BRANCH   1  35
ATOM     35  C   UNL     1      -2.528  12.678  21.500  0.00  0.00    +0.035 C 
ATOM     36  H   UNL     1      -3.335  12.604  22.237  0.00  0.00    +0.046 HD
BRANCH  35  37
ATOM     37  C   UNL     1      -3.156  12.582  20.106  0.00  0.00    -0.049 C 
ATOM     38  H   UNL     1      -2.633  11.834  19.500  0.00  0.00    +0.024 HD
ATOM     39  H   UNL     1      -3.115  13.530  19.560  0.00  0.00    +0.024 HD
ATOM     40  H   UNL     1      -4.205  12.277  20.160  0.00  0.00    +0.024 HD
ENDBRANCH  35  37
BRANCH  35  41
ATOM     41  S   UNL     1      -1.688  14.294  21.724  0.00  0.00    -0.077 S 
BRANCH  41  42
ATOM     42  C   UNL     1      -2.109  14.678  23.355  0.00  0.00    +0.209 A 
ATOM     43  N   UNL     1      -1.318  14.705  24.404  0.00  0.00    -0.121 NA
ATOM     44  N   UNL     1      -2.084  15.071  25.494  0.00  0.00    -0.135 NA
ATOM     45  C   UNL     1      -3.315  15.257  25.070  0.00  0.00    +0.138 A 
ATOM     46  N   UNL     1      -3.382  15.023  23.730  0.00  0.00    -0.231 N 
ATOM     47  H   UNL     1      -4.166  15.551  25.666  0.00  0.00    +0.106 HD
BRANCH  46  48
ATOM     48  N   UNL     1      -4.557  15.128  22.918  0.00  0.00    -0.295 N 
ATOM     49  H   UNL     1      -4.297  15.313  21.950  0.00  0.00    +0.163 HD
ATOM     50  H   UNL     1      -5.104  15.942  23.201  0.00  0.00    +0.163 HD
ENDBRANCH  46  48
ENDBRANCH  41  42
ENDBRANCH  35  41
ENDBRANCH   1  35
TORSDOF 9
ENDMDL
MODEL 19
REMARK VINA RESULT:    -6.944      3.549      4.947
REMARK INTER + INTRA:         -10.478
REMARK INTER:                  -9.607
REMARK INTRA:                  -0.871
REMARK UNBOUND:                -0.489
REMARK  Name = 
REMARK  9 active torsions:
REMARK  status: ('A' for Active; 'I' for Inactive)
REMARK    1  A    between atoms: C_1  and  C_2
REMARK    2  A    between atoms: C_2  and  C_3
REMARK    3  A    between atoms: C_2  and  S_24
REMARK    4  A    between atoms: C_7  and  C_9
REMARK    5  A    between atoms: C_11  and  C_14
REMARK    6  A    between atoms: C_17  and  C_20
REMARK    7  A    between atoms: N_22  and  C_23
REMARK    8  A    between atoms: S_24  and  C_25
REMARK    9  A    between atoms: N_29  and  N_30
REMARK                            x       y       z     vdW  Elec       q    Type
REMARK                         _______ _______ _______ _____ _____    ______ ____
ROOT
ATOM      1  C   UNL     1      -1.401  12.185  19.691  0.00  0.00    -0.034 A 
ATOM      2  C   UNL     1      -0.683  13.388  19.622  0.00  0.00    -0.057 A 
ATOM      3  C   UNL     1       0.674  13.387  19.304  0.00  0.00    -0.061 A 
ATOM      4  C   UNL     1       1.334  12.184  19.044  0.00  0.00    -0.051 A 
ATOM      5  C   UNL     1       0.648  10.964  19.097  0.00  0.00    +0.020 A 
ATOM      6  C   UNL     1      -0.719  10.982  19.423  0.00  0.00    -0.047 A 
ATOM      7  H   UNL     1      -1.177  14.338  19.815  0.00  0.00    +0.062 HD
ATOM      8  H   UNL     1       1.220  14.327  19.259  0.00  0.00    +0.062 HD
ATOM      9  H   UNL     1       2.392  12.220  18.801  0.00  0.00    +0.062 HD
ATOM     10  H   UNL     1      -1.272  10.043  19.455  0.00  0.00    +0.063 HD
ENDROOT
BRANCH   5  11
ATOM     11  C   UNL     1       1.343   9.712  18.812  0.00  0.00    +0.168 A 
ATOM     12  C   UNL     1       1.431   8.484  19.424  0.00  0.00    +0.013 A 
ATOM     13  C   UNL     1       2.292   7.710  18.600  0.00  0.00    +0.114 A 
ATOM     14  N   UNL     1       2.689   8.438  17.545  0.00  0.00    -0.078 NA
ATOM     15  O   UNL     1       2.103   9.678  17.682  0.00  0.00    -0.354 OA
ATOM     16  H   UNL     1       0.940   8.185  20.337  0.00  0.00    +0.068 HD
BRANCH  13  17
ATOM     17  C   UNL     1       2.735   6.326  18.790  0.00  0.00    +0.004 A 
ATOM     18  C   UNL     1       3.521   5.678  17.825  0.00  0.00    -0.052 A 
ATOM     19  C   UNL     1       3.938   4.356  18.016  0.00  0.00    -0.049 A 
ATOM     20  C   UNL     1       3.570   3.654  19.169  0.00  0.00    +0.037 A 
ATOM     21  C   UNL     1       2.798   4.295  20.144  0.00  0.00    -0.049 A 
ATOM     22  C   UNL     1       2.381   5.617  19.950  0.00  0.00    -0.052 A 
ATOM     23  H   UNL     1       3.815   6.181  16.908  0.00  0.00    +0.062 HD
ATOM     24  H   UNL     1       4.549   3.870  17.256  0.00  0.00    +0.063 HD
ATOM     25  H   UNL     1       2.535   3.797  21.073  0.00  0.00    +0.063 HD
ATOM     26  H   UNL     1       1.784   6.097  20.724  0.00  0.00    +0.062 HD
BRANCH  20  27
ATOM     27  C   UNL     1       4.041   2.249  19.325  0.00  0.00    +0.244 C 
ATOM     28  O   UNL     1       3.622   1.375  18.574  0.00  0.00    -0.270 OA
ATOM     29  N   UNL     1       4.918   2.007  20.362  0.00  0.00    -0.314 N 
ATOM     30  H   UNL     1       5.018   2.703  21.087  0.00  0.00    +0.149 HD
BRANCH  29  31
ATOM     31  C   UNL     1       5.336   0.661  20.668  0.00  0.00    +0.000 C 
ATOM     32  H   UNL     1       5.121   0.024  19.806  0.00  0.00    +0.043 HD
ATOM     33  H   UNL     1       6.407   0.633  20.883  0.00  0.00    +0.043 HD
ATOM     34  H   UNL     1       4.773   0.312  21.535  0.00  0.00    +0.043 HD
ENDBRANCH  29  31
ENDBRANCH  20  27
ENDBRANCH  13  17
ENDBRANCH   5  11
BRANCH   1  35
ATOM     35  C   UNL     1      -2.885  12.214  20.030  0.00  0.00    +0.035 C 
ATOM     36  H   UNL     1      -3.079  11.417  20.758  0.00  0.00    +0.046 HD
BRANCH  35  37
ATOM     37  C   UNL     1      -3.764  11.952  18.803  0.00  0.00    -0.049 C 
ATOM     38  H   UNL     1      -3.764  12.823  18.138  0.00  0.00    +0.024 HD
ATOM     39  H   UNL     1      -4.806  11.744  19.068  0.00  0.00    +0.024 HD
ATOM     40  H   UNL     1      -3.395  11.102  18.221  0.00  0.00    +0.024 HD
ENDBRANCH  35  37
BRANCH  35  41
ATOM     41  S   UNL     1      -3.316  13.819  20.807  0.00  0.00    -0.077 S 
BRANCH  41  42
ATOM     42  C   UNL     1      -3.857  13.314  22.368  0.00  0.00    +0.209 A 
ATOM     43  N   UNL     1      -5.095  13.221  22.798  0.00  0.00    -0.121 NA
ATOM     44  N   UNL     1      -5.051  12.769  24.103  0.00  0.00    -0.135 NA
ATOM     45  C   UNL     1      -3.785  12.600  24.421  0.00  0.00    +0.138 A 
ATOM     46  N   UNL     1      -2.995  12.928  23.362  0.00  0.00    -0.231 N 
ATOM     47  H   UNL     1      -3.398  12.255  25.368  0.00  0.00    +0.106 HD
BRANCH  46  48
ATOM     48  N   UNL     1      -1.565  12.869  23.333  0.00  0.00    -0.295 N 
ATOM     49  H   UNL     1      -1.178  13.340  24.150  0.00  0.00    +0.163 HD
ATOM     50  H   UNL     1      -1.211  13.398  22.536  0.00  0.00    +0.163 HD
ENDBRANCH  46  48
ENDBRANCH  41  42
ENDBRANCH  35  41
ENDBRANCH   1  35
TORSDOF 9
ENDMDL
MODEL 20
REMARK VINA RESULT:    -6.833      2.971      4.070
REMARK INTER + INTRA:         -10.318
REMARK INTER:                  -9.455
REMARK INTRA:                  -0.863
REMARK UNBOUND:                -0.489
REMARK  Name = 
REMARK  9 active torsions:
REMARK  status: ('A' for Active; 'I' for Inactive)
REMARK    1  A    between atoms: C_1  and  C_2
REMARK    2  A    between atoms: C_2  and  C_3
REMARK    3  A    between atoms: C_2  and  S_24
REMARK    4  A    between atoms: C_7  and  C_9
REMARK    5  A    between atoms: C_11  and  C_14
REMARK    6  A    between atoms: C_17  and  C_20
REMARK    7  A    between atoms: N_22  and  C_23
REMARK    8  A    between atoms: S_24  and  C_25
REMARK    9  A    between atoms: N_29  and  N_30
REMARK                            x       y       z     vdW  Elec       q    Type
REMARK                         _______ _______ _______ _____ _____    ______ ____
ROOT
ATOM      1  C   UNL     1      -1.734  12.192  19.947  0.00  0.00    -0.034 A 
ATOM      2  C   UNL     1      -1.034  13.404  20.040  0.00  0.00    -0.057 A 
ATOM      3  C   UNL     1       0.351  13.437  19.892  0.00  0.00    -0.061 A 
ATOM      4  C   UNL     1       1.060  12.261  19.641  0.00  0.00    -0.051 A 
ATOM      5  C   UNL     1       0.394  11.032  19.534  0.00  0.00    +0.020 A 
ATOM      6  C   UNL     1      -1.002  11.015  19.690  0.00  0.00    -0.047 A 
ATOM      7  H   UNL     1      -1.565  14.335  20.230  0.00  0.00    +0.062 HD
ATOM      8  H   UNL     1       0.882  14.384  19.972  0.00  0.00    +0.062 HD
ATOM      9  H   UNL     1       2.139  12.322  19.533  0.00  0.00    +0.062 HD
ATOM     10  H   UNL     1      -1.537  10.071  19.596  0.00  0.00    +0.063 HD
ENDROOT
BRANCH   5  11
ATOM     11  C   UNL     1       1.142   9.809  19.259  0.00  0.00    +0.168 A 
ATOM     12  C   UNL     1       1.879   9.334  18.200  0.00  0.00    +0.013 A 
ATOM     13  C   UNL     1       2.339   8.051  18.602  0.00  0.00    +0.114 A 
ATOM     14  N   UNL     1       1.905   7.780  19.843  0.00  0.00    -0.078 NA
ATOM     15  O   UNL     1       1.162   8.869  20.245  0.00  0.00    -0.354 OA
ATOM     16  H   UNL     1       2.063   9.842  17.266  0.00  0.00    +0.068 HD
BRANCH  13  17
ATOM     17  C   UNL     1       3.162   7.099  17.851  0.00  0.00    +0.004 A 
ATOM     18  C   UNL     1       4.182   7.542  16.995  0.00  0.00    -0.052 A 
ATOM     19  C   UNL     1       4.961   6.624  16.281  0.00  0.00    -0.049 A 
ATOM     20  C   UNL     1       4.730   5.250  16.402  0.00  0.00    +0.037 A 
ATOM     21  C   UNL     1       3.725   4.797  17.263  0.00  0.00    -0.049 A 
ATOM     22  C   UNL     1       2.945   5.717  17.975  0.00  0.00    -0.052 A 
ATOM     23  H   UNL     1       4.384   8.601  16.860  0.00  0.00    +0.062 HD
ATOM     24  H   UNL     1       5.750   6.987  15.623  0.00  0.00    +0.063 HD
ATOM     25  H   UNL     1       3.550   3.736  17.418  0.00  0.00    +0.063 HD
ATOM     26  H   UNL     1       2.171   5.342  18.642  0.00  0.00    +0.062 HD
BRANCH  20  27
ATOM     27  C   UNL     1       5.588   4.315  15.622  0.00  0.00    +0.244 C 
ATOM     28  O   UNL     1       6.384   3.585  16.202  0.00  0.00    -0.270 OA
ATOM     29  N   UNL     1       5.455   4.358  14.249  0.00  0.00    -0.314 N 
ATOM     30  H   UNL     1       4.982   5.147  13.831  0.00  0.00    +0.149 HD
BRANCH  29  31
ATOM     31  C   UNL     1       6.326   3.579  13.404  0.00  0.00    +0.000 C 
ATOM     32  H   UNL     1       5.951   3.629  12.378  0.00  0.00    +0.043 HD
ATOM     33  H   UNL     1       7.345   3.972  13.439  0.00  0.00    +0.043 HD
ATOM     34  H   UNL     1       6.312   2.544  13.752  0.00  0.00    +0.043 HD
ENDBRANCH  29  31
ENDBRANCH  20  27
ENDBRANCH  13  17
ENDBRANCH   5  11
BRANCH   1  35
ATOM     35  C   UNL     1      -3.248  12.184  20.102  0.00  0.00    +0.035 C 
ATOM     36  H   UNL     1      -3.508  11.394  20.817  0.00  0.00    +0.046 HD
BRANCH  35  37
ATOM     37  C   UNL     1      -3.963  11.876  18.783  0.00  0.00    -0.049 C 
ATOM     38  H   UNL     1      -3.708  12.623  18.024  0.00  0.00    +0.024 HD
ATOM     39  H   UNL     1      -5.054  11.875  18.885  0.00  0.00    +0.024 HD
ATOM     40  H   UNL     1      -3.668  10.899  18.386  0.00  0.00    +0.024 HD
ENDBRANCH  35  37
BRANCH  35  41
ATOM     41  S   UNL     1      -3.813  13.790  20.787  0.00  0.00    -0.077 S 
BRANCH  41  42
ATOM     42  C   UNL     1      -4.096  13.379  22.441  0.00  0.00    +0.209 A 
ATOM     43  N   UNL     1      -5.145  12.774  22.951  0.00  0.00    -0.121 NA
ATOM     44  N   UNL     1      -4.935  12.649  24.310  0.00  0.00    -0.135 NA
ATOM     45  C   UNL     1      -3.761  13.179  24.581  0.00  0.00    +0.138 A 
ATOM     46  N   UNL     1      -3.193  13.652  23.437  0.00  0.00    -0.231 N 
ATOM     47  H   UNL     1      -3.291  13.246  25.550  0.00  0.00    +0.106 HD
BRANCH  46  48
ATOM     48  N   UNL     1      -1.918  14.292  23.338  0.00  0.00    -0.295 N 
ATOM     49  H   UNL     1      -1.735  14.560  22.371  0.00  0.00    +0.163 HD
ATOM     50  H   UNL     1      -1.176  13.631  23.569  0.00  0.00    +0.163 HD
ENDBRANCH  46  48
ENDBRANCH  41  42
ENDBRANCH  35  41
ENDBRANCH   1  35
TORSDOF 9
ENDMDL
MODEL 21
REMARK VINA RESULT:    -6.693      3.502      5.068
REMARK INTER + INTRA:         -10.116
REMARK INTER:                  -9.316
REMARK INTRA:                  -0.801
REMARK UNBOUND:                -0.489
REMARK  Name = 
REMARK  9 active torsions:
REMARK  status: ('A' for Active; 'I' for Inactive)
REMARK    1  A    between atoms: C_1  and  C_2
REMARK    2  A    between atoms: C_2  and  C_3
REMARK    3  A    between atoms: C_2  and  S_24
REMARK    4  A    between atoms: C_7  and  C_9
REMARK    5  A    between atoms: C_11  and  C_14
REMARK    6  A    between atoms: C_17  and  C_20
REMARK    7  A    between atoms: N_22  and  C_23
REMARK    8  A    between atoms: S_24  and  C_25
REMARK    9  A    between atoms: N_29  and  N_30
REMARK                            x       y       z     vdW  Elec       q    Type
REMARK                         _______ _______ _______ _____ _____    ______ ____
ROOT
ATOM      1  C   UNL     1      -1.294  12.904  20.329  0.00  0.00    -0.034 A 
ATOM      2  C   UNL     1      -0.582  14.080  20.048  0.00  0.00    -0.057 A 
ATOM      3  C   UNL     1       0.684  14.022  19.471  0.00  0.00    -0.061 A 
ATOM      4  C   UNL     1       1.259  12.789  19.157  0.00  0.00    -0.051 A 
ATOM      5  C   UNL     1       0.575  11.593  19.417  0.00  0.00    +0.020 A 
ATOM      6  C   UNL     1      -0.700  11.668  20.003  0.00  0.00    -0.047 A 
ATOM      7  H   UNL     1      -1.012  15.053  20.279  0.00  0.00    +0.062 HD
ATOM      8  H   UNL     1       1.227  14.942  19.263  0.00  0.00    +0.062 HD
ATOM      9  H   UNL     1       2.248  12.781  18.710  0.00  0.00    +0.062 HD
ATOM     10  H   UNL     1      -1.251  10.750  20.199  0.00  0.00    +0.063 HD
ENDROOT
BRANCH   5  11
ATOM     11  C   UNL     1       1.179  10.309  19.074  0.00  0.00    +0.168 A 
ATOM     12  C   UNL     1       1.255   9.076  19.678  0.00  0.00    +0.013 A 
ATOM     13  C   UNL     1       2.001   8.261  18.785  0.00  0.00    +0.114 A 
ATOM     14  N   UNL     1       2.343   8.971  17.698  0.00  0.00    -0.078 NA
ATOM     15  O   UNL     1       1.835  10.239  17.883  0.00  0.00    -0.354 OA
ATOM     16  H   UNL     1       0.829   8.800  20.631  0.00  0.00    +0.068 HD
BRANCH  13  17
ATOM     17  C   UNL     1       2.387   6.856  18.938  0.00  0.00    +0.004 A 
ATOM     18  C   UNL     1       2.062   6.137  20.098  0.00  0.00    -0.052 A 
ATOM     19  C   UNL     1       2.437   4.795  20.234  0.00  0.00    -0.049 A 
ATOM     20  C   UNL     1       3.150   4.151  19.218  0.00  0.00    +0.037 A 
ATOM     21  C   UNL     1       3.467   4.853  18.050  0.00  0.00    -0.049 A 
ATOM     22  C   UNL     1       3.092   6.195  17.918  0.00  0.00    -0.052 A 
ATOM     23  H   UNL     1       1.525   6.605  20.918  0.00  0.00    +0.062 HD
ATOM     24  H   UNL     1       2.175   4.254  21.142  0.00  0.00    +0.063 HD
ATOM     25  H   UNL     1       3.977   4.370  17.222  0.00  0.00    +0.063 HD
ATOM     26  H   UNL     1       3.347   6.722  16.999  0.00  0.00    +0.062 HD
BRANCH  20  27
ATOM     27  C   UNL     1       3.524   2.721  19.411  0.00  0.00    +0.244 C 
ATOM     28  O   UNL     1       2.763   1.834  19.042  0.00  0.00    -0.270 OA
ATOM     29  N   UNL     1       4.725   2.480  20.046  0.00  0.00    -0.314 N 
ATOM     30  H   UNL     1       5.171   3.236  20.546  0.00  0.00    +0.149 HD
BRANCH  29  31
ATOM     31  C   UNL     1       5.117   1.134  20.386  0.00  0.00    +0.000 C 
ATOM     32  H   UNL     1       5.244   1.071  21.469  0.00  0.00    +0.043 HD
ATOM     33  H   UNL     1       4.353   0.421  20.066  0.00  0.00    +0.043 HD
ATOM     34  H   UNL     1       6.063   0.913  19.889  0.00  0.00    +0.043 HD
ENDBRANCH  29  31
ENDBRANCH  20  27
ENDBRANCH  13  17
ENDBRANCH   5  11
BRANCH   1  35
ATOM     35  C   UNL     1      -2.681  12.994  20.951  0.00  0.00    +0.035 C 
ATOM     36  H   UNL     1      -3.372  12.432  20.313  0.00  0.00    +0.046 HD
BRANCH  35  37
ATOM     37  C   UNL     1      -3.186  14.438  21.032  0.00  0.00    -0.049 C 
ATOM     38  H   UNL     1      -3.877  14.649  20.208  0.00  0.00    +0.024 HD
ATOM     39  H   UNL     1      -2.375  15.172  20.972  0.00  0.00    +0.024 HD
ATOM     40  H   UNL     1      -3.729  14.621  21.964  0.00  0.00    +0.024 HD
ENDBRANCH  35  37
BRANCH  35  41
ATOM     41  S   UNL     1      -2.670  12.216  22.613  0.00  0.00    -0.077 S 
BRANCH  41  42
ATOM     42  C   UNL     1      -2.297  13.567  23.624  0.00  0.00    +0.209 A 
ATOM     43  N   UNL     1      -1.143  14.181  23.751  0.00  0.00    -0.121 NA
ATOM     44  N   UNL     1      -1.314  15.206  24.661  0.00  0.00    -0.135 NA
ATOM     45  C   UNL     1      -2.570  15.183  25.054  0.00  0.00    +0.138 A 
ATOM     46  N   UNL     1      -3.230  14.170  24.429  0.00  0.00    -0.231 N 
ATOM     47  H   UNL     1      -3.037  15.851  25.762  0.00  0.00    +0.106 HD
BRANCH  46  48
ATOM     48  N   UNL     1      -4.611  13.837  24.602  0.00  0.00    -0.295 N 
ATOM     49  H   UNL     1      -4.847  13.826  25.594  0.00  0.00    +0.163 HD
ATOM     50  H   UNL     1      -4.782  12.883  24.284  0.00  0.00    +0.163 HD
ENDBRANCH  46  48
ENDBRANCH  41  42
ENDBRANCH  35  41
ENDBRANCH   1  35
TORSDOF 9
ENDMDL
MODEL 22
REMARK VINA RESULT:    -6.659      3.091      3.915
REMARK INTER + INTRA:         -10.068
REMARK INTER:                  -9.204
REMARK INTRA:                  -0.864
REMARK UNBOUND:                -0.489
REMARK  Name = 
REMARK  9 active torsions:
REMARK  status: ('A' for Active; 'I' for Inactive)
REMARK    1  A    between atoms: C_1  and  C_2
REMARK    2  A    between atoms: C_2  and  C_3
REMARK    3  A    between atoms: C_2  and  S_24
REMARK    4  A    between atoms: C_7  and  C_9
REMARK    5  A    between atoms: C_11  and  C_14
REMARK    6  A    between atoms: C_17  and  C_20
REMARK    7  A    between atoms: N_22  and  C_23
REMARK    8  A    between atoms: S_24  and  C_25
REMARK    9  A    between atoms: N_29  and  N_30
REMARK                            x       y       z     vdW  Elec       q    Type
REMARK                         _______ _______ _______ _____ _____    ______ ____
ROOT
ATOM      1  C   UNL     1      -2.505  12.235  20.603  0.00  0.00    -0.034 A 
ATOM      2  C   UNL     1      -2.229  12.950  21.778  0.00  0.00    -0.057 A 
ATOM      3  C   UNL     1      -1.161  12.587  22.594  0.00  0.00    -0.061 A 
ATOM      4  C   UNL     1      -0.345  11.508  22.247  0.00  0.00    -0.051 A 
ATOM      5  C   UNL     1      -0.586  10.775  21.078  0.00  0.00    +0.020 A 
ATOM      6  C   UNL     1      -1.670  11.151  20.267  0.00  0.00    -0.047 A 
ATOM      7  H   UNL     1      -2.847  13.798  22.066  0.00  0.00    +0.062 HD
ATOM      8  H   UNL     1      -0.961  13.147  23.506  0.00  0.00    +0.062 HD
ATOM      9  H   UNL     1       0.478  11.251  22.908  0.00  0.00    +0.062 HD
ATOM     10  H   UNL     1      -1.864  10.601  19.347  0.00  0.00    +0.063 HD
ENDROOT
BRANCH   5  11
ATOM     11  C   UNL     1       0.279   9.656  20.716  0.00  0.00    +0.168 A 
ATOM     12  C   UNL     1       1.020   9.314  19.609  0.00  0.00    +0.013 A 
ATOM     13  C   UNL     1       1.633   8.073  19.931  0.00  0.00    +0.114 A 
ATOM     14  N   UNL     1       1.284   7.700  21.172  0.00  0.00    -0.078 NA
ATOM     15  O   UNL     1       0.442   8.681  21.653  0.00  0.00    -0.354 OA
ATOM     16  H   UNL     1       1.108   9.881  18.696  0.00  0.00    +0.068 HD
BRANCH  13  17
ATOM     17  C   UNL     1       2.524   7.254  19.104  0.00  0.00    +0.004 A 
ATOM     18  C   UNL     1       2.848   5.939  19.471  0.00  0.00    -0.052 A 
ATOM     19  C   UNL     1       3.700   5.166  18.675  0.00  0.00    -0.049 A 
ATOM     20  C   UNL     1       4.251   5.696  17.503  0.00  0.00    +0.037 A 
ATOM     21  C   UNL     1       3.924   7.000  17.119  0.00  0.00    -0.049 A 
ATOM     22  C   UNL     1       3.072   7.772  17.919  0.00  0.00    -0.052 A 
ATOM     23  H   UNL     1       2.455   5.496  20.382  0.00  0.00    +0.062 HD
ATOM     24  H   UNL     1       3.939   4.147  18.976  0.00  0.00    +0.063 HD
ATOM     25  H   UNL     1       4.294   7.426  16.192  0.00  0.00    +0.063 HD
ATOM     26  H   UNL     1       2.828   8.784  17.599  0.00  0.00    +0.062 HD
BRANCH  20  27
ATOM     27  C   UNL     1       5.152   4.831  16.690  0.00  0.00    +0.244 C 
ATOM     28  O   UNL     1       4.988   3.616  16.677  0.00  0.00    -0.270 OA
ATOM     29  N   UNL     1       6.169   5.470  16.010  0.00  0.00    -0.314 N 
ATOM     30  H   UNL     1       6.402   6.419  16.264  0.00  0.00    +0.149 HD
BRANCH  29  31
ATOM     31  C   UNL     1       7.162   4.709  15.293  0.00  0.00    +0.000 C 
ATOM     32  H   UNL     1       7.157   5.026  14.247  0.00  0.00    +0.043 HD
ATOM     33  H   UNL     1       8.154   4.878  15.720  0.00  0.00    +0.043 HD
ATOM     34  H   UNL     1       6.903   3.651  15.360  0.00  0.00    +0.043 HD
ENDBRANCH  29  31
ENDBRANCH  20  27
ENDBRANCH  13  17
ENDBRANCH   5  11
BRANCH   1  35
ATOM     35  C   UNL     1      -3.673  12.659  19.722  0.00  0.00    +0.035 C 
ATOM     36  H   UNL     1      -3.261  13.084  18.799  0.00  0.00    +0.046 HD
BRANCH  35  37
ATOM     37  C   UNL     1      -4.539  13.733  20.386  0.00  0.00    -0.049 C 
ATOM     38  H   UNL     1      -4.722  13.482  21.437  0.00  0.00    +0.024 HD
ATOM     39  H   UNL     1      -5.516  13.845  19.904  0.00  0.00    +0.024 HD
ATOM     40  H   UNL     1      -4.048  14.711  20.369  0.00  0.00    +0.024 HD
ENDBRANCH  35  37
BRANCH  35  41
ATOM     41  S   UNL     1      -4.683  11.192  19.279  0.00  0.00    -0.077 S 
BRANCH  41  42
ATOM     42  C   UNL     1      -4.026  10.773  17.737  0.00  0.00    +0.209 A 
ATOM     43  N   UNL     1      -3.219   9.777  17.452  0.00  0.00    -0.121 NA
ATOM     44  N   UNL     1      -2.961   9.824  16.096  0.00  0.00    -0.135 NA
ATOM     45  C   UNL     1      -3.625  10.847  15.601  0.00  0.00    +0.138 A 
ATOM     46  N   UNL     1      -4.311  11.476  16.594  0.00  0.00    -0.231 N 
ATOM     47  H   UNL     1      -3.644  11.167  14.570  0.00  0.00    +0.106 HD
BRANCH  46  48
ATOM     48  N   UNL     1      -5.147  12.627  16.437  0.00  0.00    -0.295 N 
ATOM     49  H   UNL     1      -5.693  12.782  17.284  0.00  0.00    +0.163 HD
ATOM     50  H   UNL     1      -5.840  12.458  15.708  0.00  0.00    +0.163 HD
ENDBRANCH  46  48
ENDBRANCH  41  42
ENDBRANCH  35  41
ENDBRANCH   1  35
TORSDOF 9
ENDMDL
MODEL 23
REMARK VINA RESULT:    -6.648      3.824      9.598
REMARK INTER + INTRA:         -10.051
REMARK INTER:                  -9.553
REMARK INTRA:                  -0.499
REMARK UNBOUND:                -0.489
REMARK  Name = 
REMARK  9 active torsions:
REMARK  status: ('A' for Active; 'I' for Inactive)
REMARK    1  A    between atoms: C_1  and  C_2
REMARK    2  A    between atoms: C_2  and  C_3
REMARK    3  A    between atoms: C_2  and  S_24
REMARK    4  A    between atoms: C_7  and  C_9
REMARK    5  A    between atoms: C_11  and  C_14
REMARK    6  A    between atoms: C_17  and  C_20
REMARK    7  A    between atoms: N_22  and  C_23
REMARK    8  A    between atoms: S_24  and  C_25
REMARK    9  A    between atoms: N_29  and  N_30
REMARK                            x       y       z     vdW  Elec       q    Type
REMARK                         _______ _______ _______ _____ _____    ______ ____
ROOT
ATOM      1  C   UNL     1       4.530   4.466  17.425  0.00  0.00    -0.034 A 
ATOM      2  C   UNL     1       5.833   4.791  17.019  0.00  0.00    -0.057 A 
ATOM      3  C   UNL     1       6.199   6.117  16.805  0.00  0.00    -0.061 A 
ATOM      4  C   UNL     1       5.272   7.143  17.000  0.00  0.00    -0.051 A 
ATOM      5  C   UNL     1       3.964   6.858  17.411  0.00  0.00    +0.020 A 
ATOM      6  C   UNL     1       3.609   5.514  17.619  0.00  0.00    -0.047 A 
ATOM      7  H   UNL     1       6.574   4.009  16.867  0.00  0.00    +0.062 HD
ATOM      8  H   UNL     1       7.212   6.355  16.485  0.00  0.00    +0.062 HD
ATOM      9  H   UNL     1       5.591   8.167  16.822  0.00  0.00    +0.062 HD
ATOM     10  H   UNL     1       2.600   5.275  17.952  0.00  0.00    +0.063 HD
ENDROOT
BRANCH   5  11
ATOM     11  C   UNL     1       3.004   7.938  17.624  0.00  0.00    +0.168 A 
ATOM     12  C   UNL     1       1.639   8.014  17.774  0.00  0.00    +0.013 A 
ATOM     13  C   UNL     1       1.353   9.395  17.948  0.00  0.00    +0.114 A 
ATOM     14  N   UNL     1       2.491  10.104  17.914  0.00  0.00    -0.078 NA
ATOM     15  O   UNL     1       3.511   9.199  17.709  0.00  0.00    -0.354 OA
ATOM     16  H   UNL     1       0.945   7.188  17.763  0.00  0.00    +0.068 HD
BRANCH  13  17
ATOM     17  C   UNL     1       0.051  10.039  18.143  0.00  0.00    +0.004 A 
ATOM     18  C   UNL     1      -0.066  11.228  18.878  0.00  0.00    -0.052 A 
ATOM     19  C   UNL     1      -1.315  11.835  19.058  0.00  0.00    -0.049 A 
ATOM     20  C   UNL     1      -2.469  11.259  18.515  0.00  0.00    +0.037 A 
ATOM     21  C   UNL     1      -2.362  10.082  17.768  0.00  0.00    -0.049 A 
ATOM     22  C   UNL     1      -1.112   9.476  17.591  0.00  0.00    -0.052 A 
ATOM     23  H   UNL     1       0.802  11.699  19.330  0.00  0.00    +0.062 HD
ATOM     24  H   UNL     1      -1.385  12.758  19.631  0.00  0.00    +0.063 HD
ATOM     25  H   UNL     1      -3.229   9.635  17.292  0.00  0.00    +0.063 HD
ATOM     26  H   UNL     1      -1.052   8.561  17.003  0.00  0.00    +0.062 HD
BRANCH  20  27
ATOM     27  C   UNL     1      -3.773  11.945  18.734  0.00  0.00    +0.244 C 
ATOM     28  O   UNL     1      -4.594  12.005  17.826  0.00  0.00    -0.270 OA
ATOM     29  N   UNL     1      -3.965  12.520  19.974  0.00  0.00    -0.314 N 
ATOM     30  H   UNL     1      -3.165  12.659  20.575  0.00  0.00    +0.149 HD
BRANCH  29  31
ATOM     31  C   UNL     1      -5.143  13.308  20.242  0.00  0.00    +0.000 C 
ATOM     32  H   UNL     1      -5.242  13.430  21.323  0.00  0.00    +0.043 HD
ATOM     33  H   UNL     1      -5.060  14.291  19.771  0.00  0.00    +0.043 HD
ATOM     34  H   UNL     1      -6.012  12.778  19.848  0.00  0.00    +0.043 HD
ENDBRANCH  29  31
ENDBRANCH  20  27
ENDBRANCH  13  17
ENDBRANCH   5  11
BRANCH   1  35
ATOM     35  C   UNL     1       4.157   3.009  17.662  0.00  0.00    +0.035 C 
ATOM     36  H   UNL     1       4.893   2.385  17.141  0.00  0.00    +0.046 HD
BRANCH  35  37
ATOM     37  C   UNL     1       2.773   2.667  17.102  0.00  0.00    -0.049 C 
ATOM     38  H   UNL     1       2.032   3.402  17.436  0.00  0.00    +0.024 HD
ATOM     39  H   UNL     1       2.421   1.681  17.421  0.00  0.00    +0.024 HD
ATOM     40  H   UNL     1       2.770   2.682  16.007  0.00  0.00    +0.024 HD
ENDBRANCH  35  37
BRANCH  35  41
ATOM     41  S   UNL     1       4.244   2.627  19.455  0.00  0.00    -0.077 S 
BRANCH  41  42
ATOM     42  C   UNL     1       2.632   2.985  19.962  0.00  0.00    +0.209 A 
ATOM     43  N   UNL     1       1.589   2.185  19.950  0.00  0.00    -0.121 NA
ATOM     44  N   UNL     1       0.515   2.893  20.452  0.00  0.00    -0.135 NA
ATOM     45  C   UNL     1       0.941   4.100  20.756  0.00  0.00    +0.138 A 
ATOM     46  N   UNL     1       2.267   4.207  20.467  0.00  0.00    -0.231 N 
ATOM     47  H   UNL     1       0.356   4.906  21.172  0.00  0.00    +0.106 HD
BRANCH  46  48
ATOM     48  N   UNL     1       3.077   5.371  20.665  0.00  0.00    -0.295 N 
ATOM     49  H   UNL     1       2.577   6.202  20.353  0.00  0.00    +0.163 HD
ATOM     50  H   UNL     1       3.904   5.325  20.068  0.00  0.00    +0.163 HD
ENDBRANCH  46  48
ENDBRANCH  41  42
ENDBRANCH  35  41
ENDBRANCH   1  35
TORSDOF 9
ENDMDL
MODEL 24
REMARK VINA RESULT:    -6.607      3.346      4.914
REMARK INTER + INTRA:          -9.992
REMARK INTER:                  -9.322
REMARK INTRA:                  -0.670
REMARK UNBOUND:                -0.489
REMARK  Name = 
REMARK  9 active torsions:
REMARK  status: ('A' for Active; 'I' for Inactive)
REMARK    1  A    between atoms: C_1  and  C_2
REMARK    2  A    between atoms: C_2  and  C_3
REMARK    3  A    between atoms: C_2  and  S_24
REMARK    4  A    between atoms: C_7  and  C_9
REMARK    5  A    between atoms: C_11  and  C_14
REMARK    6  A    between atoms: C_17  and  C_20
REMARK    7  A    between atoms: N_22  and  C_23
REMARK    8  A    between atoms: S_24  and  C_25
REMARK    9  A    between atoms: N_29  and  N_30
REMARK                            x       y       z     vdW  Elec       q    Type
REMARK                         _______ _______ _______ _____ _____    ______ ____
ROOT
ATOM      1  C   UNL     1      -1.143  13.812  20.057  0.00  0.00    -0.034 A 
ATOM      2  C   UNL     1      -0.326  14.726  19.374  0.00  0.00    -0.057 A 
ATOM      3  C   UNL     1       0.894  14.323  18.836  0.00  0.00    -0.061 A 
ATOM      4  C   UNL     1       1.316  12.998  18.965  0.00  0.00    -0.051 A 
ATOM      5  C   UNL     1       0.525  12.056  19.635  0.00  0.00    +0.020 A 
ATOM      6  C   UNL     1      -0.702  12.479  20.175  0.00  0.00    -0.047 A 
ATOM      7  H   UNL     1      -0.637  15.762  19.255  0.00  0.00    +0.062 HD
ATOM      8  H   UNL     1       1.520  15.043  18.314  0.00  0.00    +0.062 HD
ATOM      9  H   UNL     1       2.274  12.718  18.536  0.00  0.00    +0.062 HD
ATOM     10  H   UNL     1      -1.337  11.756  20.687  0.00  0.00    +0.063 HD
ENDROOT
BRANCH   5  11
ATOM     11  C   UNL     1       0.968  10.670  19.755  0.00  0.00    +0.168 A 
ATOM     12  C   UNL     1       1.530   9.749  18.903  0.00  0.00    +0.013 A 
ATOM     13  C   UNL     1       1.713   8.574  19.680  0.00  0.00    +0.114 A 
ATOM     14  N   UNL     1       1.290   8.788  20.936  0.00  0.00    -0.078 NA
ATOM     15  O   UNL     1       0.827  10.085  20.977  0.00  0.00    -0.354 OA
ATOM     16  H   UNL     1       1.778   9.902  17.864  0.00  0.00    +0.068 HD
BRANCH  13  17
ATOM     17  C   UNL     1       2.268   7.282  19.266  0.00  0.00    +0.004 A 
ATOM     18  C   UNL     1       2.070   6.127  20.038  0.00  0.00    -0.052 A 
ATOM     19  C   UNL     1       2.605   4.899  19.633  0.00  0.00    -0.049 A 
ATOM     20  C   UNL     1       3.355   4.805  18.456  0.00  0.00    +0.037 A 
ATOM     21  C   UNL     1       3.546   5.946  17.671  0.00  0.00    -0.049 A 
ATOM     22  C   UNL     1       3.011   7.174  18.079  0.00  0.00    -0.052 A 
ATOM     23  H   UNL     1       1.509   6.161  20.967  0.00  0.00    +0.062 HD
ATOM     24  H   UNL     1       2.440   4.013  20.245  0.00  0.00    +0.063 HD
ATOM     25  H   UNL     1       4.081   5.899  16.727  0.00  0.00    +0.063 HD
ATOM     26  H   UNL     1       3.170   8.049  17.450  0.00  0.00    +0.062 HD
BRANCH  20  27
ATOM     27  C   UNL     1       3.902   3.474  18.068  0.00  0.00    +0.244 C 
ATOM     28  O   UNL     1       4.572   3.360  17.049  0.00  0.00    -0.270 OA
ATOM     29  N   UNL     1       3.576   2.413  18.888  0.00  0.00    -0.314 N 
ATOM     30  H   UNL     1       2.822   2.524  19.552  0.00  0.00    +0.149 HD
BRANCH  29  31
ATOM     31  C   UNL     1       3.956   1.068  18.533  0.00  0.00    +0.000 C 
ATOM     32  H   UNL     1       4.474   1.095  17.571  0.00  0.00    +0.043 HD
ATOM     33  H   UNL     1       4.619   0.645  19.291  0.00  0.00    +0.043 HD
ATOM     34  H   UNL     1       3.052   0.463  18.449  0.00  0.00    +0.043 HD
ENDBRANCH  29  31
ENDBRANCH  20  27
ENDBRANCH  13  17
ENDBRANCH   5  11
BRANCH   1  35
ATOM     35  C   UNL     1      -2.477  14.275  20.626  0.00  0.00    +0.035 C 
ATOM     36  H   UNL     1      -2.894  15.022  19.940  0.00  0.00    +0.046 HD
BRANCH  35  37
ATOM     37  C   UNL     1      -2.322  14.935  22.000  0.00  0.00    -0.049 C 
ATOM     38  H   UNL     1      -2.603  14.236  22.795  0.00  0.00    +0.024 HD
ATOM     39  H   UNL     1      -2.948  15.826  22.112  0.00  0.00    +0.024 HD
ATOM     40  H   UNL     1      -1.285  15.234  22.185  0.00  0.00    +0.024 HD
ENDBRANCH  35  37
BRANCH  35  41
ATOM     41  S   UNL     1      -3.642  12.860  20.714  0.00  0.00    -0.077 S 
BRANCH  41  42
ATOM     42  C   UNL     1      -4.089  12.884  22.383  0.00  0.00    +0.209 A 
ATOM     43  N   UNL     1      -5.146  13.448  22.923  0.00  0.00    -0.121 NA
ATOM     44  N   UNL     1      -5.098  13.207  24.282  0.00  0.00    -0.135 NA
ATOM     45  C   UNL     1      -4.013  12.501  24.522  0.00  0.00    +0.138 A 
ATOM     46  N   UNL     1      -3.345  12.271  23.358  0.00  0.00    -0.231 N 
ATOM     47  H   UNL     1      -3.676  12.143  25.483  0.00  0.00    +0.106 HD
BRANCH  46  48
ATOM     48  N   UNL     1      -2.124  11.537  23.224  0.00  0.00    -0.295 N 
ATOM     49  H   UNL     1      -1.835  11.514  22.246  0.00  0.00    +0.163 HD
ATOM     50  H   UNL     1      -2.276  10.560  23.473  0.00  0.00    +0.163 HD
ENDBRANCH  46  48
ENDBRANCH  41  42
ENDBRANCH  35  41
ENDBRANCH   1  35
TORSDOF 9
ENDMDL
MODEL 25
REMARK VINA RESULT:    -6.567      3.658     10.211
REMARK INTER + INTRA:          -9.936
REMARK INTER:                 -10.076
REMARK INTRA:                   0.140
REMARK UNBOUND:                -0.489
REMARK  Name = 
REMARK  9 active torsions:
REMARK  status: ('A' for Active; 'I' for Inactive)
REMARK    1  A    between atoms: C_1  and  C_2
REMARK    2  A    between atoms: C_2  and  C_3
REMARK    3  A    between atoms: C_2  and  S_24
REMARK    4  A    between atoms: C_7  and  C_9
REMARK    5  A    between atoms: C_11  and  C_14
REMARK    6  A    between atoms: C_17  and  C_20
REMARK    7  A    between atoms: N_22  and  C_23
REMARK    8  A    between atoms: S_24  and  C_25
REMARK    9  A    between atoms: N_29  and  N_30
REMARK                            x       y       z     vdW  Elec       q    Type
REMARK                         _______ _______ _______ _____ _____    ______ ____
ROOT
ATOM      1  C   UNL     1       3.044   5.776  17.821  0.00  0.00    -0.034 A 
ATOM      2  C   UNL     1       4.147   6.295  17.126  0.00  0.00    -0.057 A 
ATOM      3  C   UNL     1       4.289   7.669  16.947  0.00  0.00    -0.061 A 
ATOM      4  C   UNL     1       3.336   8.548  17.464  0.00  0.00    -0.051 A 
ATOM      5  C   UNL     1       2.225   8.067  18.169  0.00  0.00    +0.020 A 
ATOM      6  C   UNL     1       2.094   6.678  18.338  0.00  0.00    -0.047 A 
ATOM      7  H   UNL     1       4.905   5.629  16.719  0.00  0.00    +0.062 HD
ATOM      8  H   UNL     1       5.147   8.058  16.402  0.00  0.00    +0.062 HD
ATOM      9  H   UNL     1       3.477   9.613  17.304  0.00  0.00    +0.062 HD
ATOM     10  H   UNL     1       1.243   6.287  18.896  0.00  0.00    +0.063 HD
ENDROOT
BRANCH   5  11
ATOM     11  C   UNL     1       1.239   8.994  18.717  0.00  0.00    +0.168 A 
ATOM     12  C   UNL     1       0.871   9.391  19.981  0.00  0.00    +0.013 A 
ATOM     13  C   UNL     1      -0.173  10.336  19.794  0.00  0.00    +0.114 A 
ATOM     14  N   UNL     1      -0.408  10.502  18.483  0.00  0.00    -0.078 NA
ATOM     15  O   UNL     1       0.466   9.667  17.820  0.00  0.00    -0.354 OA
ATOM     16  H   UNL     1       1.297   9.048  20.911  0.00  0.00    +0.068 HD
BRANCH  13  17
ATOM     17  C   UNL     1      -0.934  11.069  20.809  0.00  0.00    +0.004 A 
ATOM     18  C   UNL     1      -0.769  10.795  22.176  0.00  0.00    -0.052 A 
ATOM     19  C   UNL     1      -1.502  11.500  23.137  0.00  0.00    -0.049 A 
ATOM     20  C   UNL     1      -2.419  12.484  22.751  0.00  0.00    +0.037 A 
ATOM     21  C   UNL     1      -2.581  12.775  21.393  0.00  0.00    -0.049 A 
ATOM     22  C   UNL     1      -1.847  12.067  20.433  0.00  0.00    -0.052 A 
ATOM     23  H   UNL     1      -0.080  10.028  22.517  0.00  0.00    +0.062 HD
ATOM     24  H   UNL     1      -1.360  11.275  24.193  0.00  0.00    +0.063 HD
ATOM     25  H   UNL     1      -3.247  13.565  21.060  0.00  0.00    +0.063 HD
ATOM     26  H   UNL     1      -1.987  12.313  19.381  0.00  0.00    +0.062 HD
BRANCH  20  27
ATOM     27  C   UNL     1      -3.173  13.207  23.813  0.00  0.00    +0.244 C 
ATOM     28  O   UNL     1      -4.233  12.753  24.230  0.00  0.00    -0.270 OA
ATOM     29  N   UNL     1      -2.632  14.399  24.249  0.00  0.00    -0.314 N 
ATOM     30  H   UNL     1      -1.910  14.837  23.694  0.00  0.00    +0.149 HD
BRANCH  29  31
ATOM     31  C   UNL     1      -3.347  15.230  25.186  0.00  0.00    +0.000 C 
ATOM     32  H   UNL     1      -4.272  15.571  24.714  0.00  0.00    +0.043 HD
ATOM     33  H   UNL     1      -3.586  14.666  26.091  0.00  0.00    +0.043 HD
ATOM     34  H   UNL     1      -2.721  16.088  25.436  0.00  0.00    +0.043 HD
ENDBRANCH  29  31
ENDBRANCH  20  27
ENDBRANCH  13  17
ENDBRANCH   5  11
BRANCH   1  35
ATOM     35  C   UNL     1       2.917   4.270  18.012  0.00  0.00    +0.035 C 
ATOM     36  H   UNL     1       3.010   3.798  17.027  0.00  0.00    +0.046 HD
BRANCH  35  37
ATOM     37  C   UNL     1       1.556   3.875  18.595  0.00  0.00    -0.049 C 
ATOM     38  H   UNL     1       0.810   4.650  18.387  0.00  0.00    +0.024 HD
ATOM     39  H   UNL     1       1.588   3.735  19.681  0.00  0.00    +0.024 HD
ATOM     40  H   UNL     1       1.187   2.944  18.153  0.00  0.00    +0.024 HD
ENDBRANCH  35  37
BRANCH  35  41
ATOM     41  S   UNL     1       4.281   3.660  19.076  0.00  0.00    -0.077 S 
BRANCH  41  42
ATOM     42  C   UNL     1       5.665   4.036  18.112  0.00  0.00    +0.209 A 
ATOM     43  N   UNL     1       5.869   3.740  16.848  0.00  0.00    -0.121 NA
ATOM     44  N   UNL     1       7.105   4.244  16.496  0.00  0.00    -0.135 NA
ATOM     45  C   UNL     1       7.611   4.833  17.558  0.00  0.00    +0.138 A 
ATOM     46  N   UNL     1       6.742   4.730  18.601  0.00  0.00    -0.231 N 
ATOM     47  H   UNL     1       8.566   5.332  17.627  0.00  0.00    +0.106 HD
BRANCH  46  48
ATOM     48  N   UNL     1       6.947   5.253  19.918  0.00  0.00    -0.295 N 
ATOM     49  H   UNL     1       6.534   6.182  19.994  0.00  0.00    +0.163 HD
ATOM     50  H   UNL     1       7.943   5.396  20.085  0.00  0.00    +0.163 HD
ENDBRANCH  46  48
ENDBRANCH  41  42
ENDBRANCH  35  41
ENDBRANCH   1  35
TORSDOF 9
ENDMDL
MODEL 26
REMARK VINA RESULT:    -6.504      3.442      5.339
REMARK INTER + INTRA:          -9.844
REMARK INTER:                  -9.163
REMARK INTRA:                  -0.681
REMARK UNBOUND:                -0.489
REMARK  Name = 
REMARK  9 active torsions:
REMARK  status: ('A' for Active; 'I' for Inactive)
REMARK    1  A    between atoms: C_1  and  C_2
REMARK    2  A    between atoms: C_2  and  C_3
REMARK    3  A    between atoms: C_2  and  S_24
REMARK    4  A    between atoms: C_7  and  C_9
REMARK    5  A    between atoms: C_11  and  C_14
REMARK    6  A    between atoms: C_17  and  C_20
REMARK    7  A    between atoms: N_22  and  C_23
REMARK    8  A    between atoms: S_24  and  C_25
REMARK    9  A    between atoms: N_29  and  N_30
REMARK                            x       y       z     vdW  Elec       q    Type
REMARK                         _______ _______ _______ _____ _____    ______ ____
ROOT
ATOM      1  C   UNL     1      -1.223  14.049  19.971  0.00  0.00    -0.034 A 
ATOM      2  C   UNL     1      -0.433  15.163  19.654  0.00  0.00    -0.057 A 
ATOM      3  C   UNL     1       0.849  14.999  19.133  0.00  0.00    -0.061 A 
ATOM      4  C   UNL     1       1.360  13.719  18.914  0.00  0.00    -0.051 A 
ATOM      5  C   UNL     1       0.598  12.582  19.212  0.00  0.00    +0.020 A 
ATOM      6  C   UNL     1      -0.692  12.764  19.740  0.00  0.00    -0.047 A 
ATOM      7  H   UNL     1      -0.812  16.171  19.811  0.00  0.00    +0.062 HD
ATOM      8  H   UNL     1       1.453  15.873  18.896  0.00  0.00    +0.062 HD
ATOM      9  H   UNL     1       2.364  13.627  18.508  0.00  0.00    +0.062 HD
ATOM     10  H   UNL     1      -1.304  11.892  19.965  0.00  0.00    +0.063 HD
ENDROOT
BRANCH   5  11
ATOM     11  C   UNL     1       1.136  11.247  18.968  0.00  0.00    +0.168 A 
ATOM     12  C   UNL     1       1.036  10.026  19.594  0.00  0.00    +0.013 A 
ATOM     13  C   UNL     1       1.824   9.135  18.816  0.00  0.00    +0.114 A 
ATOM     14  N   UNL     1       2.356   9.790  17.773  0.00  0.00    -0.078 NA
ATOM     15  O   UNL     1       1.931  11.098  17.873  0.00  0.00    -0.354 OA
ATOM     16  H   UNL     1       0.473   9.807  20.487  0.00  0.00    +0.068 HD
BRANCH  13  17
ATOM     17  C   UNL     1       2.074   7.709  19.037  0.00  0.00    +0.004 A 
ATOM     18  C   UNL     1       2.649   6.911  18.036  0.00  0.00    -0.052 A 
ATOM     19  C   UNL     1       2.883   5.548  18.258  0.00  0.00    -0.049 A 
ATOM     20  C   UNL     1       2.539   4.958  19.478  0.00  0.00    +0.037 A 
ATOM     21  C   UNL     1       1.979   5.747  20.489  0.00  0.00    -0.049 A 
ATOM     22  C   UNL     1       1.744   7.109  20.263  0.00  0.00    -0.052 A 
ATOM     23  H   UNL     1       2.915   7.326  17.068  0.00  0.00    +0.062 HD
ATOM     24  H   UNL     1       3.331   4.945  17.469  0.00  0.00    +0.063 HD
ATOM     25  H   UNL     1       1.745   5.332  21.464  0.00  0.00    +0.063 HD
ATOM     26  H   UNL     1       1.311   7.705  21.066  0.00  0.00    +0.062 HD
BRANCH  20  27
ATOM     27  C   UNL     1       2.810   3.505  19.664  0.00  0.00    +0.244 C 
ATOM     28  O   UNL     1       2.759   3.010  20.785  0.00  0.00    -0.270 OA
ATOM     29  N   UNL     1       3.149   2.792  18.532  0.00  0.00    -0.314 N 
ATOM     30  H   UNL     1       3.422   3.300  17.702  0.00  0.00    +0.149 HD
BRANCH  29  31
ATOM     31  C   UNL     1       3.546   1.409  18.627  0.00  0.00    +0.000 C 
ATOM     32  H   UNL     1       3.909   1.082  17.649  0.00  0.00    +0.043 HD
ATOM     33  H   UNL     1       4.340   1.290  19.369  0.00  0.00    +0.043 HD
ATOM     34  H   UNL     1       2.675   0.818  18.915  0.00  0.00    +0.043 HD
ENDBRANCH  29  31
ENDBRANCH  20  27
ENDBRANCH  13  17
ENDBRANCH   5  11
BRANCH   1  35
ATOM     35  C   UNL     1      -2.625  14.255  20.529  0.00  0.00    +0.035 C 
ATOM     36  H   UNL     1      -3.187  14.861  19.810  0.00  0.00    +0.046 HD
BRANCH  35  37
ATOM     37  C   UNL     1      -2.611  15.005  21.865  0.00  0.00    -0.049 C 
ATOM     38  H   UNL     1      -3.090  14.406  22.647  0.00  0.00    +0.024 HD
ATOM     39  H   UNL     1      -3.142  15.962  21.816  0.00  0.00    +0.024 HD
ATOM     40  H   UNL     1      -1.589  15.211  22.198  0.00  0.00    +0.024 HD
ENDBRANCH  35  37
BRANCH  35  41
ATOM     41  S   UNL     1      -3.471  12.636  20.703  0.00  0.00    -0.077 S 
BRANCH  41  42
ATOM     42  C   UNL     1      -4.008  12.702  22.344  0.00  0.00    +0.209 A 
ATOM     43  N   UNL     1      -5.146  13.178  22.798  0.00  0.00    -0.121 NA
ATOM     44  N   UNL     1      -5.147  13.017  24.170  0.00  0.00    -0.135 NA
ATOM     45  C   UNL     1      -4.010  12.444  24.504  0.00  0.00    +0.138 A 
ATOM     46  N   UNL     1      -3.259  12.224  23.389  0.00  0.00    -0.231 N 
ATOM     47  H   UNL     1      -3.690  12.175  25.499  0.00  0.00    +0.106 HD
BRANCH  46  48
ATOM     48  N   UNL     1      -1.963  11.618  23.357  0.00  0.00    -0.295 N 
ATOM     49  H   UNL     1      -2.053  10.603  23.319  0.00  0.00    +0.163 HD
ATOM     50  H   UNL     1      -1.471  11.802  24.232  0.00  0.00    +0.163 HD
ENDBRANCH  46  48
ENDBRANCH  41  42
ENDBRANCH  35  41
ENDBRANCH   1  35
TORSDOF 9
ENDMDL
MODEL 27
REMARK VINA RESULT:    -6.369      3.638      4.512
REMARK INTER + INTRA:          -9.650
REMARK INTER:                  -8.731
REMARK INTRA:                  -0.919
REMARK UNBOUND:                -0.489
REMARK  Name = 
REMARK  9 active torsions:
REMARK  status: ('A' for Active; 'I' for Inactive)
REMARK    1  A    between atoms: C_1  and  C_2
REMARK    2  A    between atoms: C_2  and  C_3
REMARK    3  A    between atoms: C_2  and  S_24
REMARK    4  A    between atoms: C_7  and  C_9
REMARK    5  A    between atoms: C_11  and  C_14
REMARK    6  A    between atoms: C_17  and  C_20
REMARK    7  A    between atoms: N_22  and  C_23
REMARK    8  A    between atoms: S_24  and  C_25
REMARK    9  A    between atoms: N_29  and  N_30
REMARK                            x       y       z     vdW  Elec       q    Type
REMARK                         _______ _______ _______ _____ _____    ______ ____
ROOT
ATOM      1  C   UNL     1      -1.570  11.873  20.717  0.00  0.00    -0.034 A 
ATOM      2  C   UNL     1      -1.679  12.075  22.101  0.00  0.00    -0.057 A 
ATOM      3  C   UNL     1      -1.007  11.244  22.994  0.00  0.00    -0.061 A 
ATOM      4  C   UNL     1      -0.208  10.202  22.520  0.00  0.00    -0.051 A 
ATOM      5  C   UNL     1      -0.069   9.974  21.145  0.00  0.00    +0.020 A 
ATOM      6  C   UNL     1      -0.757  10.818  20.257  0.00  0.00    -0.047 A 
ATOM      7  H   UNL     1      -2.291  12.885  22.494  0.00  0.00    +0.062 HD
ATOM      8  H   UNL     1      -1.105  11.409  24.065  0.00  0.00    +0.062 HD
ATOM      9  H   UNL     1       0.300   9.572  23.245  0.00  0.00    +0.062 HD
ATOM     10  H   UNL     1      -0.650  10.664  19.184  0.00  0.00    +0.063 HD
ENDROOT
BRANCH   5  11
ATOM     11  C   UNL     1       0.778   8.889  20.657  0.00  0.00    +0.168 A 
ATOM     12  C   UNL     1       1.082   7.620  21.090  0.00  0.00    +0.013 A 
ATOM     13  C   UNL     1       1.988   7.097  20.128  0.00  0.00    +0.114 A 
ATOM     14  N   UNL     1       2.204   8.006  19.165  0.00  0.00    -0.078 NA
ATOM     15  O   UNL     1       1.456   9.115  19.498  0.00  0.00    -0.354 OA
ATOM     16  H   UNL     1       0.702   7.135  21.976  0.00  0.00    +0.068 HD
BRANCH  13  17
ATOM     17  C   UNL     1       2.637   5.784  20.105  0.00  0.00    +0.004 A 
ATOM     18  C   UNL     1       2.037   4.668  20.709  0.00  0.00    -0.052 A 
ATOM     19  C   UNL     1       2.667   3.418  20.681  0.00  0.00    -0.049 A 
ATOM     20  C   UNL     1       3.909   3.263  20.059  0.00  0.00    +0.037 A 
ATOM     21  C   UNL     1       4.510   4.364  19.440  0.00  0.00    -0.049 A 
ATOM     22  C   UNL     1       3.879   5.614  19.471  0.00  0.00    -0.052 A 
ATOM     23  H   UNL     1       1.080   4.750  21.217  0.00  0.00    +0.062 HD
ATOM     24  H   UNL     1       2.185   2.564  21.155  0.00  0.00    +0.063 HD
ATOM     25  H   UNL     1       5.450   4.269  18.906  0.00  0.00    +0.063 HD
ATOM     26  H   UNL     1       4.363   6.457  18.980  0.00  0.00    +0.062 HD
BRANCH  20  27
ATOM     27  C   UNL     1       4.536   1.911  20.056  0.00  0.00    +0.244 C 
ATOM     28  O   UNL     1       4.319   1.136  19.131  0.00  0.00    -0.270 OA
ATOM     29  N   UNL     1       5.318   1.593  21.148  0.00  0.00    -0.314 N 
ATOM     30  H   UNL     1       5.247   2.164  21.979  0.00  0.00    +0.149 HD
BRANCH  29  31
ATOM     31  C   UNL     1       5.869   0.269  21.294  0.00  0.00    +0.000 C 
ATOM     32  H   UNL     1       5.079  -0.461  21.097  0.00  0.00    +0.043 HD
ATOM     33  H   UNL     1       6.690   0.116  20.590  0.00  0.00    +0.043 HD
ATOM     34  H   UNL     1       6.229   0.155  22.318  0.00  0.00    +0.043 HD
ENDBRANCH  29  31
ENDBRANCH  20  27
ENDBRANCH  13  17
ENDBRANCH   5  11
BRANCH   1  35
ATOM     35  C   UNL     1      -2.306  12.802  19.761  0.00  0.00    +0.035 C 
ATOM     36  H   UNL     1      -1.659  12.972  18.893  0.00  0.00    +0.046 HD
BRANCH  35  37
ATOM     37  C   UNL     1      -2.607  14.164  20.394  0.00  0.00    -0.049 C 
ATOM     38  H   UNL     1      -2.543  14.959  19.643  0.00  0.00    +0.024 HD
ATOM     39  H   UNL     1      -1.909  14.418  21.198  0.00  0.00    +0.024 HD
ATOM     40  H   UNL     1      -3.619  14.196  20.812  0.00  0.00    +0.024 HD
ENDBRANCH  35  37
BRANCH  35  41
ATOM     41  S   UNL     1      -3.851  12.000  19.180  0.00  0.00    -0.077 S 
BRANCH  41  42
ATOM     42  C   UNL     1      -3.314  11.221  17.734  0.00  0.00    +0.209 A 
ATOM     43  N   UNL     1      -2.720  11.771  16.699  0.00  0.00    -0.121 NA
ATOM     44  N   UNL     1      -2.467  10.768  15.783  0.00  0.00    -0.135 NA
ATOM     45  C   UNL     1      -2.912   9.641  16.295  0.00  0.00    +0.138 A 
ATOM     46  N   UNL     1      -3.453   9.873  17.523  0.00  0.00    -0.231 N 
ATOM     47  H   UNL     1      -2.871   8.663  15.839  0.00  0.00    +0.106 HD
BRANCH  46  48
ATOM     48  N   UNL     1      -4.036   8.889  18.383  0.00  0.00    -0.295 N 
ATOM     49  H   UNL     1      -3.304   8.369  18.865  0.00  0.00    +0.163 HD
ATOM     50  H   UNL     1      -4.529   8.189  17.827  0.00  0.00    +0.163 HD
ENDBRANCH  46  48
ENDBRANCH  41  42
ENDBRANCH  35  41
ENDBRANCH   1  35
TORSDOF 9
ENDMDL
MODEL 28
REMARK VINA RESULT:    -6.359      3.173      4.477
REMARK INTER + INTRA:          -9.636
REMARK INTER:                  -8.808
REMARK INTRA:                  -0.827
REMARK UNBOUND:                -0.489
REMARK  Name = 
REMARK  9 active torsions:
REMARK  status: ('A' for Active; 'I' for Inactive)
REMARK    1  A    between atoms: C_1  and  C_2
REMARK    2  A    between atoms: C_2  and  C_3
REMARK    3  A    between atoms: C_2  and  S_24
REMARK    4  A    between atoms: C_7  and  C_9
REMARK    5  A    between atoms: C_11  and  C_14
REMARK    6  A    between atoms: C_17  and  C_20
REMARK    7  A    between atoms: N_22  and  C_23
REMARK    8  A    between atoms: S_24  and  C_25
REMARK    9  A    between atoms: N_29  and  N_30
REMARK                            x       y       z     vdW  Elec       q    Type
REMARK                         _______ _______ _______ _____ _____    ______ ____
ROOT
ATOM      1  C   UNL     1      -2.012  13.442  20.323  0.00  0.00    -0.034 A 
ATOM      2  C   UNL     1      -1.294  14.571  19.902  0.00  0.00    -0.057 A 
ATOM      3  C   UNL     1       0.007  14.446  19.421  0.00  0.00    -0.061 A 
ATOM      4  C   UNL     1       0.611  13.190  19.347  0.00  0.00    -0.051 A 
ATOM      5  C   UNL     1      -0.077  12.038  19.752  0.00  0.00    +0.020 A 
ATOM      6  C   UNL     1      -1.387  12.182  20.239  0.00  0.00    -0.047 A 
ATOM      7  H   UNL     1      -1.747  15.560  19.945  0.00  0.00    +0.062 HD
ATOM      8  H   UNL     1       0.554  15.331  19.102  0.00  0.00    +0.062 HD
ATOM      9  H   UNL     1       1.628  13.128  18.969  0.00  0.00    +0.062 HD
ATOM     10  H   UNL     1      -1.942  11.296  20.545  0.00  0.00    +0.063 HD
ENDROOT
BRANCH   5  11
ATOM     11  C   UNL     1       0.559  10.727  19.660  0.00  0.00    +0.168 A 
ATOM     12  C   UNL     1       1.285  10.061  18.701  0.00  0.00    +0.013 A 
ATOM     13  C   UNL     1       1.603   8.800  19.273  0.00  0.00    +0.114 A 
ATOM     14  N   UNL     1       1.100   8.723  20.516  0.00  0.00    -0.078 NA
ATOM     15  O   UNL     1       0.451   9.917  20.749  0.00  0.00    -0.354 OA
ATOM     16  H   UNL     1       1.551  10.433  17.724  0.00  0.00    +0.068 HD
BRANCH  13  17
ATOM     17  C   UNL     1       2.357   7.693  18.680  0.00  0.00    +0.004 A 
ATOM     18  C   UNL     1       2.179   6.374  19.125  0.00  0.00    -0.052 A 
ATOM     19  C   UNL     1       2.906   5.324  18.552  0.00  0.00    -0.049 A 
ATOM     20  C   UNL     1       3.829   5.573  17.530  0.00  0.00    +0.037 A 
ATOM     21  C   UNL     1       4.004   6.882  17.068  0.00  0.00    -0.049 A 
ATOM     22  C   UNL     1       3.277   7.931  17.645  0.00  0.00    -0.052 A 
ATOM     23  H   UNL     1       1.485   6.139  19.927  0.00  0.00    +0.062 HD
ATOM     24  H   UNL     1       2.753   4.307  18.910  0.00  0.00    +0.063 HD
ATOM     25  H   UNL     1       4.675   7.105  16.245  0.00  0.00    +0.063 HD
ATOM     26  H   UNL     1       3.427   8.941  17.267  0.00  0.00    +0.062 HD
BRANCH  20  27
ATOM     27  C   UNL     1       4.575   4.421  16.952  0.00  0.00    +0.244 C 
ATOM     28  O   UNL     1       4.483   3.311  17.465  0.00  0.00    -0.270 OA
ATOM     29  N   UNL     1       5.378   4.692  15.863  0.00  0.00    -0.314 N 
ATOM     30  H   UNL     1       5.608   5.654  15.656  0.00  0.00    +0.149 HD
BRANCH  29  31
ATOM     31  C   UNL     1       6.231   3.670  15.309  0.00  0.00    +0.000 C 
ATOM     32  H   UNL     1       6.500   3.956  14.289  0.00  0.00    +0.043 HD
ATOM     33  H   UNL     1       7.138   3.562  15.908  0.00  0.00    +0.043 HD
ATOM     34  H   UNL     1       5.679   2.728  15.295  0.00  0.00    +0.043 HD
ENDBRANCH  29  31
ENDBRANCH  20  27
ENDBRANCH  13  17
ENDBRANCH   5  11
BRANCH   1  35
ATOM     35  C   UNL     1      -3.437  13.605  20.835  0.00  0.00    +0.035 C 
ATOM     36  H   UNL     1      -4.116  13.218  20.066  0.00  0.00    +0.046 HD
BRANCH  35  37
ATOM     37  C   UNL     1      -3.798  15.072  21.084  0.00  0.00    -0.049 C 
ATOM     38  H   UNL     1      -4.789  15.150  21.546  0.00  0.00    +0.024 HD
ATOM     39  H   UNL     1      -3.822  15.662  20.162  0.00  0.00    +0.024 HD
ATOM     40  H   UNL     1      -3.086  15.550  21.765  0.00  0.00    +0.024 HD
ENDBRANCH  35  37
BRANCH  35  41
ATOM     41  S   UNL     1      -3.668  12.611  22.360  0.00  0.00    -0.077 S 
BRANCH  41  42
ATOM     42  C   UNL     1      -3.294  13.769  23.587  0.00  0.00    +0.209 A 
ATOM     43  N   UNL     1      -4.134  14.469  24.315  0.00  0.00    -0.121 NA
ATOM     44  N   UNL     1      -3.389  15.259  25.168  0.00  0.00    -0.135 NA
ATOM     45  C   UNL     1      -2.119  15.010  24.933  0.00  0.00    +0.138 A 
ATOM     46  N   UNL     1      -2.007  14.078  23.946  0.00  0.00    -0.231 N 
ATOM     47  H   UNL     1      -1.270  15.457  25.428  0.00  0.00    +0.106 HD
BRANCH  46  48
ATOM     48  N   UNL     1      -0.782  13.555  23.423  0.00  0.00    -0.295 N 
ATOM     49  H   UNL     1      -0.342  14.241  22.809  0.00  0.00    +0.163 HD
ATOM     50  H   UNL     1      -0.974  12.754  22.821  0.00  0.00    +0.163 HD
ENDBRANCH  46  48
ENDBRANCH  41  42
ENDBRANCH  35  41
ENDBRANCH   1  35
TORSDOF 9
ENDMDL
MODEL 29
REMARK VINA RESULT:    -6.268      3.774     10.111
REMARK INTER + INTRA:          -9.505
REMARK INTER:                  -9.480
REMARK INTRA:                  -0.025
REMARK UNBOUND:                -0.489
REMARK  Name = 
REMARK  9 active torsions:
REMARK  status: ('A' for Active; 'I' for Inactive)
REMARK    1  A    between atoms: C_1  and  C_2
REMARK    2  A    between atoms: C_2  and  C_3
REMARK    3  A    between atoms: C_2  and  S_24
REMARK    4  A    between atoms: C_7  and  C_9
REMARK    5  A    between atoms: C_11  and  C_14
REMARK    6  A    between atoms: C_17  and  C_20
REMARK    7  A    between atoms: N_22  and  C_23
REMARK    8  A    between atoms: S_24  and  C_25
REMARK    9  A    between atoms: N_29  and  N_30
REMARK                            x       y       z     vdW  Elec       q    Type
REMARK                         _______ _______ _______ _____ _____    ______ ____
ROOT
ATOM      1  C   UNL     1       4.255   4.659  19.625  0.00  0.00    -0.034 A 
ATOM      2  C   UNL     1       3.736   3.630  20.425  0.00  0.00    -0.057 A 
ATOM      3  C   UNL     1       2.607   3.844  21.212  0.00  0.00    -0.061 A 
ATOM      4  C   UNL     1       1.972   5.088  21.208  0.00  0.00    -0.051 A 
ATOM      5  C   UNL     1       2.458   6.138  20.416  0.00  0.00    +0.020 A 
ATOM      6  C   UNL     1       3.600   5.907  19.631  0.00  0.00    -0.047 A 
ATOM      7  H   UNL     1       4.211   2.651  20.440  0.00  0.00    +0.062 HD
ATOM      8  H   UNL     1       2.218   3.039  21.831  0.00  0.00    +0.062 HD
ATOM      9  H   UNL     1       1.095   5.221  21.835  0.00  0.00    +0.062 HD
ATOM     10  H   UNL     1       3.983   6.707  18.999  0.00  0.00    +0.063 HD
ENDROOT
BRANCH   5  11
ATOM     11  C   UNL     1       1.781   7.431  20.409  0.00  0.00    +0.168 A 
ATOM     12  C   UNL     1       1.068   8.164  21.328  0.00  0.00    +0.013 A 
ATOM     13  C   UNL     1       0.685   9.353  20.651  0.00  0.00    +0.114 A 
ATOM     14  N   UNL     1       1.156   9.334  19.394  0.00  0.00    -0.078 NA
ATOM     15  O   UNL     1       1.830   8.141  19.247  0.00  0.00    -0.354 OA
ATOM     16  H   UNL     1       0.855   7.882  22.347  0.00  0.00    +0.068 HD
BRANCH  13  17
ATOM     17  C   UNL     1      -0.100  10.481  21.161  0.00  0.00    +0.004 A 
ATOM     18  C   UNL     1      -0.380  11.593  20.352  0.00  0.00    -0.052 A 
ATOM     19  C   UNL     1      -1.129  12.665  20.850  0.00  0.00    -0.049 A 
ATOM     20  C   UNL     1      -1.604  12.649  22.166  0.00  0.00    +0.037 A 
ATOM     21  C   UNL     1      -1.344  11.540  22.976  0.00  0.00    -0.049 A 
ATOM     22  C   UNL     1      -0.592  10.469  22.476  0.00  0.00    -0.052 A 
ATOM     23  H   UNL     1      -0.015  11.653  19.331  0.00  0.00    +0.062 HD
ATOM     24  H   UNL     1      -1.337  13.519  20.207  0.00  0.00    +0.063 HD
ATOM     25  H   UNL     1      -1.738  11.473  23.986  0.00  0.00    +0.063 HD
ATOM     26  H   UNL     1      -0.404   9.614  23.124  0.00  0.00    +0.062 HD
BRANCH  20  27
ATOM     27  C   UNL     1      -2.399  13.815  22.646  0.00  0.00    +0.244 C 
ATOM     28  O   UNL     1      -2.483  14.825  21.958  0.00  0.00    -0.270 OA
ATOM     29  N   UNL     1      -2.978  13.692  23.893  0.00  0.00    -0.314 N 
ATOM     30  H   UNL     1      -2.661  12.954  24.506  0.00  0.00    +0.149 HD
BRANCH  29  31
ATOM     31  C   UNL     1      -3.664  14.808  24.495  0.00  0.00    +0.000 C 
ATOM     32  H   UNL     1      -3.424  15.712  23.930  0.00  0.00    +0.043 HD
ATOM     33  H   UNL     1      -4.745  14.646  24.481  0.00  0.00    +0.043 HD
ATOM     34  H   UNL     1      -3.317  14.914  25.525  0.00  0.00    +0.043 HD
ENDBRANCH  29  31
ENDBRANCH  20  27
ENDBRANCH  13  17
ENDBRANCH   5  11
BRANCH   1  35
ATOM     35  C   UNL     1       5.485   4.397  18.766  0.00  0.00    +0.035 C 
ATOM     36  H   UNL     1       6.073   3.610  19.253  0.00  0.00    +0.046 HD
BRANCH  35  37
ATOM     37  C   UNL     1       6.376   5.636  18.638  0.00  0.00    -0.049 C 
ATOM     38  H   UNL     1       7.092   5.511  17.818  0.00  0.00    +0.024 HD
ATOM     39  H   UNL     1       6.954   5.835  19.547  0.00  0.00    +0.024 HD
ATOM     40  H   UNL     1       5.787   6.532  18.418  0.00  0.00    +0.024 HD
ENDBRANCH  35  37
BRANCH  35  41
ATOM     41  S   UNL     1       4.972   3.792  17.111  0.00  0.00    -0.077 S 
BRANCH  41  42
ATOM     42  C   UNL     1       3.381   3.202  17.437  0.00  0.00    +0.209 A 
ATOM     43  N   UNL     1       2.243   3.847  17.310  0.00  0.00    -0.121 NA
ATOM     44  N   UNL     1       1.231   2.982  17.675  0.00  0.00    -0.135 NA
ATOM     45  C   UNL     1       1.788   1.837  18.009  0.00  0.00    +0.138 A 
ATOM     46  N   UNL     1       3.140   1.925  17.876  0.00  0.00    -0.231 N 
ATOM     47  H   UNL     1       1.280   0.945  18.343  0.00  0.00    +0.106 HD
BRANCH  46  48
ATOM     48  N   UNL     1       4.079   0.879  18.145  0.00  0.00    -0.295 N 
ATOM     49  H   UNL     1       4.270   0.352  17.294  0.00  0.00    +0.163 HD
ATOM     50  H   UNL     1       3.669   0.199  18.786  0.00  0.00    +0.163 HD
ENDBRANCH  46  48
ENDBRANCH  41  42
ENDBRANCH  35  41
ENDBRANCH   1  35
TORSDOF 9
ENDMDL
MODEL 30
REMARK VINA RESULT:    -6.119      3.222      4.637
REMARK INTER + INTRA:          -9.290
REMARK INTER:                  -8.726
REMARK INTRA:                  -0.565
REMARK UNBOUND:                -0.489
REMARK  Name = 
REMARK  9 active torsions:
REMARK  status: ('A' for Active; 'I' for Inactive)
REMARK    1  A    between atoms: C_1  and  C_2
REMARK    2  A    between atoms: C_2  and  C_3
REMARK    3  A    between atoms: C_2  and  S_24
REMARK    4  A    between atoms: C_7  and  C_9
REMARK    5  A    between atoms: C_11  and  C_14
REMARK    6  A    between atoms: C_17  and  C_20
REMARK    7  A    between atoms: N_22  and  C_23
REMARK    8  A    between atoms: S_24  and  C_25
REMARK    9  A    between atoms: N_29  and  N_30
REMARK                            x       y       z     vdW  Elec       q    Type
REMARK                         _______ _______ _______ _____ _____    ______ ____
ROOT
ATOM      1  C   UNL     1      -1.111  13.978  19.984  0.00  0.00    -0.034 A 
ATOM      2  C   UNL     1      -0.403  15.012  19.352  0.00  0.00    -0.057 A 
ATOM      3  C   UNL     1       0.762  14.740  18.639  0.00  0.00    -0.061 A 
ATOM      4  C   UNL     1       1.236  13.431  18.537  0.00  0.00    -0.051 A 
ATOM      5  C   UNL     1       0.552  12.372  19.149  0.00  0.00    +0.020 A 
ATOM      6  C   UNL     1      -0.620  12.663  19.868  0.00  0.00    -0.047 A 
ATOM      7  H   UNL     1      -0.756  16.039  19.413  0.00  0.00    +0.062 HD
ATOM      8  H   UNL     1       1.304  15.552  18.158  0.00  0.00    +0.062 HD
ATOM      9  H   UNL     1       2.149  13.255  17.975  0.00  0.00    +0.062 HD
ATOM     10  H   UNL     1      -1.172  11.850  20.338  0.00  0.00    +0.063 HD
ENDROOT
BRANCH   5  11
ATOM     11  C   UNL     1       1.048  11.004  19.028  0.00  0.00    +0.168 A 
ATOM     12  C   UNL     1       1.941  10.360  18.205  0.00  0.00    +0.013 A 
ATOM     13  C   UNL     1       1.953   9.008  18.640  0.00  0.00    +0.114 A 
ATOM     14  N   UNL     1       1.115   8.856  19.678  0.00  0.00    -0.078 NA
ATOM     15  O   UNL     1       0.554  10.094  19.912  0.00  0.00    -0.354 OA
ATOM     16  H   UNL     1       2.509  10.804  17.402  0.00  0.00    +0.068 HD
BRANCH  13  17
ATOM     17  C   UNL     1       2.724   7.883  18.105  0.00  0.00    +0.004 A 
ATOM     18  C   UNL     1       2.301   6.559  18.293  0.00  0.00    -0.052 A 
ATOM     19  C   UNL     1       3.046   5.492  17.779  0.00  0.00    -0.049 A 
ATOM     20  C   UNL     1       4.232   5.728  17.074  0.00  0.00    +0.037 A 
ATOM     21  C   UNL     1       4.656   7.045  16.867  0.00  0.00    -0.049 A 
ATOM     22  C   UNL     1       3.909   8.110  17.386  0.00  0.00    -0.052 A 
ATOM     23  H   UNL     1       1.395   6.331  18.849  0.00  0.00    +0.062 HD
ATOM     24  H   UNL     1       2.701   4.471  17.934  0.00  0.00    +0.063 HD
ATOM     25  H   UNL     1       5.545   7.267  16.285  0.00  0.00    +0.063 HD
ATOM     26  H   UNL     1       4.257   9.127  17.210  0.00  0.00    +0.062 HD
BRANCH  20  27
ATOM     27  C   UNL     1       4.987   4.558  16.545  0.00  0.00    +0.244 C 
ATOM     28  O   UNL     1       5.322   3.652  17.300  0.00  0.00    -0.270 OA
ATOM     29  N   UNL     1       5.305   4.587  15.203  0.00  0.00    -0.314 N 
ATOM     30  H   UNL     1       5.229   5.463  14.704  0.00  0.00    +0.149 HD
BRANCH  29  31
ATOM     31  C   UNL     1       6.136   3.561  14.624  0.00  0.00    +0.000 C 
ATOM     32  H   UNL     1       5.740   3.307  13.637  0.00  0.00    +0.043 HD
ATOM     33  H   UNL     1       7.165   3.914  14.522  0.00  0.00    +0.043 HD
ATOM     34  H   UNL     1       6.105   2.683  15.272  0.00  0.00    +0.043 HD
ENDBRANCH  29  31
ENDBRANCH  20  27
ENDBRANCH  13  17
ENDBRANCH   5  11
BRANCH   1  35
ATOM     35  C   UNL     1      -2.388  14.299  20.749  0.00  0.00    +0.035 C 
ATOM     36  H   UNL     1      -2.895  15.120  20.227  0.00  0.00    +0.046 HD
BRANCH  35  37
ATOM     37  C   UNL     1      -2.102  14.761  22.182  0.00  0.00    -0.049 C 
ATOM     38  H   UNL     1      -1.023  14.785  22.369  0.00  0.00    +0.024 HD
ATOM     39  H   UNL     1      -2.549  14.102  22.933  0.00  0.00    +0.024 HD
ATOM     40  H   UNL     1      -2.483  15.771  22.360  0.00  0.00    +0.024 HD
ENDBRANCH  35  37
BRANCH  35  41
ATOM     41  S   UNL     1      -3.500  12.840  20.747  0.00  0.00    -0.077 S 
BRANCH  41  42
ATOM     42  C   UNL     1      -4.034  12.810  22.389  0.00  0.00    +0.209 A 
ATOM     43  N   UNL     1      -5.130  13.336  22.888  0.00  0.00    -0.121 NA
ATOM     44  N   UNL     1      -5.146  13.060  24.241  0.00  0.00    -0.135 NA
ATOM     45  C   UNL     1      -4.060  12.371  24.520  0.00  0.00    +0.138 A 
ATOM     46  N   UNL     1      -3.327  12.187  23.387  0.00  0.00    -0.231 N 
ATOM     47  H   UNL     1      -3.764  11.995  25.487  0.00  0.00    +0.106 HD
BRANCH  46  48
ATOM     48  N   UNL     1      -2.084  11.484  23.297  0.00  0.00    -0.295 N 
ATOM     49  H   UNL     1      -2.249  10.478  23.313  0.00  0.00    +0.163 HD
ATOM     50  H   UNL     1      -1.519  11.667  24.127  0.00  0.00    +0.163 HD
ENDBRANCH  46  48
ENDBRANCH  41  42
ENDBRANCH  35  41
ENDBRANCH   1  35
TORSDOF 9
ENDMDL
MODEL 31
REMARK VINA RESULT:    -6.103      3.374      9.390
REMARK INTER + INTRA:          -9.268
REMARK INTER:                  -9.433
REMARK INTRA:                   0.165
REMARK UNBOUND:                -0.489
REMARK  Name = 
REMARK  9 active torsions:
REMARK  status: ('A' for Active; 'I' for Inactive)
REMARK    1  A    between atoms: C_1  and  C_2
REMARK    2  A    between atoms: C_2  and  C_3
REMARK    3  A    between atoms: C_2  and  S_24
REMARK    4  A    between atoms: C_7  and  C_9
REMARK    5  A    between atoms: C_11  and  C_14
REMARK    6  A    between atoms: C_17  and  C_20
REMARK    7  A    between atoms: N_22  and  C_23
REMARK    8  A    between atoms: S_24  and  C_25
REMARK    9  A    between atoms: N_29  and  N_30
REMARK                            x       y       z     vdW  Elec       q    Type
REMARK                         _______ _______ _______ _____ _____    ______ ____
ROOT
ATOM      1  C   UNL     1       4.958   4.665  15.926  0.00  0.00    -0.034 A 
ATOM      2  C   UNL     1       4.901   3.348  16.405  0.00  0.00    -0.057 A 
ATOM      3  C   UNL     1       4.189   3.045  17.564  0.00  0.00    -0.061 A 
ATOM      4  C   UNL     1       3.515   4.051  18.259  0.00  0.00    -0.051 A 
ATOM      5  C   UNL     1       3.544   5.377  17.806  0.00  0.00    +0.020 A 
ATOM      6  C   UNL     1       4.270   5.667  16.639  0.00  0.00    -0.047 A 
ATOM      7  H   UNL     1       5.414   2.546  15.878  0.00  0.00    +0.062 HD
ATOM      8  H   UNL     1       4.157   2.020  17.927  0.00  0.00    +0.062 HD
ATOM      9  H   UNL     1       2.971   3.780  19.159  0.00  0.00    +0.062 HD
ATOM     10  H   UNL     1       4.292   6.690  16.265  0.00  0.00    +0.063 HD
ENDROOT
BRANCH   5  11
ATOM     11  C   UNL     1       2.827   6.421  18.533  0.00  0.00    +0.168 A 
ATOM     12  C   UNL     1       2.077   7.517  18.176  0.00  0.00    +0.013 A 
ATOM     13  C   UNL     1       1.667   8.111  19.400  0.00  0.00    +0.114 A 
ATOM     14  N   UNL     1       2.140   7.398  20.434  0.00  0.00    -0.078 NA
ATOM     15  O   UNL     1       2.861   6.355  19.892  0.00  0.00    -0.354 OA
ATOM     16  H   UNL     1       1.853   7.843  17.172  0.00  0.00    +0.068 HD
BRANCH  13  17
ATOM     17  C   UNL     1       0.854   9.313  19.604  0.00  0.00    +0.004 A 
ATOM     18  C   UNL     1       0.419  10.086  18.517  0.00  0.00    -0.052 A 
ATOM     19  C   UNL     1      -0.357  11.233  18.724  0.00  0.00    -0.049 A 
ATOM     20  C   UNL     1      -0.704  11.632  20.019  0.00  0.00    +0.037 A 
ATOM     21  C   UNL     1      -0.288  10.860  21.109  0.00  0.00    -0.049 A 
ATOM     22  C   UNL     1       0.489   9.715  20.900  0.00  0.00    -0.052 A 
ATOM     23  H   UNL     1       0.680   9.821  17.497  0.00  0.00    +0.062 HD
ATOM     24  H   UNL     1      -0.686  11.820  17.867  0.00  0.00    +0.063 HD
ATOM     25  H   UNL     1      -0.580  11.114  22.124  0.00  0.00    +0.063 HD
ATOM     26  H   UNL     1       0.799   9.127  21.763  0.00  0.00    +0.062 HD
BRANCH  20  27
ATOM     27  C   UNL     1      -1.532  12.859  20.185  0.00  0.00    +0.244 C 
ATOM     28  O   UNL     1      -2.734  12.824  19.946  0.00  0.00    -0.270 OA
ATOM     29  N   UNL     1      -0.866  14.003  20.573  0.00  0.00    -0.314 N 
ATOM     30  H   UNL     1       0.142  14.027  20.502  0.00  0.00    +0.149 HD
BRANCH  29  31
ATOM     31  C   UNL     1      -1.558  15.267  20.644  0.00  0.00    +0.000 C 
ATOM     32  H   UNL     1      -1.796  15.475  21.690  0.00  0.00    +0.043 HD
ATOM     33  H   UNL     1      -0.931  16.069  20.246  0.00  0.00    +0.043 HD
ATOM     34  H   UNL     1      -2.479  15.190  20.063  0.00  0.00    +0.043 HD
ENDBRANCH  29  31
ENDBRANCH  20  27
ENDBRANCH  13  17
ENDBRANCH   5  11
BRANCH   1  35
ATOM     35  C   UNL     1       5.735   4.968  14.652  0.00  0.00    +0.035 C 
ATOM     36  H   UNL     1       5.273   5.842  14.177  0.00  0.00    +0.046 HD
BRANCH  35  37
ATOM     37  C   UNL     1       5.683   3.809  13.652  0.00  0.00    -0.049 C 
ATOM     38  H   UNL     1       6.663   3.325  13.574  0.00  0.00    +0.024 HD
ATOM     39  H   UNL     1       5.398   4.133  12.646  0.00  0.00    +0.024 HD
ATOM     40  H   UNL     1       4.969   3.041  13.967  0.00  0.00    +0.024 HD
ENDBRANCH  35  37
BRANCH  35  41
ATOM     41  S   UNL     1       7.472   5.390  15.067  0.00  0.00    -0.077 S 
BRANCH  41  42
ATOM     42  C   UNL     1       7.418   5.415  16.794  0.00  0.00    +0.209 A 
ATOM     43  N   UNL     1       7.460   4.389  17.614  0.00  0.00    -0.121 NA
ATOM     44  N   UNL     1       7.396   4.882  18.902  0.00  0.00    -0.135 NA
ATOM     45  C   UNL     1       7.323   6.194  18.822  0.00  0.00    +0.138 A 
ATOM     46  N   UNL     1       7.334   6.578  17.516  0.00  0.00    -0.231 N 
ATOM     47  H   UNL     1       7.261   6.889  19.646  0.00  0.00    +0.106 HD
BRANCH  46  48
ATOM     48  N   UNL     1       7.271   7.925  17.037  0.00  0.00    -0.295 N 
ATOM     49  H   UNL     1       6.299   8.211  16.923  0.00  0.00    +0.163 HD
ATOM     50  H   UNL     1       7.670   7.981  16.100  0.00  0.00    +0.163 HD
ENDBRANCH  46  48
ENDBRANCH  41  42
ENDBRANCH  35  41
ENDBRANCH   1  35
TORSDOF 9
ENDMDL
MODEL 32
REMARK VINA RESULT:    -5.832      3.328      4.698
REMARK INTER + INTRA:          -8.878
REMARK INTER:                  -8.283
REMARK INTRA:                  -0.594
REMARK UNBOUND:                -0.489
REMARK  Name = 
REMARK  9 active torsions:
REMARK  status: ('A' for Active; 'I' for Inactive)
REMARK    1  A    between atoms: C_1  and  C_2
REMARK    2  A    between atoms: C_2  and  C_3
REMARK    3  A    between atoms: C_2  and  S_24
REMARK    4  A    between atoms: C_7  and  C_9
REMARK    5  A    between atoms: C_11  and  C_14
REMARK    6  A    between atoms: C_17  and  C_20
REMARK    7  A    between atoms: N_22  and  C_23
REMARK    8  A    between atoms: S_24  and  C_25
REMARK    9  A    between atoms: N_29  and  N_30
REMARK                            x       y       z     vdW  Elec       q    Type
REMARK                         _______ _______ _______ _____ _____    ______ ____
ROOT
ATOM      1  C   UNL     1      -0.946  13.323  22.091  0.00  0.00    -0.034 A 
ATOM      2  C   UNL     1      -0.063  14.403  21.948  0.00  0.00    -0.057 A 
ATOM      3  C   UNL     1       1.160  14.239  21.302  0.00  0.00    -0.061 A 
ATOM      4  C   UNL     1       1.518  12.994  20.780  0.00  0.00    -0.051 A 
ATOM      5  C   UNL     1       0.659  11.894  20.898  0.00  0.00    +0.020 A 
ATOM      6  C   UNL     1      -0.570  12.075  21.556  0.00  0.00    -0.047 A 
ATOM      7  H   UNL     1      -0.323  15.384  22.342  0.00  0.00    +0.062 HD
ATOM      8  H   UNL     1       1.838  15.084  21.203  0.00  0.00    +0.062 HD
ATOM      9  H   UNL     1       2.480  12.901  20.284  0.00  0.00    +0.062 HD
ATOM     10  H   UNL     1      -1.256  11.234  21.645  0.00  0.00    +0.063 HD
ENDROOT
BRANCH   5  11
ATOM     11  C   UNL     1       1.036  10.599  20.339  0.00  0.00    +0.168 A 
ATOM     12  C   UNL     1       1.351   9.366  20.861  0.00  0.00    +0.013 A 
ATOM     13  C   UNL     1       1.623   8.538  19.739  0.00  0.00    +0.114 A 
ATOM     14  N   UNL     1       1.468   9.239  18.606  0.00  0.00    -0.078 NA
ATOM     15  O   UNL     1       1.107  10.515  18.982  0.00  0.00    -0.354 OA
ATOM     16  H   UNL     1       1.379   9.100  21.906  0.00  0.00    +0.068 HD
BRANCH  13  17
ATOM     17  C   UNL     1       2.019   7.127  19.722  0.00  0.00    +0.004 A 
ATOM     18  C   UNL     1       1.678   6.265  20.776  0.00  0.00    -0.052 A 
ATOM     19  C   UNL     1       2.062   4.920  20.749  0.00  0.00    -0.049 A 
ATOM     20  C   UNL     1       2.801   4.413  19.675  0.00  0.00    +0.037 A 
ATOM     21  C   UNL     1       3.134   5.259  18.611  0.00  0.00    -0.049 A 
ATOM     22  C   UNL     1       2.750   6.605  18.642  0.00  0.00    -0.052 A 
ATOM     23  H   UNL     1       1.120   6.622  21.637  0.00  0.00    +0.062 HD
ATOM     24  H   UNL     1       1.787   4.266  21.576  0.00  0.00    +0.063 HD
ATOM     25  H   UNL     1       3.664   4.888  17.740  0.00  0.00    +0.063 HD
ATOM     26  H   UNL     1       3.017   7.245  17.801  0.00  0.00    +0.062 HD
BRANCH  20  27
ATOM     27  C   UNL     1       3.184   2.973  19.694  0.00  0.00    +0.244 C 
ATOM     28  O   UNL     1       3.236   2.367  20.758  0.00  0.00    -0.270 OA
ATOM     29  N   UNL     1       3.501   2.405  18.477  0.00  0.00    -0.314 N 
ATOM     30  H   UNL     1       3.686   3.012  17.690  0.00  0.00    +0.149 HD
BRANCH  29  31
ATOM     31  C   UNL     1       3.998   1.053  18.406  0.00  0.00    +0.000 C 
ATOM     32  H   UNL     1       5.068   1.086  18.185  0.00  0.00    +0.043 HD
ATOM     33  H   UNL     1       3.838   0.537  19.356  0.00  0.00    +0.043 HD
ATOM     34  H   UNL     1       3.471   0.531  17.605  0.00  0.00    +0.043 HD
ENDBRANCH  29  31
ENDBRANCH  20  27
ENDBRANCH  13  17
ENDBRANCH   5  11
BRANCH   1  35
ATOM     35  C   UNL     1      -2.282  13.531  22.793  0.00  0.00    +0.035 C 
ATOM     36  H   UNL     1      -2.098  14.128  23.694  0.00  0.00    +0.046 HD
BRANCH  35  37
ATOM     37  C   UNL     1      -2.918  12.208  23.229  0.00  0.00    -0.049 C 
ATOM     38  H   UNL     1      -3.620  11.851  22.468  0.00  0.00    +0.024 HD
ATOM     39  H   UNL     1      -3.474  12.297  24.169  0.00  0.00    +0.024 HD
ATOM     40  H   UNL     1      -2.164  11.426  23.364  0.00  0.00    +0.024 HD
ENDBRANCH  35  37
BRANCH  35  41
ATOM     41  S   UNL     1      -3.419  14.471  21.703  0.00  0.00    -0.077 S 
BRANCH  41  42
ATOM     42  C   UNL     1      -3.990  13.228  20.646  0.00  0.00    +0.209 A 
ATOM     43  N   UNL     1      -5.102  12.536  20.747  0.00  0.00    -0.121 NA
ATOM     44  N   UNL     1      -5.147  11.661  19.679  0.00  0.00    -0.135 NA
ATOM     45  C   UNL     1      -4.060  11.853  18.962  0.00  0.00    +0.138 A 
ATOM     46  N   UNL     1      -3.300  12.830  19.530  0.00  0.00    -0.231 N 
ATOM     47  H   UNL     1      -3.782  11.334  18.058  0.00  0.00    +0.106 HD
BRANCH  46  48
ATOM     48  N   UNL     1      -2.048  13.314  19.032  0.00  0.00    -0.295 N 
ATOM     49  H   UNL     1      -1.571  12.579  18.510  0.00  0.00    +0.163 HD
ATOM     50  H   UNL     1      -1.423  13.527  19.810  0.00  0.00    +0.163 HD
ENDBRANCH  46  48
ENDBRANCH  41  42
ENDBRANCH  35  41
ENDBRANCH   1  35
TORSDOF 9
ENDMDL
MODEL 33
REMARK VINA RESULT:    -5.686      3.144      4.495
REMARK INTER + INTRA:          -8.668
REMARK INTER:                  -8.179
REMARK INTRA:                  -0.489
REMARK UNBOUND:                -0.489
REMARK  Name = 
REMARK  9 active torsions:
REMARK  status: ('A' for Active; 'I' for Inactive)
REMARK    1  A    between atoms: C_1  and  C_2
REMARK    2  A    between atoms: C_2  and  C_3
REMARK    3  A    between atoms: C_2  and  S_24
REMARK    4  A    between atoms: C_7  and  C_9
REMARK    5  A    between atoms: C_11  and  C_14
REMARK    6  A    between atoms: C_17  and  C_20
REMARK    7  A    between atoms: N_22  and  C_23
REMARK    8  A    between atoms: S_24  and  C_25
REMARK    9  A    between atoms: N_29  and  N_30
REMARK                            x       y       z     vdW  Elec       q    Type
REMARK                         _______ _______ _______ _____ _____    ______ ____
ROOT
ATOM      1  C   UNL     1      -2.901  13.021  20.535  0.00  0.00    -0.034 A 
ATOM      2  C   UNL     1      -2.239  14.233  20.781  0.00  0.00    -0.057 A 
ATOM      3  C   UNL     1      -0.870  14.255  21.038  0.00  0.00    -0.061 A 
ATOM      4  C   UNL     1      -0.137  13.066  21.047  0.00  0.00    -0.051 A 
ATOM      5  C   UNL     1      -0.763  11.837  20.800  0.00  0.00    +0.020 A 
ATOM      6  C   UNL     1      -2.145  11.832  20.546  0.00  0.00    -0.047 A 
ATOM      7  H   UNL     1      -2.788  15.173  20.773  0.00  0.00    +0.062 HD
ATOM      8  H   UNL     1      -0.371  15.202  21.232  0.00  0.00    +0.062 HD
ATOM      9  H   UNL     1       0.928  13.119  21.254  0.00  0.00    +0.062 HD
ATOM     10  H   UNL     1      -2.645  10.887  20.337  0.00  0.00    +0.063 HD
ENDROOT
BRANCH   5  11
ATOM     11  C   UNL     1       0.013  10.600  20.799  0.00  0.00    +0.168 A 
ATOM     12  C   UNL     1       0.383   9.682  19.845  0.00  0.00    +0.013 A 
ATOM     13  C   UNL     1       1.147   8.703  20.536  0.00  0.00    +0.114 A 
ATOM     14  N   UNL     1       1.236   9.028  21.836  0.00  0.00    -0.078 NA
ATOM     15  O   UNL     1       0.529  10.201  21.995  0.00  0.00    -0.354 OA
ATOM     16  H   UNL     1       0.139   9.713  18.795  0.00  0.00    +0.068 HD
BRANCH  13  17
ATOM     17  C   UNL     1       1.779   7.494  20.002  0.00  0.00    +0.004 A 
ATOM     18  C   UNL     1       1.716   6.276  20.695  0.00  0.00    -0.052 A 
ATOM     19  C   UNL     1       2.325   5.128  20.176  0.00  0.00    -0.049 A 
ATOM     20  C   UNL     1       3.014   5.178  18.960  0.00  0.00    +0.037 A 
ATOM     21  C   UNL     1       3.071   6.383  18.252  0.00  0.00    -0.049 A 
ATOM     22  C   UNL     1       2.463   7.531  18.775  0.00  0.00    -0.052 A 
ATOM     23  H   UNL     1       1.205   6.198  21.651  0.00  0.00    +0.062 HD
ATOM     24  H   UNL     1       2.264   4.191  20.728  0.00  0.00    +0.063 HD
ATOM     25  H   UNL     1       3.556   6.446  17.283  0.00  0.00    +0.063 HD
ATOM     26  H   UNL     1       2.517   8.458  18.206  0.00  0.00    +0.062 HD
BRANCH  20  27
ATOM     27  C   UNL     1       3.643   3.927  18.449  0.00  0.00    +0.244 C 
ATOM     28  O   UNL     1       4.544   3.988  17.620  0.00  0.00    -0.270 OA
ATOM     29  N   UNL     1       3.129   2.740  18.930  0.00  0.00    -0.314 N 
ATOM     30  H   UNL     1       2.235   2.752  19.400  0.00  0.00    +0.149 HD
BRANCH  29  31
ATOM     31  C   UNL     1       3.589   1.477  18.407  0.00  0.00    +0.000 C 
ATOM     32  H   UNL     1       3.180   0.674  19.025  0.00  0.00    +0.043 HD
ATOM     33  H   UNL     1       3.256   1.347  17.374  0.00  0.00    +0.043 HD
ATOM     34  H   UNL     1       4.679   1.459  18.452  0.00  0.00    +0.043 HD
ENDBRANCH  29  31
ENDBRANCH  20  27
ENDBRANCH  13  17
ENDBRANCH   5  11
BRANCH   1  35
ATOM     35  C   UNL     1      -4.396  13.025  20.246  0.00  0.00    +0.035 C 
ATOM     36  H   UNL     1      -4.807  13.971  20.618  0.00  0.00    +0.046 HD
BRANCH  35  37
ATOM     37  C   UNL     1      -5.126  11.884  20.961  0.00  0.00    -0.049 C 
ATOM     38  H   UNL     1      -4.407  11.204  21.432  0.00  0.00    +0.024 HD
ATOM     39  H   UNL     1      -5.742  11.287  20.281  0.00  0.00    +0.024 HD
ATOM     40  H   UNL     1      -5.780  12.262  21.754  0.00  0.00    +0.024 HD
ENDBRANCH  35  37
BRANCH  35  41
ATOM     41  S   UNL     1      -4.681  12.945  18.436  0.00  0.00    -0.077 S 
BRANCH  41  42
ATOM     42  C   UNL     1      -3.976  11.418  18.042  0.00  0.00    +0.209 A 
ATOM     43  N   UNL     1      -4.506  10.225  18.194  0.00  0.00    -0.121 NA
ATOM     44  N   UNL     1      -3.588   9.299  17.739  0.00  0.00    -0.135 NA
ATOM     45  C   UNL     1      -2.529   9.962  17.322  0.00  0.00    +0.138 A 
ATOM     46  N   UNL     1      -2.726  11.299  17.491  0.00  0.00    -0.231 N 
ATOM     47  H   UNL     1      -1.627   9.541  16.905  0.00  0.00    +0.106 HD
BRANCH  46  48
ATOM     48  N   UNL     1      -1.796  12.332  17.151  0.00  0.00    -0.295 N 
ATOM     49  H   UNL     1      -2.045  12.745  16.253  0.00  0.00    +0.163 HD
ATOM     50  H   UNL     1      -0.869  11.932  17.005  0.00  0.00    +0.163 HD
ENDBRANCH  46  48
ENDBRANCH  41  42
ENDBRANCH  35  41
ENDBRANCH   1  35
TORSDOF 9
ENDMDL
