MODEL 1
REMARK VINA RESULT:    -8.035      0.000      0.000
REMARK INTER + INTRA:         -11.402
REMARK INTER:                 -10.851
REMARK INTRA:                  -0.551
REMARK UNBOUND:                -0.548
REMARK  Name = 
REMARK  7 active torsions:
REMARK  status: ('A' for Active; 'I' for Inactive)
REMARK    1  A    between atoms: C_1  and  C_2
REMARK    2  A    between atoms: C_2  and  C_3
REMARK    3  A    between atoms: C_2  and  S_22
REMARK    4  A    between atoms: C_7  and  N_9
REMARK    5  A    between atoms: C_10  and  C_11
REMARK    6  A    between atoms: S_22  and  C_23
REMARK    7  A    between atoms: N_27  and  C_28
REMARK                            x       y       z     vdW  Elec       q    Type
REMARK                         _______ _______ _______ _____ _____    ______ ____
ROOT
ATOM      1  C   UNL     1      -0.118  10.796  19.882  0.00  0.00    -0.033 A 
ATOM      2  C   UNL     1      -0.284  10.822  21.274  0.00  0.00    -0.057 A 
ATOM      3  C   UNL     1       0.291   9.838  22.076  0.00  0.00    -0.060 A 
ATOM      4  C   UNL     1       1.046   8.812  21.502  0.00  0.00    -0.040 A 
ATOM      5  C   UNL     1       1.235   8.766  20.122  0.00  0.00    +0.034 A 
ATOM      6  C   UNL     1       0.652   9.759  19.321  0.00  0.00    -0.036 A 
ATOM      7  H   UNL     1      -0.864  11.613  21.747  0.00  0.00    +0.062 HD
ATOM      8  H   UNL     1       0.155   9.866  23.154  0.00  0.00    +0.062 HD
ATOM      9  H   UNL     1       1.477   8.065  22.161  0.00  0.00    +0.064 HD
ATOM     10  H   UNL     1       0.807   9.733  18.246  0.00  0.00    +0.064 HD
ENDROOT
BRANCH   5  11
ATOM     11  N   UNL     1       1.983   7.772  19.469  0.00  0.00    -0.280 N 
ATOM     12  C   UNL     1       2.127   6.441  19.808  0.00  0.00    +0.267 C 
ATOM     13  O   UNL     1       1.624   5.856  20.760  0.00  0.00    -0.268 OA
ATOM     14  H   UNL     1       2.497   8.041  18.632  0.00  0.00    +0.155 HD
BRANCH  12  15
ATOM     15  C   UNL     1       3.011   5.693  18.852  0.00  0.00    +0.126 A 
ATOM     16  C   UNL     1       3.678   6.378  17.843  0.00  0.00    -0.023 A 
ATOM     17  C   UNL     1       4.495   5.652  16.970  0.00  0.00    -0.014 A 
ATOM     18  C   UNL     1       5.200   6.277  15.928  0.00  0.00    -0.054 A 
ATOM     19  C   UNL     1       6.010   5.530  15.070  0.00  0.00    -0.061 A 
ATOM     20  C   UNL     1       6.126   4.153  15.241  0.00  0.00    -0.061 A 
ATOM     21  C   UNL     1       5.433   3.516  16.272  0.00  0.00    -0.053 A 
ATOM     22  C   UNL     1       4.614   4.258  17.141  0.00  0.00    +0.000 A 
ATOM     23  C   UNL     1       3.898   3.672  18.189  0.00  0.00    +0.036 A 
ATOM     24  N   UNL     1       3.099   4.347  19.048  0.00  0.00    -0.250 NA
ATOM     25  H   UNL     1       3.560   7.453  17.745  0.00  0.00    +0.065 HD
ATOM     26  H   UNL     1       5.123   7.352  15.776  0.00  0.00    +0.062 HD
ATOM     27  H   UNL     1       6.550   6.025  14.266  0.00  0.00    +0.062 HD
ATOM     28  H   UNL     1       6.758   3.574  14.570  0.00  0.00    +0.062 HD
ATOM     29  H   UNL     1       5.535   2.440  16.390  0.00  0.00    +0.062 HD
ATOM     30  H   UNL     1       3.951   2.601  18.371  0.00  0.00    +0.084 HD
ENDBRANCH  12  15
ENDBRANCH   5  11
BRANCH   1  31
ATOM     31  C   UNL     1      -0.751  11.886  19.030  0.00  0.00    +0.035 C 
ATOM     32  H   UNL     1      -0.368  11.779  18.008  0.00  0.00    +0.046 HD
BRANCH  31  33
ATOM     33  C   UNL     1      -0.389  13.291  19.521  0.00  0.00    -0.049 C 
ATOM     34  H   UNL     1      -1.159  14.022  19.253  0.00  0.00    +0.024 HD
ATOM     35  H   UNL     1      -0.253  13.335  20.608  0.00  0.00    +0.024 HD
ATOM     36  H   UNL     1       0.549  13.627  19.063  0.00  0.00    +0.024 HD
ENDBRANCH  31  33
BRANCH  31  37
ATOM     37  S   UNL     1      -2.574  11.665  18.987  0.00  0.00    -0.078 S 
BRANCH  37  38
ATOM     38  C   UNL     1      -2.806  11.006  17.409  0.00  0.00    +0.192 A 
ATOM     39  N   UNL     1      -1.958  10.279  16.718  0.00  0.00    -0.123 NA
ATOM     40  N   UNL     1      -2.553   9.971  15.515  0.00  0.00    -0.137 NA
ATOM     41  C   UNL     1      -3.747  10.517  15.512  0.00  0.00    +0.120 A 
ATOM     42  N   UNL     1      -3.951  11.180  16.685  0.00  0.00    -0.312 N 
ATOM     43  H   UNL     1      -4.471  10.460  14.711  0.00  0.00    +0.105 HD
BRANCH  42  44
ATOM     44  C   UNL     1      -5.140  11.897  17.055  0.00  0.00    +0.015 C 
ATOM     45  H   UNL     1      -5.123  12.879  16.576  0.00  0.00    +0.046 HD
ATOM     46  H   UNL     1      -5.167  12.024  18.141  0.00  0.00    +0.046 HD
ATOM     47  H   UNL     1      -6.012  11.322  16.735  0.00  0.00    +0.046 HD
ENDBRANCH  42  44
ENDBRANCH  37  38
ENDBRANCH  31  37
ENDBRANCH   1  31
TORSDOF 7
ENDMDL
MODEL 2
REMARK VINA RESULT:    -7.774      3.541      9.307
REMARK INTER + INTRA:         -11.049
REMARK INTER:                 -10.589
REMARK INTRA:                  -0.460
REMARK UNBOUND:                -0.548
REMARK  Name = 
REMARK  7 active torsions:
REMARK  status: ('A' for Active; 'I' for Inactive)
REMARK    1  A    between atoms: C_1  and  C_2
REMARK    2  A    between atoms: C_2  and  C_3
REMARK    3  A    between atoms: C_2  and  S_22
REMARK    4  A    between atoms: C_7  and  N_9
REMARK    5  A    between atoms: C_10  and  C_11
REMARK    6  A    between atoms: S_22  and  C_23
REMARK    7  A    between atoms: N_27  and  C_28
REMARK                            x       y       z     vdW  Elec       q    Type
REMARK                         _______ _______ _______ _____ _____    ______ ____
ROOT
ATOM      1  C   UNL     1       4.815   4.375  17.239  0.00  0.00    -0.033 A 
ATOM      2  C   UNL     1       4.090   3.191  17.039  0.00  0.00    -0.057 A 
ATOM      3  C   UNL     1       2.745   3.114  17.397  0.00  0.00    -0.060 A 
ATOM      4  C   UNL     1       2.099   4.219  17.956  0.00  0.00    -0.040 A 
ATOM      5  C   UNL     1       2.792   5.411  18.158  0.00  0.00    +0.034 A 
ATOM      6  C   UNL     1       4.146   5.481  17.796  0.00  0.00    -0.036 A 
ATOM      7  H   UNL     1       4.568   2.316  16.601  0.00  0.00    +0.062 HD
ATOM      8  H   UNL     1       2.192   2.192  17.240  0.00  0.00    +0.062 HD
ATOM      9  H   UNL     1       1.051   4.118  18.220  0.00  0.00    +0.064 HD
ATOM     10  H   UNL     1       4.687   6.412  17.941  0.00  0.00    +0.064 HD
ENDROOT
BRANCH   5  11
ATOM     11  N   UNL     1       2.215   6.567  18.709  0.00  0.00    -0.280 N 
ATOM     12  C   UNL     1       2.363   7.880  18.304  0.00  0.00    +0.267 C 
ATOM     13  O   UNL     1       3.038   8.300  17.372  0.00  0.00    -0.268 OA
ATOM     14  H   UNL     1       1.602   6.452  19.514  0.00  0.00    +0.155 HD
BRANCH  12  15
ATOM     15  C   UNL     1       1.574   8.838  19.150  0.00  0.00    +0.126 A 
ATOM     16  C   UNL     1       1.227   8.492  20.451  0.00  0.00    -0.023 A 
ATOM     17  C   UNL     1       0.493   9.407  21.212  0.00  0.00    -0.014 A 
ATOM     18  C   UNL     1       0.108   9.127  22.533  0.00  0.00    -0.054 A 
ATOM     19  C   UNL     1      -0.624  10.058  23.273  0.00  0.00    -0.061 A 
ATOM     20  C   UNL     1      -0.981  11.278  22.704  0.00  0.00    -0.061 A 
ATOM     21  C   UNL     1      -0.605  11.573  21.392  0.00  0.00    -0.053 A 
ATOM     22  C   UNL     1       0.131  10.643  20.638  0.00  0.00    +0.000 A 
ATOM     23  C   UNL     1       0.532  10.886  19.321  0.00  0.00    +0.036 A 
ATOM     24  N   UNL     1       1.241  10.020  18.560  0.00  0.00    -0.250 NA
ATOM     25  H   UNL     1       1.526   7.530  20.856  0.00  0.00    +0.065 HD
ATOM     26  H   UNL     1       0.376   8.179  22.998  0.00  0.00    +0.062 HD
ATOM     27  H   UNL     1      -0.916   9.829  24.295  0.00  0.00    +0.062 HD
ATOM     28  H   UNL     1      -1.551  12.001  23.283  0.00  0.00    +0.062 HD
ATOM     29  H   UNL     1      -0.892  12.530  20.964  0.00  0.00    +0.062 HD
ATOM     30  H   UNL     1       0.283  11.822  18.826  0.00  0.00    +0.084 HD
ENDBRANCH  12  15
ENDBRANCH   5  11
BRANCH   1  31
ATOM     31  C   UNL     1       6.281   4.434  16.834  0.00  0.00    +0.035 C 
ATOM     32  H   UNL     1       6.559   3.452  16.433  0.00  0.00    +0.046 HD
BRANCH  31  33
ATOM     33  C   UNL     1       7.200   4.733  18.022  0.00  0.00    -0.049 C 
ATOM     34  H   UNL     1       7.543   5.773  18.015  0.00  0.00    +0.024 HD
ATOM     35  H   UNL     1       6.714   4.551  18.987  0.00  0.00    +0.024 HD
ATOM     36  H   UNL     1       8.093   4.098  17.984  0.00  0.00    +0.024 HD
ENDBRANCH  31  33
BRANCH  31  37
ATOM     37  S   UNL     1       6.511   5.684  15.508  0.00  0.00    -0.078 S 
BRANCH  37  38
ATOM     38  C   UNL     1       6.417   4.705  14.089  0.00  0.00    +0.192 A 
ATOM     39  N   UNL     1       5.531   3.773  13.823  0.00  0.00    -0.123 NA
ATOM     40  N   UNL     1       5.832   3.247  12.587  0.00  0.00    -0.137 NA
ATOM     41  C   UNL     1       6.891   3.879  12.136  0.00  0.00    +0.120 A 
ATOM     42  N   UNL     1       7.295   4.807  13.049  0.00  0.00    -0.312 N 
ATOM     43  H   UNL     1       7.382   3.704  11.188  0.00  0.00    +0.105 HD
BRANCH  42  44
ATOM     44  C   UNL     1       8.414   5.698  12.910  0.00  0.00    +0.015 C 
ATOM     45  H   UNL     1       9.269   5.277  13.446  0.00  0.00    +0.046 HD
ATOM     46  H   UNL     1       8.161   6.672  13.338  0.00  0.00    +0.046 HD
ATOM     47  H   UNL     1       8.641   5.816  11.848  0.00  0.00    +0.046 HD
ENDBRANCH  42  44
ENDBRANCH  37  38
ENDBRANCH  31  37
ENDBRANCH   1  31
TORSDOF 7
ENDMDL
MODEL 3
REMARK VINA RESULT:    -7.673      3.620      9.294
REMARK INTER + INTRA:         -10.913
REMARK INTER:                 -10.454
REMARK INTRA:                  -0.460
REMARK UNBOUND:                -0.548
REMARK  Name = 
REMARK  7 active torsions:
REMARK  status: ('A' for Active; 'I' for Inactive)
REMARK    1  A    between atoms: C_1  and  C_2
REMARK    2  A    between atoms: C_2  and  C_3
REMARK    3  A    between atoms: C_2  and  S_22
REMARK    4  A    between atoms: C_7  and  N_9
REMARK    5  A    between atoms: C_10  and  C_11
REMARK    6  A    between atoms: S_22  and  C_23
REMARK    7  A    between atoms: N_27  and  C_28
REMARK                            x       y       z     vdW  Elec       q    Type
REMARK                         _______ _______ _______ _____ _____    ______ ____
ROOT
ATOM      1  C   UNL     1       4.329   4.777  16.875  0.00  0.00    -0.033 A 
ATOM      2  C   UNL     1       3.698   3.531  17.000  0.00  0.00    -0.057 A 
ATOM      3  C   UNL     1       2.509   3.405  17.716  0.00  0.00    -0.060 A 
ATOM      4  C   UNL     1       1.926   4.524  18.316  0.00  0.00    -0.040 A 
ATOM      5  C   UNL     1       2.526   5.776  18.202  0.00  0.00    +0.034 A 
ATOM      6  C   UNL     1       3.723   5.894  17.481  0.00  0.00    -0.036 A 
ATOM      7  H   UNL     1       4.129   2.643  16.538  0.00  0.00    +0.062 HD
ATOM      8  H   UNL     1       2.029   2.435  17.808  0.00  0.00    +0.062 HD
ATOM      9  H   UNL     1       1.000   4.384  18.865  0.00  0.00    +0.064 HD
ATOM     10  H   UNL     1       4.188   6.871  17.379  0.00  0.00    +0.064 HD
ENDROOT
BRANCH   5  11
ATOM     11  N   UNL     1       2.002   6.949  18.771  0.00  0.00    -0.280 N 
ATOM     12  C   UNL     1       2.133   8.252  18.331  0.00  0.00    +0.267 C 
ATOM     13  O   UNL     1       2.743   8.647  17.345  0.00  0.00    -0.268 OA
ATOM     14  H   UNL     1       1.448   6.856  19.620  0.00  0.00    +0.155 HD
BRANCH  12  15
ATOM     15  C   UNL     1       1.417   9.234  19.213  0.00  0.00    +0.126 A 
ATOM     16  C   UNL     1       0.906   8.823  20.439  0.00  0.00    -0.023 A 
ATOM     17  C   UNL     1       0.246   9.763  21.237  0.00  0.00    -0.014 A 
ATOM     18  C   UNL     1      -0.294   9.420  22.487  0.00  0.00    -0.054 A 
ATOM     19  C   UNL     1      -0.949  10.377  23.265  0.00  0.00    -0.061 A 
ATOM     20  C   UNL     1      -1.071  11.686  22.806  0.00  0.00    -0.061 A 
ATOM     21  C   UNL     1      -0.539  12.044  21.566  0.00  0.00    -0.053 A 
ATOM     22  C   UNL     1       0.121  11.089  20.774  0.00  0.00    +0.000 A 
ATOM     23  C   UNL     1       0.672  11.392  19.526  0.00  0.00    +0.036 A 
ATOM     24  N   UNL     1       1.314  10.505  18.731  0.00  0.00    -0.250 NA
ATOM     25  H   UNL     1       1.025   7.792  20.759  0.00  0.00    +0.065 HD
ATOM     26  H   UNL     1      -0.211   8.403  22.865  0.00  0.00    +0.062 HD
ATOM     27  H   UNL     1      -1.364  10.099  24.231  0.00  0.00    +0.062 HD
ATOM     28  H   UNL     1      -1.581  12.430  23.415  0.00  0.00    +0.062 HD
ATOM     29  H   UNL     1      -0.644  13.071  21.224  0.00  0.00    +0.062 HD
ATOM     30  H   UNL     1       0.607  12.398  19.117  0.00  0.00    +0.084 HD
ENDBRANCH  12  15
ENDBRANCH   5  11
BRANCH   1  31
ATOM     31  C   UNL     1       5.624   4.887  16.083  0.00  0.00    +0.035 C 
ATOM     32  H   UNL     1       5.700   5.913  15.704  0.00  0.00    +0.046 HD
BRANCH  31  33
ATOM     33  C   UNL     1       5.650   3.941  14.879  0.00  0.00    -0.049 C 
ATOM     34  H   UNL     1       5.394   2.915  15.167  0.00  0.00    +0.024 HD
ATOM     35  H   UNL     1       4.955   4.245  14.088  0.00  0.00    +0.024 HD
ATOM     36  H   UNL     1       6.653   3.911  14.437  0.00  0.00    +0.024 HD
ENDBRANCH  31  33
BRANCH  31  37
ATOM     37  S   UNL     1       7.058   4.571  17.185  0.00  0.00    -0.078 S 
BRANCH  37  38
ATOM     38  C   UNL     1       7.536   6.178  17.599  0.00  0.00    +0.192 A 
ATOM     39  N   UNL     1       7.482   7.245  16.836  0.00  0.00    -0.123 NA
ATOM     40  N   UNL     1       7.964   8.308  17.567  0.00  0.00    -0.137 NA
ATOM     41  C   UNL     1       8.292   7.855  18.755  0.00  0.00    +0.120 A 
ATOM     42  N   UNL     1       8.041   6.518  18.822  0.00  0.00    -0.312 N 
ATOM     43  H   UNL     1       8.702   8.440  19.568  0.00  0.00    +0.105 HD
BRANCH  42  44
ATOM     44  C   UNL     1       8.265   5.671  19.961  0.00  0.00    +0.015 C 
ATOM     45  H   UNL     1       9.180   5.097  19.800  0.00  0.00    +0.046 HD
ATOM     46  H   UNL     1       7.421   4.985  20.078  0.00  0.00    +0.046 HD
ATOM     47  H   UNL     1       8.349   6.297  20.853  0.00  0.00    +0.046 HD
ENDBRANCH  42  44
ENDBRANCH  37  38
ENDBRANCH  31  37
ENDBRANCH   1  31
TORSDOF 7
ENDMDL
MODEL 4
REMARK VINA RESULT:    -7.573      3.427      8.908
REMARK INTER + INTRA:         -10.778
REMARK INTER:                  -9.879
REMARK INTRA:                  -0.900
REMARK UNBOUND:                -0.548
REMARK  Name = 
REMARK  7 active torsions:
REMARK  status: ('A' for Active; 'I' for Inactive)
REMARK    1  A    between atoms: C_1  and  C_2
REMARK    2  A    between atoms: C_2  and  C_3
REMARK    3  A    between atoms: C_2  and  S_22
REMARK    4  A    between atoms: C_7  and  N_9
REMARK    5  A    between atoms: C_10  and  C_11
REMARK    6  A    between atoms: S_22  and  C_23
REMARK    7  A    between atoms: N_27  and  C_28
REMARK                            x       y       z     vdW  Elec       q    Type
REMARK                         _______ _______ _______ _____ _____    ______ ____
ROOT
ATOM      1  C   UNL     1       5.535   4.869  19.023  0.00  0.00    -0.033 A 
ATOM      2  C   UNL     1       4.989   3.579  18.972  0.00  0.00    -0.057 A 
ATOM      3  C   UNL     1       3.626   3.375  19.180  0.00  0.00    -0.060 A 
ATOM      4  C   UNL     1       2.782   4.459  19.436  0.00  0.00    -0.040 A 
ATOM      5  C   UNL     1       3.295   5.754  19.484  0.00  0.00    +0.034 A 
ATOM      6  C   UNL     1       4.668   5.950  19.275  0.00  0.00    -0.036 A 
ATOM      7  H   UNL     1       5.624   2.717  18.770  0.00  0.00    +0.062 HD
ATOM      8  H   UNL     1       3.213   2.371  19.141  0.00  0.00    +0.062 HD
ATOM      9  H   UNL     1       1.727   4.258  19.593  0.00  0.00    +0.064 HD
ATOM     10  H   UNL     1       5.070   6.960  19.299  0.00  0.00    +0.064 HD
ENDROOT
BRANCH   5  11
ATOM     11  N   UNL     1       2.514   6.895  19.731  0.00  0.00    -0.280 N 
ATOM     12  C   UNL     1       2.203   7.928  18.868  0.00  0.00    +0.267 C 
ATOM     13  O   UNL     1       2.555   8.056  17.702  0.00  0.00    -0.268 OA
ATOM     14  H   UNL     1       2.110   7.000  20.660  0.00  0.00    +0.155 HD
BRANCH  12  15
ATOM     15  C   UNL     1       1.332   8.972  19.507  0.00  0.00    +0.126 A 
ATOM     16  C   UNL     1       0.901   8.809  20.818  0.00  0.00    -0.023 A 
ATOM     17  C   UNL     1       0.091   9.799  21.383  0.00  0.00    -0.014 A 
ATOM     18  C   UNL     1      -0.380   9.703  22.702  0.00  0.00    -0.054 A 
ATOM     19  C   UNL     1      -1.187  10.706  23.244  0.00  0.00    -0.061 A 
ATOM     20  C   UNL     1      -1.533  11.816  22.477  0.00  0.00    -0.061 A 
ATOM     21  C   UNL     1      -1.072  11.927  21.163  0.00  0.00    -0.053 A 
ATOM     22  C   UNL     1      -0.259  10.923  20.608  0.00  0.00    +0.000 A 
ATOM     23  C   UNL     1       0.229  10.985  19.300  0.00  0.00    +0.036 A 
ATOM     24  N   UNL     1       1.012  10.042  18.725  0.00  0.00    -0.250 NA
ATOM     25  H   UNL     1       1.194   7.928  21.382  0.00  0.00    +0.065 HD
ATOM     26  H   UNL     1      -0.123   8.844  23.320  0.00  0.00    +0.062 HD
ATOM     27  H   UNL     1      -1.547  10.620  24.267  0.00  0.00    +0.062 HD
ATOM     28  H   UNL     1      -2.161  12.595  22.901  0.00  0.00    +0.062 HD
ATOM     29  H   UNL     1      -1.351  12.801  20.579  0.00  0.00    +0.062 HD
ATOM     30  H   UNL     1      -0.007  11.828  18.654  0.00  0.00    +0.084 HD
ENDBRANCH  12  15
ENDBRANCH   5  11
BRANCH   1  31
ATOM     31  C   UNL     1       7.025   5.064  18.787  0.00  0.00    +0.035 C 
ATOM     32  H   UNL     1       7.453   4.091  18.517  0.00  0.00    +0.046 HD
BRANCH  31  33
ATOM     33  C   UNL     1       7.751   5.564  20.039  0.00  0.00    -0.049 C 
ATOM     34  H   UNL     1       8.830   5.652  19.872  0.00  0.00    +0.024 HD
ATOM     35  H   UNL     1       7.387   6.541  20.376  0.00  0.00    +0.024 HD
ATOM     36  H   UNL     1       7.610   4.861  20.869  0.00  0.00    +0.024 HD
ENDBRANCH  31  33
BRANCH  31  37
ATOM     37  S   UNL     1       7.288   6.218  17.382  0.00  0.00    -0.078 S 
BRANCH  37  38
ATOM     38  C   UNL     1       6.687   5.292  16.056  0.00  0.00    +0.192 A 
ATOM     39  N   UNL     1       7.164   4.157  15.598  0.00  0.00    -0.123 NA
ATOM     40  N   UNL     1       6.381   3.773  14.532  0.00  0.00    -0.137 NA
ATOM     41  C   UNL     1       5.449   4.685  14.376  0.00  0.00    +0.120 A 
ATOM     42  N   UNL     1       5.602   5.662  15.314  0.00  0.00    -0.312 N 
ATOM     43  H   UNL     1       4.671   4.678  13.625  0.00  0.00    +0.105 HD
BRANCH  42  44
ATOM     44  C   UNL     1       4.771   6.824  15.467  0.00  0.00    +0.015 C 
ATOM     45  H   UNL     1       3.878   6.547  16.032  0.00  0.00    +0.046 HD
ATOM     46  H   UNL     1       4.477   7.195  14.481  0.00  0.00    +0.046 HD
ATOM     47  H   UNL     1       5.340   7.597  15.990  0.00  0.00    +0.046 HD
ENDBRANCH  42  44
ENDBRANCH  37  38
ENDBRANCH  31  37
ENDBRANCH   1  31
TORSDOF 7
ENDMDL
MODEL 5
REMARK VINA RESULT:    -7.502      1.507      1.695
REMARK INTER + INTRA:         -10.682
REMARK INTER:                 -10.429
REMARK INTRA:                  -0.253
REMARK UNBOUND:                -0.548
REMARK  Name = 
REMARK  7 active torsions:
REMARK  status: ('A' for Active; 'I' for Inactive)
REMARK    1  A    between atoms: C_1  and  C_2
REMARK    2  A    between atoms: C_2  and  C_3
REMARK    3  A    between atoms: C_2  and  S_22
REMARK    4  A    between atoms: C_7  and  N_9
REMARK    5  A    between atoms: C_10  and  C_11
REMARK    6  A    between atoms: S_22  and  C_23
REMARK    7  A    between atoms: N_27  and  C_28
REMARK                            x       y       z     vdW  Elec       q    Type
REMARK                         _______ _______ _______ _____ _____    ______ ____
ROOT
ATOM      1  C   UNL     1      -0.221  11.337  21.230  0.00  0.00    -0.033 A 
ATOM      2  C   UNL     1      -0.628  11.010  22.532  0.00  0.00    -0.057 A 
ATOM      3  C   UNL     1      -0.327   9.763  23.078  0.00  0.00    -0.060 A 
ATOM      4  C   UNL     1       0.393   8.823  22.336  0.00  0.00    -0.040 A 
ATOM      5  C   UNL     1       0.818   9.124  21.044  0.00  0.00    +0.034 A 
ATOM      6  C   UNL     1       0.510  10.380  20.500  0.00  0.00    -0.036 A 
ATOM      7  H   UNL     1      -1.186  11.726  23.133  0.00  0.00    +0.062 HD
ATOM      8  H   UNL     1      -0.649   9.519  24.087  0.00  0.00    +0.062 HD
ATOM      9  H   UNL     1       0.607   7.865  22.797  0.00  0.00    +0.064 HD
ATOM     10  H   UNL     1       0.850  10.623  19.497  0.00  0.00    +0.064 HD
ENDROOT
BRANCH   5  11
ATOM     11  N   UNL     1       1.548   8.237  20.235  0.00  0.00    -0.280 N 
ATOM     12  C   UNL     1       1.923   8.386  18.914  0.00  0.00    +0.267 C 
ATOM     13  O   UNL     1       1.685   9.335  18.175  0.00  0.00    -0.268 OA
ATOM     14  H   UNL     1       1.856   7.361  20.652  0.00  0.00    +0.155 HD
BRANCH  12  15
ATOM     15  C   UNL     1       2.706   7.213  18.399  0.00  0.00    +0.126 A 
ATOM     16  C   UNL     1       3.641   7.393  17.386  0.00  0.00    -0.023 A 
ATOM     17  C   UNL     1       4.354   6.280  16.930  0.00  0.00    -0.014 A 
ATOM     18  C   UNL     1       5.315   6.386  15.911  0.00  0.00    -0.054 A 
ATOM     19  C   UNL     1       6.015   5.259  15.474  0.00  0.00    -0.061 A 
ATOM     20  C   UNL     1       5.765   4.015  16.047  0.00  0.00    -0.061 A 
ATOM     21  C   UNL     1       4.814   3.892  17.062  0.00  0.00    -0.053 A 
ATOM     22  C   UNL     1       4.103   5.020  17.510  0.00  0.00    +0.000 A 
ATOM     23  C   UNL     1       3.140   4.953  18.521  0.00  0.00    +0.036 A 
ATOM     24  N   UNL     1       2.434   6.011  18.982  0.00  0.00    -0.250 NA
ATOM     25  H   UNL     1       3.806   8.381  16.967  0.00  0.00    +0.065 HD
ATOM     26  H   UNL     1       5.526   7.348  15.449  0.00  0.00    +0.062 HD
ATOM     27  H   UNL     1       6.756   5.354  14.683  0.00  0.00    +0.062 HD
ATOM     28  H   UNL     1       6.311   3.139  15.704  0.00  0.00    +0.062 HD
ATOM     29  H   UNL     1       4.631   2.913  17.498  0.00  0.00    +0.062 HD
ATOM     30  H   UNL     1       2.904   4.008  19.006  0.00  0.00    +0.084 HD
ENDBRANCH  12  15
ENDBRANCH   5  11
BRANCH   1  31
ATOM     31  C   UNL     1      -0.558  12.707  20.660  0.00  0.00    +0.035 C 
ATOM     32  H   UNL     1      -0.090  12.783  19.671  0.00  0.00    +0.046 HD
BRANCH  31  33
ATOM     33  C   UNL     1      -0.013  13.846  21.526  0.00  0.00    -0.049 C 
ATOM     34  H   UNL     1      -0.759  14.196  22.248  0.00  0.00    +0.024 HD
ATOM     35  H   UNL     1       0.882  13.558  22.088  0.00  0.00    +0.024 HD
ATOM     36  H   UNL     1       0.259  14.705  20.901  0.00  0.00    +0.024 HD
ENDBRANCH  31  33
BRANCH  31  37
ATOM     37  S   UNL     1      -2.376  12.864  20.451  0.00  0.00    -0.078 S 
BRANCH  37  38
ATOM     38  C   UNL     1      -2.614  12.114  18.915  0.00  0.00    +0.192 A 
ATOM     39  N   UNL     1      -1.695  11.805  18.030  0.00  0.00    -0.123 NA
ATOM     40  N   UNL     1      -2.327  11.226  16.952  0.00  0.00    -0.137 NA
ATOM     41  C   UNL     1      -3.613  11.196  17.217  0.00  0.00    +0.120 A 
ATOM     42  N   UNL     1      -3.841  11.745  18.443  0.00  0.00    -0.312 N 
ATOM     43  H   UNL     1      -4.386  10.800  16.573  0.00  0.00    +0.105 HD
BRANCH  42  44
ATOM     44  C   UNL     1      -5.121  11.885  19.082  0.00  0.00    +0.015 C 
ATOM     45  H   UNL     1      -5.463  10.899  19.407  0.00  0.00    +0.046 HD
ATOM     46  H   UNL     1      -5.840  12.302  18.371  0.00  0.00    +0.046 HD
ATOM     47  H   UNL     1      -5.018  12.562  19.933  0.00  0.00    +0.046 HD
ENDBRANCH  42  44
ENDBRANCH  37  38
ENDBRANCH  31  37
ENDBRANCH   1  31
TORSDOF 7
ENDMDL
MODEL 6
REMARK VINA RESULT:    -7.490      2.136      2.666
REMARK INTER + INTRA:         -10.666
REMARK INTER:                 -10.133
REMARK INTRA:                  -0.533
REMARK UNBOUND:                -0.548
REMARK  Name = 
REMARK  7 active torsions:
REMARK  status: ('A' for Active; 'I' for Inactive)
REMARK    1  A    between atoms: C_1  and  C_2
REMARK    2  A    between atoms: C_2  and  C_3
REMARK    3  A    between atoms: C_2  and  S_22
REMARK    4  A    between atoms: C_7  and  N_9
REMARK    5  A    between atoms: C_10  and  C_11
REMARK    6  A    between atoms: S_22  and  C_23
REMARK    7  A    between atoms: N_27  and  C_28
REMARK                            x       y       z     vdW  Elec       q    Type
REMARK                         _______ _______ _______ _____ _____    ______ ____
ROOT
ATOM      1  C   UNL     1      -0.131  10.611  20.505  0.00  0.00    -0.033 A 
ATOM      2  C   UNL     1      -0.244  10.546  21.902  0.00  0.00    -0.057 A 
ATOM      3  C   UNL     1       0.370   9.519  22.617  0.00  0.00    -0.060 A 
ATOM      4  C   UNL     1       1.113   8.541  21.951  0.00  0.00    -0.040 A 
ATOM      5  C   UNL     1       1.248   8.585  20.564  0.00  0.00    +0.034 A 
ATOM      6  C   UNL     1       0.627   9.620  19.851  0.00  0.00    -0.036 A 
ATOM      7  H   UNL     1      -0.813  11.299  22.446  0.00  0.00    +0.062 HD
ATOM      8  H   UNL     1       0.275   9.477  23.699  0.00  0.00    +0.062 HD
ATOM      9  H   UNL     1       1.575   7.759  22.544  0.00  0.00    +0.064 HD
ATOM     10  H   UNL     1       0.741   9.665  18.771  0.00  0.00    +0.064 HD
ENDROOT
BRANCH   5  11
ATOM     11  N   UNL     1       1.980   7.644  19.821  0.00  0.00    -0.280 N 
ATOM     12  C   UNL     1       2.041   6.274  19.989  0.00  0.00    +0.267 C 
ATOM     13  O   UNL     1       1.461   5.601  20.832  0.00  0.00    -0.268 OA
ATOM     14  H   UNL     1       2.550   7.989  19.051  0.00  0.00    +0.155 HD
BRANCH  12  15
ATOM     15  C   UNL     1       2.937   5.608  18.984  0.00  0.00    +0.126 A 
ATOM     16  C   UNL     1       3.548   6.363  17.990  0.00  0.00    -0.023 A 
ATOM     17  C   UNL     1       4.377   5.712  17.071  0.00  0.00    -0.014 A 
ATOM     18  C   UNL     1       5.028   6.411  16.041  0.00  0.00    -0.054 A 
ATOM     19  C   UNL     1       5.851   5.737  15.136  0.00  0.00    -0.061 A 
ATOM     20  C   UNL     1       6.035   4.362  15.247  0.00  0.00    -0.061 A 
ATOM     21  C   UNL     1       5.395   3.652  16.266  0.00  0.00    -0.053 A 
ATOM     22  C   UNL     1       4.564   4.319  17.182  0.00  0.00    +0.000 A 
ATOM     23  C   UNL     1       3.900   3.659  18.220  0.00  0.00    +0.036 A 
ATOM     24  N   UNL     1       3.091   4.261  19.123  0.00  0.00    -0.250 NA
ATOM     25  H   UNL     1       3.378   7.434  17.940  0.00  0.00    +0.065 HD
ATOM     26  H   UNL     1       4.898   7.486  15.935  0.00  0.00    +0.062 HD
ATOM     27  H   UNL     1       6.350   6.289  14.342  0.00  0.00    +0.062 HD
ATOM     28  H   UNL     1       6.677   3.840  14.541  0.00  0.00    +0.062 HD
ATOM     29  H   UNL     1       5.550   2.578  16.338  0.00  0.00    +0.062 HD
ATOM     30  H   UNL     1       4.006   2.585  18.356  0.00  0.00    +0.084 HD
ENDBRANCH  12  15
ENDBRANCH   5  11
BRANCH   1  31
ATOM     31  C   UNL     1      -0.806  11.745  19.749  0.00  0.00    +0.035 C 
ATOM     32  H   UNL     1      -1.685  11.333  19.239  0.00  0.00    +0.046 HD
BRANCH  31  33
ATOM     33  C   UNL     1       0.108  12.359  18.685  0.00  0.00    -0.049 C 
ATOM     34  H   UNL     1       1.137  11.995  18.780  0.00  0.00    +0.024 HD
ATOM     35  H   UNL     1      -0.227  12.142  17.664  0.00  0.00    +0.024 HD
ATOM     36  H   UNL     1       0.141  13.450  18.791  0.00  0.00    +0.024 HD
ENDBRANCH  31  33
BRANCH  31  37
ATOM     37  S   UNL     1      -1.376  13.030  20.932  0.00  0.00    -0.078 S 
BRANCH  37  38
ATOM     38  C   UNL     1      -3.088  12.812  20.882  0.00  0.00    +0.192 A 
ATOM     39  N   UNL     1      -3.834  12.621  19.819  0.00  0.00    -0.123 NA
ATOM     40  N   UNL     1      -5.140  12.498  20.239  0.00  0.00    -0.137 NA
ATOM     41  C   UNL     1      -5.147  12.613  21.547  0.00  0.00    +0.120 A 
ATOM     42  N   UNL     1      -3.876  12.812  21.996  0.00  0.00    -0.312 N 
ATOM     43  H   UNL     1      -6.018  12.561  22.186  0.00  0.00    +0.105 HD
BRANCH  42  44
ATOM     44  C   UNL     1      -3.481  12.978  23.368  0.00  0.00    +0.015 C 
ATOM     45  H   UNL     1      -4.375  12.981  23.996  0.00  0.00    +0.046 HD
ATOM     46  H   UNL     1      -2.953  13.929  23.484  0.00  0.00    +0.046 HD
ATOM     47  H   UNL     1      -2.814  12.157  23.644  0.00  0.00    +0.046 HD
ENDBRANCH  42  44
ENDBRANCH  37  38
ENDBRANCH  31  37
ENDBRANCH   1  31
TORSDOF 7
ENDMDL
MODEL 7
REMARK VINA RESULT:    -7.441      3.787      8.900
REMARK INTER + INTRA:         -10.599
REMARK INTER:                  -9.680
REMARK INTRA:                  -0.920
REMARK UNBOUND:                -0.548
REMARK  Name = 
REMARK  7 active torsions:
REMARK  status: ('A' for Active; 'I' for Inactive)
REMARK    1  A    between atoms: C_1  and  C_2
REMARK    2  A    between atoms: C_2  and  C_3
REMARK    3  A    between atoms: C_2  and  S_22
REMARK    4  A    between atoms: C_7  and  N_9
REMARK    5  A    between atoms: C_10  and  C_11
REMARK    6  A    between atoms: S_22  and  C_23
REMARK    7  A    between atoms: N_27  and  C_28
REMARK                            x       y       z     vdW  Elec       q    Type
REMARK                         _______ _______ _______ _____ _____    ______ ____
ROOT
ATOM      1  C   UNL     1       5.484   4.863  18.797  0.00  0.00    -0.033 A 
ATOM      2  C   UNL     1       4.912   3.665  18.344  0.00  0.00    -0.057 A 
ATOM      3  C   UNL     1       3.537   3.456  18.435  0.00  0.00    -0.060 A 
ATOM      4  C   UNL     1       2.708   4.442  18.976  0.00  0.00    -0.040 A 
ATOM      5  C   UNL     1       3.248   5.645  19.426  0.00  0.00    +0.034 A 
ATOM      6  C   UNL     1       4.633   5.848  19.332  0.00  0.00    -0.036 A 
ATOM      7  H   UNL     1       5.535   2.882  17.914  0.00  0.00    +0.062 HD
ATOM      8  H   UNL     1       3.103   2.524  18.083  0.00  0.00    +0.062 HD
ATOM      9  H   UNL     1       1.643   4.240  19.029  0.00  0.00    +0.064 HD
ATOM     10  H   UNL     1       5.056   6.790  19.671  0.00  0.00    +0.064 HD
ENDROOT
BRANCH   5  11
ATOM     11  N   UNL     1       2.483   6.687  19.978  0.00  0.00    -0.280 N 
ATOM     12  C   UNL     1       2.071   7.861  19.379  0.00  0.00    +0.267 C 
ATOM     13  O   UNL     1       2.297   8.233  18.233  0.00  0.00    -0.268 OA
ATOM     14  H   UNL     1       2.178   6.589  20.944  0.00  0.00    +0.155 HD
BRANCH  12  15
ATOM     15  C   UNL     1       1.259   8.725  20.301  0.00  0.00    +0.126 A 
ATOM     16  C   UNL     1       0.500   9.770  19.786  0.00  0.00    -0.023 A 
ATOM     17  C   UNL     1      -0.245  10.555  20.671  0.00  0.00    -0.014 A 
ATOM     18  C   UNL     1      -1.035  11.626  20.222  0.00  0.00    -0.054 A 
ATOM     19  C   UNL     1      -1.771  12.394  21.127  0.00  0.00    -0.061 A 
ATOM     20  C   UNL     1      -1.728  12.104  22.488  0.00  0.00    -0.061 A 
ATOM     21  C   UNL     1      -0.948  11.042  22.951  0.00  0.00    -0.053 A 
ATOM     22  C   UNL     1      -0.203  10.262  22.049  0.00  0.00    +0.000 A 
ATOM     23  C   UNL     1       0.594   9.189  22.459  0.00  0.00    +0.036 A 
ATOM     24  N   UNL     1       1.327   8.413  21.626  0.00  0.00    -0.250 NA
ATOM     25  H   UNL     1       0.494   9.961  18.717  0.00  0.00    +0.065 HD
ATOM     26  H   UNL     1      -1.083  11.871  19.163  0.00  0.00    +0.062 HD
ATOM     27  H   UNL     1      -2.378  13.221  20.766  0.00  0.00    +0.062 HD
ATOM     28  H   UNL     1      -2.302  12.704  23.190  0.00  0.00    +0.062 HD
ATOM     29  H   UNL     1      -0.926  10.830  24.017  0.00  0.00    +0.062 HD
ATOM     30  H   UNL     1       0.666   8.915  23.509  0.00  0.00    +0.084 HD
ENDBRANCH  12  15
ENDBRANCH   5  11
BRANCH   1  31
ATOM     31  C   UNL     1       6.988   5.068  18.680  0.00  0.00    +0.035 C 
ATOM     32  H   UNL     1       7.441   4.099  18.437  0.00  0.00    +0.046 HD
BRANCH  31  33
ATOM     33  C   UNL     1       7.610   5.560  19.990  0.00  0.00    -0.049 C 
ATOM     34  H   UNL     1       6.845   5.896  20.698  0.00  0.00    +0.024 HD
ATOM     35  H   UNL     1       8.209   4.790  20.488  0.00  0.00    +0.024 HD
ATOM     36  H   UNL     1       8.271   6.415  19.802  0.00  0.00    +0.024 HD
ENDBRANCH  31  33
BRANCH  31  37
ATOM     37  S   UNL     1       7.353   6.235  17.310  0.00  0.00    -0.078 S 
BRANCH  37  38
ATOM     38  C   UNL     1       6.724   5.380  15.949  0.00  0.00    +0.192 A 
ATOM     39  N   UNL     1       7.246   4.329  15.360  0.00  0.00    -0.123 NA
ATOM     40  N   UNL     1       6.417   3.975  14.319  0.00  0.00    -0.137 NA
ATOM     41  C   UNL     1       5.411   4.820  14.310  0.00  0.00    +0.120 A 
ATOM     42  N   UNL     1       5.562   5.723  15.320  0.00  0.00    -0.312 N 
ATOM     43  H   UNL     1       4.582   4.816  13.616  0.00  0.00    +0.105 HD
BRANCH  42  44
ATOM     44  C   UNL     1       4.662   6.799  15.633  0.00  0.00    +0.015 C 
ATOM     45  H   UNL     1       5.165   7.749  15.439  0.00  0.00    +0.046 HD
ATOM     46  H   UNL     1       4.383   6.745  16.690  0.00  0.00    +0.046 HD
ATOM     47  H   UNL     1       3.765   6.699  15.016  0.00  0.00    +0.046 HD
ENDBRANCH  42  44
ENDBRANCH  37  38
ENDBRANCH  31  37
ENDBRANCH   1  31
TORSDOF 7
ENDMDL
MODEL 8
REMARK VINA RESULT:    -7.439      3.782      9.230
REMARK INTER + INTRA:         -10.597
REMARK INTER:                 -10.209
REMARK INTRA:                  -0.388
REMARK UNBOUND:                -0.548
REMARK  Name = 
REMARK  7 active torsions:
REMARK  status: ('A' for Active; 'I' for Inactive)
REMARK    1  A    between atoms: C_1  and  C_2
REMARK    2  A    between atoms: C_2  and  C_3
REMARK    3  A    between atoms: C_2  and  S_22
REMARK    4  A    between atoms: C_7  and  N_9
REMARK    5  A    between atoms: C_10  and  C_11
REMARK    6  A    between atoms: S_22  and  C_23
REMARK    7  A    between atoms: N_27  and  C_28
REMARK                            x       y       z     vdW  Elec       q    Type
REMARK                         _______ _______ _______ _____ _____    ______ ____
ROOT
ATOM      1  C   UNL     1       4.340   4.790  16.903  0.00  0.00    -0.033 A 
ATOM      2  C   UNL     1       3.808   3.493  16.920  0.00  0.00    -0.057 A 
ATOM      3  C   UNL     1       2.687   3.194  17.694  0.00  0.00    -0.060 A 
ATOM      4  C   UNL     1       2.074   4.188  18.460  0.00  0.00    -0.040 A 
ATOM      5  C   UNL     1       2.576   5.489  18.456  0.00  0.00    +0.034 A 
ATOM      6  C   UNL     1       3.705   5.781  17.677  0.00  0.00    -0.036 A 
ATOM      7  H   UNL     1       4.264   2.700  16.328  0.00  0.00    +0.062 HD
ATOM      8  H   UNL     1       2.284   2.185  17.701  0.00  0.00    +0.062 HD
ATOM      9  H   UNL     1       1.204   3.916  19.048  0.00  0.00    +0.064 HD
ATOM     10  H   UNL     1       4.091   6.797  17.661  0.00  0.00    +0.064 HD
ENDROOT
BRANCH   5  11
ATOM     11  N   UNL     1       2.015   6.544  19.194  0.00  0.00    -0.280 N 
ATOM     12  C   UNL     1       2.052   7.898  18.923  0.00  0.00    +0.267 C 
ATOM     13  O   UNL     1       2.590   8.453  17.973  0.00  0.00    -0.268 OA
ATOM     14  H   UNL     1       1.509   6.310  20.046  0.00  0.00    +0.155 HD
BRANCH  12  15
ATOM     15  C   UNL     1       1.326   8.714  19.955  0.00  0.00    +0.126 A 
ATOM     16  C   UNL     1       0.556   9.802  19.564  0.00  0.00    -0.023 A 
ATOM     17  C   UNL     1      -0.107  10.541  20.549  0.00  0.00    -0.014 A 
ATOM     18  C   UNL     1      -0.904  11.652  20.228  0.00  0.00    -0.054 A 
ATOM     19  C   UNL     1      -1.557  12.372  21.231  0.00  0.00    -0.061 A 
ATOM     20  C   UNL     1      -1.423  11.993  22.564  0.00  0.00    -0.061 A 
ATOM     21  C   UNL     1      -0.636  10.890  22.900  0.00  0.00    -0.053 A 
ATOM     22  C   UNL     1       0.027  10.158  21.899  0.00  0.00    +0.000 A 
ATOM     23  C   UNL     1       0.827   9.047  22.180  0.00  0.00    +0.036 A 
ATOM     24  N   UNL     1       1.482   8.315  21.249  0.00  0.00    -0.250 NA
ATOM     25  H   UNL     1       0.478  10.064  18.513  0.00  0.00    +0.065 HD
ATOM     26  H   UNL     1      -1.022  11.966  19.193  0.00  0.00    +0.062 HD
ATOM     27  H   UNL     1      -2.170  13.231  20.969  0.00  0.00    +0.062 HD
ATOM     28  H   UNL     1      -1.933  12.556  23.343  0.00  0.00    +0.062 HD
ATOM     29  H   UNL     1      -0.542  10.608  23.947  0.00  0.00    +0.062 HD
ATOM     30  H   UNL     1       0.968   8.704  23.203  0.00  0.00    +0.084 HD
ENDBRANCH  12  15
ENDBRANCH   5  11
BRANCH   1  31
ATOM     31  C   UNL     1       5.560   5.090  16.046  0.00  0.00    +0.035 C 
ATOM     32  H   UNL     1       5.550   6.161  15.809  0.00  0.00    +0.046 HD
BRANCH  31  33
ATOM     33  C   UNL     1       5.544   4.318  14.723  0.00  0.00    -0.049 C 
ATOM     34  H   UNL     1       4.668   4.573  14.118  0.00  0.00    +0.024 HD
ATOM     35  H   UNL     1       6.435   4.508  14.113  0.00  0.00    +0.024 HD
ATOM     36  H   UNL     1       5.504   3.239  14.911  0.00  0.00    +0.024 HD
ENDBRANCH  31  33
BRANCH  31  37
ATOM     37  S   UNL     1       7.092   4.724  16.991  0.00  0.00    -0.078 S 
BRANCH  37  38
ATOM     38  C   UNL     1       7.560   6.301  17.515  0.00  0.00    +0.192 A 
ATOM     39  N   UNL     1       7.531   7.412  16.816  0.00  0.00    -0.123 NA
ATOM     40  N   UNL     1       7.992   8.428  17.623  0.00  0.00    -0.137 NA
ATOM     41  C   UNL     1       8.286   7.904  18.791  0.00  0.00    +0.120 A 
ATOM     42  N   UNL     1       8.029   6.565  18.769  0.00  0.00    -0.312 N 
ATOM     43  H   UNL     1       8.672   8.436  19.649  0.00  0.00    +0.105 HD
BRANCH  42  44
ATOM     44  C   UNL     1       8.219   5.651  19.862  0.00  0.00    +0.015 C 
ATOM     45  H   UNL     1       7.936   6.149  20.792  0.00  0.00    +0.046 HD
ATOM     46  H   UNL     1       9.271   5.356  19.913  0.00  0.00    +0.046 HD
ATOM     47  H   UNL     1       7.602   4.765  19.690  0.00  0.00    +0.046 HD
ENDBRANCH  42  44
ENDBRANCH  37  38
ENDBRANCH  31  37
ENDBRANCH   1  31
TORSDOF 7
ENDMDL
MODEL 9
REMARK VINA RESULT:    -7.379      2.738      3.564
REMARK INTER + INTRA:         -10.515
REMARK INTER:                  -9.853
REMARK INTRA:                  -0.662
REMARK UNBOUND:                -0.548
REMARK  Name = 
REMARK  7 active torsions:
REMARK  status: ('A' for Active; 'I' for Inactive)
REMARK    1  A    between atoms: C_1  and  C_2
REMARK    2  A    between atoms: C_2  and  C_3
REMARK    3  A    between atoms: C_2  and  S_22
REMARK    4  A    between atoms: C_7  and  N_9
REMARK    5  A    between atoms: C_10  and  C_11
REMARK    6  A    between atoms: S_22  and  C_23
REMARK    7  A    between atoms: N_27  and  C_28
REMARK                            x       y       z     vdW  Elec       q    Type
REMARK                         _______ _______ _______ _____ _____    ______ ____
ROOT
ATOM      1  C   UNL     1      -0.976  11.571  18.828  0.00  0.00    -0.033 A 
ATOM      2  C   UNL     1      -0.288  12.793  18.864  0.00  0.00    -0.057 A 
ATOM      3  C   UNL     1       1.095  12.834  18.694  0.00  0.00    -0.060 A 
ATOM      4  C   UNL     1       1.815  11.656  18.480  0.00  0.00    -0.040 A 
ATOM      5  C   UNL     1       1.156  10.429  18.431  0.00  0.00    +0.034 A 
ATOM      6  C   UNL     1      -0.235  10.395  18.604  0.00  0.00    -0.036 A 
ATOM      7  H   UNL     1      -0.826  13.726  19.025  0.00  0.00    +0.062 HD
ATOM      8  H   UNL     1       1.619  13.785  18.726  0.00  0.00    +0.062 HD
ATOM      9  H   UNL     1       2.889  11.731  18.353  0.00  0.00    +0.064 HD
ATOM     10  H   UNL     1      -0.754   9.441  18.554  0.00  0.00    +0.064 HD
ENDROOT
BRANCH   5  11
ATOM     11  N   UNL     1       1.806   9.202  18.215  0.00  0.00    -0.280 N 
ATOM     12  C   UNL     1       2.015   8.170  19.110  0.00  0.00    +0.267 C 
ATOM     13  O   UNL     1       1.673   8.123  20.286  0.00  0.00    -0.268 OA
ATOM     14  H   UNL     1       2.180   9.022  17.286  0.00  0.00    +0.155 HD
BRANCH  12  15
ATOM     15  C   UNL     1       2.750   7.013  18.496  0.00  0.00    +0.126 A 
ATOM     16  C   UNL     1       3.710   7.240  17.518  0.00  0.00    -0.023 A 
ATOM     17  C   UNL     1       4.376   6.141  16.967  0.00  0.00    -0.014 A 
ATOM     18  C   UNL     1       5.359   6.295  15.975  0.00  0.00    -0.054 A 
ATOM     19  C   UNL     1       6.010   5.180  15.442  0.00  0.00    -0.061 A 
ATOM     20  C   UNL     1       5.690   3.902  15.890  0.00  0.00    -0.061 A 
ATOM     21  C   UNL     1       4.716   3.732  16.876  0.00  0.00    -0.053 A 
ATOM     22  C   UNL     1       4.053   4.846  17.420  0.00  0.00    +0.000 A 
ATOM     23  C   UNL     1       3.071   4.733  18.408  0.00  0.00    +0.036 A 
ATOM     24  N   UNL     1       2.409   5.777  18.958  0.00  0.00    -0.250 NA
ATOM     25  H   UNL     1       3.930   8.254  17.197  0.00  0.00    +0.065 HD
ATOM     26  H   UNL     1       5.625   7.285  15.609  0.00  0.00    +0.062 HD
ATOM     27  H   UNL     1       6.769   5.312  14.674  0.00  0.00    +0.062 HD
ATOM     28  H   UNL     1       6.199   3.036  15.473  0.00  0.00    +0.062 HD
ATOM     29  H   UNL     1       4.479   2.726  17.215  0.00  0.00    +0.062 HD
ATOM     30  H   UNL     1       2.780   3.759  18.797  0.00  0.00    +0.084 HD
ENDBRANCH  12  15
ENDBRANCH   5  11
BRANCH   1  31
ATOM     31  C   UNL     1      -2.487  11.555  19.010  0.00  0.00    +0.035 C 
ATOM     32  H   UNL     1      -2.744  10.673  19.609  0.00  0.00    +0.046 HD
BRANCH  31  33
ATOM     33  C   UNL     1      -3.231  11.448  17.675  0.00  0.00    -0.049 C 
ATOM     34  H   UNL     1      -3.490  10.411  17.440  0.00  0.00    +0.024 HD
ATOM     35  H   UNL     1      -4.158  12.033  17.662  0.00  0.00    +0.024 HD
ATOM     36  H   UNL     1      -2.603  11.818  16.856  0.00  0.00    +0.024 HD
ENDBRANCH  31  33
BRANCH  31  37
ATOM     37  S   UNL     1      -3.020  13.052  19.931  0.00  0.00    -0.078 S 
BRANCH  37  38
ATOM     38  C   UNL     1      -2.848  12.531  21.567  0.00  0.00    +0.192 A 
ATOM     39  N   UNL     1      -1.829  11.893  22.095  0.00  0.00    -0.123 NA
ATOM     40  N   UNL     1      -2.114  11.675  23.425  0.00  0.00    -0.137 NA
ATOM     41  C   UNL     1      -3.297  12.192  23.666  0.00  0.00    +0.120 A 
ATOM     42  N   UNL     1      -3.798  12.742  22.525  0.00  0.00    -0.312 N 
ATOM     43  H   UNL     1      -3.810  12.190  24.618  0.00  0.00    +0.105 HD
BRANCH  42  44
ATOM     44  C   UNL     1      -5.065  13.407  22.393  0.00  0.00    +0.015 C 
ATOM     45  H   UNL     1      -5.616  12.955  21.564  0.00  0.00    +0.046 HD
ATOM     46  H   UNL     1      -4.901  14.468  22.184  0.00  0.00    +0.046 HD
ATOM     47  H   UNL     1      -5.617  13.303  23.330  0.00  0.00    +0.046 HD
ENDBRANCH  42  44
ENDBRANCH  37  38
ENDBRANCH  31  37
ENDBRANCH   1  31
TORSDOF 7
ENDMDL
MODEL 10
REMARK VINA RESULT:    -7.361      3.737      9.252
REMARK INTER + INTRA:         -10.491
REMARK INTER:                 -10.007
REMARK INTRA:                  -0.484
REMARK UNBOUND:                -0.548
REMARK  Name = 
REMARK  7 active torsions:
REMARK  status: ('A' for Active; 'I' for Inactive)
REMARK    1  A    between atoms: C_1  and  C_2
REMARK    2  A    between atoms: C_2  and  C_3
REMARK    3  A    between atoms: C_2  and  S_22
REMARK    4  A    between atoms: C_7  and  N_9
REMARK    5  A    between atoms: C_10  and  C_11
REMARK    6  A    between atoms: S_22  and  C_23
REMARK    7  A    between atoms: N_27  and  C_28
REMARK                            x       y       z     vdW  Elec       q    Type
REMARK                         _______ _______ _______ _____ _____    ______ ____
ROOT
ATOM      1  C   UNL     1       4.834   4.322  17.260  0.00  0.00    -0.033 A 
ATOM      2  C   UNL     1       4.118   3.154  16.959  0.00  0.00    -0.057 A 
ATOM      3  C   UNL     1       2.787   3.017  17.350  0.00  0.00    -0.060 A 
ATOM      4  C   UNL     1       2.146   4.046  18.044  0.00  0.00    -0.040 A 
ATOM      5  C   UNL     1       2.831   5.221  18.349  0.00  0.00    +0.034 A 
ATOM      6  C   UNL     1       4.170   5.351  17.954  0.00  0.00    -0.036 A 
ATOM      7  H   UNL     1       4.593   2.339  16.416  0.00  0.00    +0.062 HD
ATOM      8  H   UNL     1       2.242   2.107  17.114  0.00  0.00    +0.062 HD
ATOM      9  H   UNL     1       1.110   3.900  18.330  0.00  0.00    +0.064 HD
ATOM     10  H   UNL     1       4.703   6.271  18.179  0.00  0.00    +0.064 HD
ENDROOT
BRANCH   5  11
ATOM     11  N   UNL     1       2.257   6.303  19.038  0.00  0.00    -0.280 N 
ATOM     12  C   UNL     1       2.244   7.638  18.685  0.00  0.00    +0.267 C 
ATOM     13  O   UNL     1       2.739   8.150  17.688  0.00  0.00    -0.268 OA
ATOM     14  H   UNL     1       1.782   6.105  19.917  0.00  0.00    +0.155 HD
BRANCH  12  15
ATOM     15  C   UNL     1       1.521   8.493  19.686  0.00  0.00    +0.126 A 
ATOM     16  C   UNL     1       0.845   9.633  19.267  0.00  0.00    -0.023 A 
ATOM     17  C   UNL     1       0.182  10.407  20.224  0.00  0.00    -0.014 A 
ATOM     18  C   UNL     1      -0.522  11.571  19.874  0.00  0.00    -0.054 A 
ATOM     19  C   UNL     1      -1.177  12.326  20.849  0.00  0.00    -0.061 A 
ATOM     20  C   UNL     1      -1.139  11.929  22.183  0.00  0.00    -0.061 A 
ATOM     21  C   UNL     1      -0.444  10.775  22.549  0.00  0.00    -0.053 A 
ATOM     22  C   UNL     1       0.220  10.007  21.576  0.00  0.00    +0.000 A 
ATOM     23  C   UNL     1       0.929   8.843  21.886  0.00  0.00    +0.036 A 
ATOM     24  N   UNL     1       1.582   8.076  20.983  0.00  0.00    -0.250 NA
ATOM     25  H   UNL     1       0.839   9.906  18.216  0.00  0.00    +0.065 HD
ATOM     26  H   UNL     1      -0.565  11.899  18.837  0.00  0.00    +0.062 HD
ATOM     27  H   UNL     1      -1.718  13.225  20.565  0.00  0.00    +0.062 HD
ATOM     28  H   UNL     1      -1.650  12.520  22.940  0.00  0.00    +0.062 HD
ATOM     29  H   UNL     1      -0.424  10.480  23.595  0.00  0.00    +0.062 HD
ATOM     30  H   UNL     1       0.993   8.485  22.911  0.00  0.00    +0.084 HD
ENDBRANCH  12  15
ENDBRANCH   5  11
BRANCH   1  31
ATOM     31  C   UNL     1       6.284   4.448  16.816  0.00  0.00    +0.035 C 
ATOM     32  H   UNL     1       6.597   3.479  16.410  0.00  0.00    +0.046 HD
BRANCH  31  33
ATOM     33  C   UNL     1       7.219   4.793  17.980  0.00  0.00    -0.049 C 
ATOM     34  H   UNL     1       6.836   4.410  18.931  0.00  0.00    +0.024 HD
ATOM     35  H   UNL     1       8.229   4.389  17.843  0.00  0.00    +0.024 HD
ATOM     36  H   UNL     1       7.316   5.880  18.084  0.00  0.00    +0.024 HD
ENDBRANCH  31  33
BRANCH  31  37
ATOM     37  S   UNL     1       6.421   5.704  15.483  0.00  0.00    -0.078 S 
BRANCH  37  38
ATOM     38  C   UNL     1       6.364   4.715  14.069  0.00  0.00    +0.192 A 
ATOM     39  N   UNL     1       5.486   3.780  13.788  0.00  0.00    -0.123 NA
ATOM     40  N   UNL     1       5.818   3.246  12.563  0.00  0.00    -0.137 NA
ATOM     41  C   UNL     1       6.887   3.877  12.134  0.00  0.00    +0.120 A 
ATOM     42  N   UNL     1       7.267   4.811  13.050  0.00  0.00    -0.312 N 
ATOM     43  H   UNL     1       7.401   3.695  11.200  0.00  0.00    +0.105 HD
BRANCH  42  44
ATOM     44  C   UNL     1       8.388   5.702  12.933  0.00  0.00    +0.015 C 
ATOM     45  H   UNL     1       8.619   6.111  13.920  0.00  0.00    +0.046 HD
ATOM     46  H   UNL     1       8.136   6.520  12.252  0.00  0.00    +0.046 HD
ATOM     47  H   UNL     1       9.240   5.147  12.532  0.00  0.00    +0.046 HD
ENDBRANCH  42  44
ENDBRANCH  37  38
ENDBRANCH  31  37
ENDBRANCH   1  31
TORSDOF 7
ENDMDL
MODEL 11
REMARK VINA RESULT:    -7.342      3.475      9.138
REMARK INTER + INTRA:         -10.465
REMARK INTER:                 -10.111
REMARK INTRA:                  -0.354
REMARK UNBOUND:                -0.548
REMARK  Name = 
REMARK  7 active torsions:
REMARK  status: ('A' for Active; 'I' for Inactive)
REMARK    1  A    between atoms: C_1  and  C_2
REMARK    2  A    between atoms: C_2  and  C_3
REMARK    3  A    between atoms: C_2  and  S_22
REMARK    4  A    between atoms: C_7  and  N_9
REMARK    5  A    between atoms: C_10  and  C_11
REMARK    6  A    between atoms: S_22  and  C_23
REMARK    7  A    between atoms: N_27  and  C_28
REMARK                            x       y       z     vdW  Elec       q    Type
REMARK                         _______ _______ _______ _____ _____    ______ ____
ROOT
ATOM      1  C   UNL     1       2.684   3.130  19.140  0.00  0.00    -0.033 A 
ATOM      2  C   UNL     1       2.741   2.300  20.269  0.00  0.00    -0.057 A 
ATOM      3  C   UNL     1       2.401   2.790  21.529  0.00  0.00    -0.060 A 
ATOM      4  C   UNL     1       1.993   4.117  21.683  0.00  0.00    -0.040 A 
ATOM      5  C   UNL     1       1.919   4.963  20.578  0.00  0.00    +0.034 A 
ATOM      6  C   UNL     1       2.264   4.463  19.314  0.00  0.00    -0.036 A 
ATOM      7  H   UNL     1       3.051   1.260  20.175  0.00  0.00    +0.062 HD
ATOM      8  H   UNL     1       2.450   2.139  22.397  0.00  0.00    +0.062 HD
ATOM      9  H   UNL     1       1.737   4.459  22.680  0.00  0.00    +0.064 HD
ATOM     10  H   UNL     1       2.196   5.116  18.448  0.00  0.00    +0.064 HD
ENDROOT
BRANCH   5  11
ATOM     11  N   UNL     1       1.515   6.306  20.649  0.00  0.00    -0.280 N 
ATOM     12  C   UNL     1       1.948   7.376  19.890  0.00  0.00    +0.267 C 
ATOM     13  O   UNL     1       2.785   7.364  18.995  0.00  0.00    -0.268 OA
ATOM     14  H   UNL     1       0.810   6.553  21.341  0.00  0.00    +0.155 HD
BRANCH  12  15
ATOM     15  C   UNL     1       1.269   8.663  20.264  0.00  0.00    +0.126 A 
ATOM     16  C   UNL     1       0.563   8.754  21.457  0.00  0.00    -0.023 A 
ATOM     17  C   UNL     1      -0.057   9.966  21.776  0.00  0.00    -0.014 A 
ATOM     18  C   UNL     1      -0.787  10.132  22.964  0.00  0.00    -0.054 A 
ATOM     19  C   UNL     1      -1.396  11.353  23.260  0.00  0.00    -0.061 A 
ATOM     20  C   UNL     1      -1.285  12.422  22.375  0.00  0.00    -0.061 A 
ATOM     21  C   UNL     1      -0.562  12.275  21.189  0.00  0.00    -0.053 A 
ATOM     22  C   UNL     1       0.055  11.050  20.881  0.00  0.00    +0.000 A 
ATOM     23  C   UNL     1       0.789  10.847  19.709  0.00  0.00    +0.036 A 
ATOM     24  N   UNL     1       1.398   9.686  19.373  0.00  0.00    -0.250 NA
ATOM     25  H   UNL     1       0.502   7.896  22.120  0.00  0.00    +0.065 HD
ATOM     26  H   UNL     1      -0.887   9.309  23.670  0.00  0.00    +0.062 HD
ATOM     27  H   UNL     1      -1.959  11.468  24.183  0.00  0.00    +0.062 HD
ATOM     28  H   UNL     1      -1.761  13.372  22.608  0.00  0.00    +0.062 HD
ATOM     29  H   UNL     1      -0.486  13.120  20.510  0.00  0.00    +0.062 HD
ATOM     30  H   UNL     1       0.910  11.647  18.981  0.00  0.00    +0.084 HD
ENDBRANCH  12  15
ENDBRANCH   5  11
BRANCH   1  31
ATOM     31  C   UNL     1       3.054   2.569  17.775  0.00  0.00    +0.035 C 
ATOM     32  H   UNL     1       2.171   2.060  17.370  0.00  0.00    +0.046 HD
BRANCH  31  33
ATOM     33  C   UNL     1       4.189   1.544  17.858  0.00  0.00    -0.049 C 
ATOM     34  H   UNL     1       4.125   0.806  17.052  0.00  0.00    +0.024 HD
ATOM     35  H   UNL     1       5.181   2.007  17.804  0.00  0.00    +0.024 HD
ATOM     36  H   UNL     1       4.139   0.993  18.805  0.00  0.00    +0.024 HD
ENDBRANCH  31  33
BRANCH  31  37
ATOM     37  S   UNL     1       3.501   3.940  16.638  0.00  0.00    -0.078 S 
BRANCH  37  38
ATOM     38  C   UNL     1       5.150   4.219  17.063  0.00  0.00    +0.192 A 
ATOM     39  N   UNL     1       5.624   4.526  18.248  0.00  0.00    -0.123 NA
ATOM     40  N   UNL     1       6.990   4.659  18.133  0.00  0.00    -0.137 NA
ATOM     41  C   UNL     1       7.306   4.423  16.880  0.00  0.00    +0.120 A 
ATOM     42  N   UNL     1       6.178   4.142  16.168  0.00  0.00    -0.312 N 
ATOM     43  H   UNL     1       8.302   4.446  16.459  0.00  0.00    +0.105 HD
BRANCH  42  44
ATOM     44  C   UNL     1       6.120   3.826  14.767  0.00  0.00    +0.015 C 
ATOM     45  H   UNL     1       6.341   2.764  14.635  0.00  0.00    +0.046 HD
ATOM     46  H   UNL     1       6.862   4.421  14.227  0.00  0.00    +0.046 HD
ATOM     47  H   UNL     1       5.121   4.066  14.394  0.00  0.00    +0.046 HD
ENDBRANCH  42  44
ENDBRANCH  37  38
ENDBRANCH  31  37
ENDBRANCH   1  31
TORSDOF 7
ENDMDL
MODEL 12
REMARK VINA RESULT:    -7.333      2.696      3.951
REMARK INTER + INTRA:         -10.454
REMARK INTER:                  -9.555
REMARK INTRA:                  -0.899
REMARK UNBOUND:                -0.548
REMARK  Name = 
REMARK  7 active torsions:
REMARK  status: ('A' for Active; 'I' for Inactive)
REMARK    1  A    between atoms: C_1  and  C_2
REMARK    2  A    between atoms: C_2  and  C_3
REMARK    3  A    between atoms: C_2  and  S_22
REMARK    4  A    between atoms: C_7  and  N_9
REMARK    5  A    between atoms: C_10  and  C_11
REMARK    6  A    between atoms: S_22  and  C_23
REMARK    7  A    between atoms: N_27  and  C_28
REMARK                            x       y       z     vdW  Elec       q    Type
REMARK                         _______ _______ _______ _____ _____    ______ ____
ROOT
ATOM      1  C   UNL     1      -0.347  12.395  19.066  0.00  0.00    -0.033 A 
ATOM      2  C   UNL     1      -1.637  12.263  18.533  0.00  0.00    -0.057 A 
ATOM      3  C   UNL     1      -2.031  11.080  17.910  0.00  0.00    -0.060 A 
ATOM      4  C   UNL     1      -1.144  10.005  17.814  0.00  0.00    -0.040 A 
ATOM      5  C   UNL     1       0.142  10.105  18.342  0.00  0.00    +0.034 A 
ATOM      6  C   UNL     1       0.531  11.299  18.966  0.00  0.00    -0.036 A 
ATOM      7  H   UNL     1      -2.349  13.085  18.598  0.00  0.00    +0.062 HD
ATOM      8  H   UNL     1      -3.032  10.988  17.499  0.00  0.00    +0.062 HD
ATOM      9  H   UNL     1      -1.489   9.101  17.323  0.00  0.00    +0.064 HD
ATOM     10  H   UNL     1       1.529  11.377  19.390  0.00  0.00    +0.064 HD
ENDROOT
BRANCH   5  11
ATOM     11  N   UNL     1       1.090   9.069  18.291  0.00  0.00    -0.280 N 
ATOM     12  C   UNL     1       1.633   8.347  19.336  0.00  0.00    +0.267 C 
ATOM     13  O   UNL     1       1.393   8.470  20.531  0.00  0.00    -0.268 OA
ATOM     14  H   UNL     1       1.441   8.794  17.376  0.00  0.00    +0.155 HD
BRANCH  12  15
ATOM     15  C   UNL     1       2.619   7.312  18.872  0.00  0.00    +0.126 A 
ATOM     16  C   UNL     1       3.302   7.491  17.675  0.00  0.00    -0.023 A 
ATOM     17  C   UNL     1       4.213   6.509  17.273  0.00  0.00    -0.014 A 
ATOM     18  C   UNL     1       4.940   6.623  16.077  0.00  0.00    -0.054 A 
ATOM     19  C   UNL     1       5.845   5.629  15.698  0.00  0.00    -0.061 A 
ATOM     20  C   UNL     1       6.035   4.512  16.506  0.00  0.00    -0.061 A 
ATOM     21  C   UNL     1       5.321   4.383  17.699  0.00  0.00    -0.053 A 
ATOM     22  C   UNL     1       4.407   5.377  18.091  0.00  0.00    +0.000 A 
ATOM     23  C   UNL     1       3.667   5.299  19.274  0.00  0.00    +0.036 A 
ATOM     24  N   UNL     1       2.777   6.232  19.688  0.00  0.00    -0.250 NA
ATOM     25  H   UNL     1       3.124   8.378  17.075  0.00  0.00    +0.065 HD
ATOM     26  H   UNL     1       4.806   7.488  15.429  0.00  0.00    +0.062 HD
ATOM     27  H   UNL     1       6.401   5.728  14.768  0.00  0.00    +0.062 HD
ATOM     28  H   UNL     1       6.741   3.739  16.208  0.00  0.00    +0.062 HD
ATOM     29  H   UNL     1       5.483   3.504  18.318  0.00  0.00    +0.062 HD
ATOM     30  H   UNL     1       3.774   4.450  19.945  0.00  0.00    +0.084 HD
ENDBRANCH  12  15
ENDBRANCH   5  11
BRANCH   1  31
ATOM     31  C   UNL     1       0.056  13.696  19.745  0.00  0.00    +0.035 C 
ATOM     32  H   UNL     1      -0.829  14.344  19.781  0.00  0.00    +0.046 HD
BRANCH  31  33
ATOM     33  C   UNL     1       1.150  14.440  18.974  0.00  0.00    -0.049 C 
ATOM     34  H   UNL     1       1.993  14.703  19.622  0.00  0.00    +0.024 HD
ATOM     35  H   UNL     1       1.547  13.855  18.136  0.00  0.00    +0.024 HD
ATOM     36  H   UNL     1       0.758  15.376  18.559  0.00  0.00    +0.024 HD
ENDBRANCH  31  33
BRANCH  31  37
ATOM     37  S   UNL     1       0.593  13.359  21.468  0.00  0.00    -0.078 S 
BRANCH  37  38
ATOM     38  C   UNL     1      -0.915  13.035  22.244  0.00  0.00    +0.192 A 
ATOM     39  N   UNL     1      -1.879  13.890  22.496  0.00  0.00    -0.123 NA
ATOM     40  N   UNL     1      -2.894  13.205  23.126  0.00  0.00    -0.137 NA
ATOM     41  C   UNL     1      -2.516  11.952  23.235  0.00  0.00    +0.120 A 
ATOM     42  N   UNL     1      -1.276  11.798  22.693  0.00  0.00    -0.312 N 
ATOM     43  H   UNL     1      -3.089  11.152  23.684  0.00  0.00    +0.105 HD
BRANCH  42  44
ATOM     44  C   UNL     1      -0.532  10.570  22.619  0.00  0.00    +0.015 C 
ATOM     45  H   UNL     1      -0.074  10.375  23.591  0.00  0.00    +0.046 HD
ATOM     46  H   UNL     1       0.250  10.662  21.861  0.00  0.00    +0.046 HD
ATOM     47  H   UNL     1      -1.214   9.762  22.340  0.00  0.00    +0.046 HD
ENDBRANCH  42  44
ENDBRANCH  37  38
ENDBRANCH  31  37
ENDBRANCH   1  31
TORSDOF 7
ENDMDL
MODEL 13
REMARK VINA RESULT:    -7.302      2.372      3.391
REMARK INTER + INTRA:         -10.411
REMARK INTER:                  -9.740
REMARK INTRA:                  -0.672
REMARK UNBOUND:                -0.548
REMARK  Name = 
REMARK  7 active torsions:
REMARK  status: ('A' for Active; 'I' for Inactive)
REMARK    1  A    between atoms: C_1  and  C_2
REMARK    2  A    between atoms: C_2  and  C_3
REMARK    3  A    between atoms: C_2  and  S_22
REMARK    4  A    between atoms: C_7  and  N_9
REMARK    5  A    between atoms: C_10  and  C_11
REMARK    6  A    between atoms: S_22  and  C_23
REMARK    7  A    between atoms: N_27  and  C_28
REMARK                            x       y       z     vdW  Elec       q    Type
REMARK                         _______ _______ _______ _____ _____    ______ ____
ROOT
ATOM      1  C   UNL     1      -0.302  10.593  20.274  0.00  0.00    -0.033 A 
ATOM      2  C   UNL     1      -0.299  10.673  21.674  0.00  0.00    -0.057 A 
ATOM      3  C   UNL     1       0.455   9.781  22.435  0.00  0.00    -0.060 A 
ATOM      4  C   UNL     1       1.224   8.795  21.810  0.00  0.00    -0.040 A 
ATOM      5  C   UNL     1       1.246   8.697  20.420  0.00  0.00    +0.034 A 
ATOM      6  C   UNL     1       0.484   9.598  19.662  0.00  0.00    -0.036 A 
ATOM      7  H   UNL     1      -0.885  11.434  22.186  0.00  0.00    +0.062 HD
ATOM      8  H   UNL     1       0.449   9.850  23.520  0.00  0.00    +0.062 HD
ATOM      9  H   UNL     1       1.796   8.120  22.438  0.00  0.00    +0.064 HD
ATOM     10  H   UNL     1       0.509   9.533  18.577  0.00  0.00    +0.064 HD
ENDROOT
BRANCH   5  11
ATOM     11  N   UNL     1       1.995   7.739  19.717  0.00  0.00    -0.280 N 
ATOM     12  C   UNL     1       2.096   6.382  19.954  0.00  0.00    +0.267 C 
ATOM     13  O   UNL     1       1.545   5.738  20.839  0.00  0.00    -0.268 OA
ATOM     14  H   UNL     1       2.546   8.059  18.923  0.00  0.00    +0.155 HD
BRANCH  12  15
ATOM     15  C   UNL     1       2.998   5.690  18.973  0.00  0.00    +0.126 A 
ATOM     16  C   UNL     1       3.595   6.414  17.948  0.00  0.00    -0.023 A 
ATOM     17  C   UNL     1       4.430   5.739  17.052  0.00  0.00    -0.014 A 
ATOM     18  C   UNL     1       5.068   6.405  15.993  0.00  0.00    -0.054 A 
ATOM     19  C   UNL     1       5.898   5.709  15.112  0.00  0.00    -0.061 A 
ATOM     20  C   UNL     1       6.102   4.341  15.276  0.00  0.00    -0.061 A 
ATOM     21  C   UNL     1       5.476   3.664  16.324  0.00  0.00    -0.053 A 
ATOM     22  C   UNL     1       4.638   4.354  17.217  0.00  0.00    +0.000 A 
ATOM     23  C   UNL     1       3.986   3.726  18.282  0.00  0.00    +0.036 A 
ATOM     24  N   UNL     1       3.172   4.351  19.164  0.00  0.00    -0.250 NA
ATOM     25  H   UNL     1       3.410   7.480  17.856  0.00  0.00    +0.065 HD
ATOM     26  H   UNL     1       4.923   7.474  15.845  0.00  0.00    +0.062 HD
ATOM     27  H   UNL     1       6.386   6.236  14.295  0.00  0.00    +0.062 HD
ATOM     28  H   UNL     1       6.749   3.802  14.589  0.00  0.00    +0.062 HD
ATOM     29  H   UNL     1       5.646   2.595  16.438  0.00  0.00    +0.062 HD
ATOM     30  H   UNL     1       4.108   2.660  18.460  0.00  0.00    +0.084 HD
ENDBRANCH  12  15
ENDBRANCH   5  11
BRANCH   1  31
ATOM     31  C   UNL     1      -1.129  11.583  19.467  0.00  0.00    +0.035 C 
ATOM     32  H   UNL     1      -1.712  12.188  20.173  0.00  0.00    +0.046 HD
BRANCH  31  33
ATOM     33  C   UNL     1      -2.113  10.885  18.524  0.00  0.00    -0.049 C 
ATOM     34  H   UNL     1      -2.050  11.286  17.507  0.00  0.00    +0.024 HD
ATOM     35  H   UNL     1      -1.945   9.803  18.465  0.00  0.00    +0.024 HD
ATOM     36  H   UNL     1      -3.144  11.035  18.867  0.00  0.00    +0.024 HD
ENDBRANCH  31  33
BRANCH  31  37
ATOM     37  S   UNL     1      -0.017  12.704  18.529  0.00  0.00    -0.078 S 
BRANCH  37  38
ATOM     38  C   UNL     1       0.968  13.350  19.791  0.00  0.00    +0.192 A 
ATOM     39  N   UNL     1       2.216  13.044  20.061  0.00  0.00    -0.123 NA
ATOM     40  N   UNL     1       2.607  13.794  21.147  0.00  0.00    -0.137 NA
ATOM     41  C   UNL     1       1.585  14.538  21.502  0.00  0.00    +0.120 A 
ATOM     42  N   UNL     1       0.530  14.292  20.676  0.00  0.00    -0.312 N 
ATOM     43  H   UNL     1       1.565  15.243  22.322  0.00  0.00    +0.105 HD
BRANCH  42  44
ATOM     44  C   UNL     1      -0.762  14.918  20.746  0.00  0.00    +0.015 C 
ATOM     45  H   UNL     1      -1.189  14.961  19.741  0.00  0.00    +0.046 HD
ATOM     46  H   UNL     1      -0.655  15.934  21.138  0.00  0.00    +0.046 HD
ATOM     47  H   UNL     1      -1.400  14.336  21.415  0.00  0.00    +0.046 HD
ENDBRANCH  42  44
ENDBRANCH  37  38
ENDBRANCH  31  37
ENDBRANCH   1  31
TORSDOF 7
ENDMDL
MODEL 14
REMARK VINA RESULT:    -7.255      3.208      4.259
REMARK INTER + INTRA:         -10.348
REMARK INTER:                  -9.843
REMARK INTRA:                  -0.505
REMARK UNBOUND:                -0.548
REMARK  Name = 
REMARK  7 active torsions:
REMARK  status: ('A' for Active; 'I' for Inactive)
REMARK    1  A    between atoms: C_1  and  C_2
REMARK    2  A    between atoms: C_2  and  C_3
REMARK    3  A    between atoms: C_2  and  S_22
REMARK    4  A    between atoms: C_7  and  N_9
REMARK    5  A    between atoms: C_10  and  C_11
REMARK    6  A    between atoms: S_22  and  C_23
REMARK    7  A    between atoms: N_27  and  C_28
REMARK                            x       y       z     vdW  Elec       q    Type
REMARK                         _______ _______ _______ _____ _____    ______ ____
ROOT
ATOM      1  C   UNL     1      -0.161  10.499  20.791  0.00  0.00    -0.033 A 
ATOM      2  C   UNL     1      -1.032  10.987  19.807  0.00  0.00    -0.057 A 
ATOM      3  C   UNL     1      -0.898  10.589  18.478  0.00  0.00    -0.060 A 
ATOM      4  C   UNL     1       0.107   9.691  18.109  0.00  0.00    -0.040 A 
ATOM      5  C   UNL     1       0.983   9.183  19.068  0.00  0.00    +0.034 A 
ATOM      6  C   UNL     1       0.842   9.590  20.403  0.00  0.00    -0.036 A 
ATOM      7  H   UNL     1      -1.827  11.685  20.068  0.00  0.00    +0.062 HD
ATOM      8  H   UNL     1      -1.577  10.975  17.723  0.00  0.00    +0.062 HD
ATOM      9  H   UNL     1       0.179   9.406  17.065  0.00  0.00    +0.064 HD
ATOM     10  H   UNL     1       1.514   9.187  21.155  0.00  0.00    +0.064 HD
ENDROOT
BRANCH   5  11
ATOM     11  N   UNL     1       2.015   8.275  18.780  0.00  0.00    -0.280 N 
ATOM     12  C   UNL     1       2.308   7.079  19.406  0.00  0.00    +0.267 C 
ATOM     13  O   UNL     1       1.718   6.569  20.352  0.00  0.00    -0.268 OA
ATOM     14  H   UNL     1       2.644   8.502  18.013  0.00  0.00    +0.155 HD
BRANCH  12  15
ATOM     15  C   UNL     1       3.495   6.385  18.800  0.00  0.00    +0.126 A 
ATOM     16  C   UNL     1       3.793   6.566  17.455  0.00  0.00    -0.023 A 
ATOM     17  C   UNL     1       4.905   5.906  16.923  0.00  0.00    -0.014 A 
ATOM     18  C   UNL     1       5.268   6.043  15.573  0.00  0.00    -0.054 A 
ATOM     19  C   UNL     1       6.384   5.374  15.066  0.00  0.00    -0.061 A 
ATOM     20  C   UNL     1       7.151   4.563  15.898  0.00  0.00    -0.061 A 
ATOM     21  C   UNL     1       6.805   4.417  17.243  0.00  0.00    -0.053 A 
ATOM     22  C   UNL     1       5.683   5.085  17.764  0.00  0.00    +0.000 A 
ATOM     23  C   UNL     1       5.292   4.974  19.101  0.00  0.00    +0.036 A 
ATOM     24  N   UNL     1       4.220   5.598  19.644  0.00  0.00    -0.250 NA
ATOM     25  H   UNL     1       3.169   7.208  16.841  0.00  0.00    +0.065 HD
ATOM     26  H   UNL     1       4.682   6.671  14.904  0.00  0.00    +0.062 HD
ATOM     27  H   UNL     1       6.654   5.487  14.018  0.00  0.00    +0.062 HD
ATOM     28  H   UNL     1       8.019   4.043  15.500  0.00  0.00    +0.062 HD
ATOM     29  H   UNL     1       7.415   3.779  17.878  0.00  0.00    +0.062 HD
ATOM     30  H   UNL     1       5.853   4.355  19.798  0.00  0.00    +0.084 HD
ENDBRANCH  12  15
ENDBRANCH   5  11
BRANCH   1  31
ATOM     31  C   UNL     1      -0.334  10.946  22.236  0.00  0.00    +0.035 C 
ATOM     32  H   UNL     1       0.457  11.673  22.460  0.00  0.00    +0.046 HD
BRANCH  31  33
ATOM     33  C   UNL     1      -0.194   9.784  23.223  0.00  0.00    -0.049 C 
ATOM     34  H   UNL     1       0.803   9.333  23.178  0.00  0.00    +0.024 HD
ATOM     35  H   UNL     1      -0.374  10.088  24.261  0.00  0.00    +0.024 HD
ATOM     36  H   UNL     1      -0.917   8.993  22.988  0.00  0.00    +0.024 HD
ENDBRANCH  31  33
BRANCH  31  37
ATOM     37  S   UNL     1      -1.958  11.779  22.441  0.00  0.00    -0.078 S 
BRANCH  37  38
ATOM     38  C   UNL     1      -1.476  13.352  22.962  0.00  0.00    +0.192 A 
ATOM     39  N   UNL     1      -0.402  14.015  22.602  0.00  0.00    -0.123 NA
ATOM     40  N   UNL     1      -0.414  15.225  23.259  0.00  0.00    -0.137 NA
ATOM     41  C   UNL     1      -1.500  15.263  23.997  0.00  0.00    +0.120 A 
ATOM     42  N   UNL     1      -2.201  14.104  23.841  0.00  0.00    -0.312 N 
ATOM     43  H   UNL     1      -1.808  16.080  24.635  0.00  0.00    +0.105 HD
BRANCH  42  44
ATOM     44  C   UNL     1      -3.445  13.777  24.481  0.00  0.00    +0.015 C 
ATOM     45  H   UNL     1      -3.866  12.890  24.001  0.00  0.00    +0.046 HD
ATOM     46  H   UNL     1      -4.142  14.613  24.374  0.00  0.00    +0.046 HD
ATOM     47  H   UNL     1      -3.258  13.595  25.542  0.00  0.00    +0.046 HD
ENDBRANCH  42  44
ENDBRANCH  37  38
ENDBRANCH  31  37
ENDBRANCH   1  31
TORSDOF 7
ENDMDL
MODEL 15
REMARK VINA RESULT:    -7.248      1.636      2.465
REMARK INTER + INTRA:         -10.339
REMARK INTER:                  -9.993
REMARK INTRA:                  -0.346
REMARK UNBOUND:                -0.548
REMARK  Name = 
REMARK  7 active torsions:
REMARK  status: ('A' for Active; 'I' for Inactive)
REMARK    1  A    between atoms: C_1  and  C_2
REMARK    2  A    between atoms: C_2  and  C_3
REMARK    3  A    between atoms: C_2  and  S_22
REMARK    4  A    between atoms: C_7  and  N_9
REMARK    5  A    between atoms: C_10  and  C_11
REMARK    6  A    between atoms: S_22  and  C_23
REMARK    7  A    between atoms: N_27  and  C_28
REMARK                            x       y       z     vdW  Elec       q    Type
REMARK                         _______ _______ _______ _____ _____    ______ ____
ROOT
ATOM      1  C   UNL     1      -0.458  11.147  20.983  0.00  0.00    -0.033 A 
ATOM      2  C   UNL     1      -0.699  11.116  22.364  0.00  0.00    -0.057 A 
ATOM      3  C   UNL     1      -0.315  10.015  23.128  0.00  0.00    -0.060 A 
ATOM      4  C   UNL     1       0.322   8.927  22.527  0.00  0.00    -0.040 A 
ATOM      5  C   UNL     1       0.583   8.934  21.158  0.00  0.00    +0.034 A 
ATOM      6  C   UNL     1       0.192  10.045  20.396  0.00  0.00    -0.036 A 
ATOM      7  H   UNL     1      -1.191  11.953  22.859  0.00  0.00    +0.062 HD
ATOM      8  H   UNL     1      -0.509  10.000  24.197  0.00  0.00    +0.062 HD
ATOM      9  H   UNL     1       0.605   8.090  23.156  0.00  0.00    +0.064 HD
ATOM     10  H   UNL     1       0.405  10.059  19.330  0.00  0.00    +0.064 HD
ENDROOT
BRANCH   5  11
ATOM     11  N   UNL     1       1.223   7.884  20.479  0.00  0.00    -0.280 N 
ATOM     12  C   UNL     1       1.972   7.938  19.320  0.00  0.00    +0.267 C 
ATOM     13  O   UNL     1       2.228   8.928  18.645  0.00  0.00    -0.268 OA
ATOM     14  H   UNL     1       1.140   6.948  20.871  0.00  0.00    +0.155 HD
BRANCH  12  15
ATOM     15  C   UNL     1       2.499   6.593  18.909  0.00  0.00    +0.126 A 
ATOM     16  C   UNL     1       1.887   5.435  19.375  0.00  0.00    -0.023 A 
ATOM     17  C   UNL     1       2.401   4.199  18.972  0.00  0.00    -0.014 A 
ATOM     18  C   UNL     1       1.834   2.988  19.403  0.00  0.00    -0.054 A 
ATOM     19  C   UNL     1       2.366   1.766  18.985  0.00  0.00    -0.061 A 
ATOM     20  C   UNL     1       3.468   1.737  18.135  0.00  0.00    -0.061 A 
ATOM     21  C   UNL     1       4.043   2.932  17.697  0.00  0.00    -0.053 A 
ATOM     22  C   UNL     1       3.517   4.168  18.111  0.00  0.00    +0.000 A 
ATOM     23  C   UNL     1       4.053   5.392  17.704  0.00  0.00    +0.036 A 
ATOM     24  N   UNL     1       3.579   6.603  18.078  0.00  0.00    -0.250 NA
ATOM     25  H   UNL     1       1.028   5.503  20.037  0.00  0.00    +0.065 HD
ATOM     26  H   UNL     1       0.972   2.987  20.068  0.00  0.00    +0.062 HD
ATOM     27  H   UNL     1       1.918   0.836  19.326  0.00  0.00    +0.062 HD
ATOM     28  H   UNL     1       3.880   0.784  17.812  0.00  0.00    +0.062 HD
ATOM     29  H   UNL     1       4.903   2.890  17.033  0.00  0.00    +0.062 HD
ATOM     30  H   UNL     1       4.914   5.431  17.039  0.00  0.00    +0.084 HD
ENDBRANCH  12  15
ENDBRANCH   5  11
BRANCH   1  31
ATOM     31  C   UNL     1      -0.882  12.364  20.174  0.00  0.00    +0.035 C 
ATOM     32  H   UNL     1      -0.343  12.337  19.219  0.00  0.00    +0.046 HD
BRANCH  31  33
ATOM     33  C   UNL     1      -0.528  13.679  20.874  0.00  0.00    -0.049 C 
ATOM     34  H   UNL     1      -0.108  13.505  21.871  0.00  0.00    +0.024 HD
ATOM     35  H   UNL     1       0.197  14.276  20.309  0.00  0.00    +0.024 HD
ATOM     36  H   UNL     1      -1.425  14.296  21.005  0.00  0.00    +0.024 HD
ENDBRANCH  31  33
BRANCH  31  37
ATOM     37  S   UNL     1      -2.682  12.282  19.822  0.00  0.00    -0.078 S 
BRANCH  37  38
ATOM     38  C   UNL     1      -2.698  11.522  18.272  0.00  0.00    +0.192 A 
ATOM     39  N   UNL     1      -1.687  10.956  17.654  0.00  0.00    -0.123 NA
ATOM     40  N   UNL     1      -2.146  10.480  16.446  0.00  0.00    -0.137 NA
ATOM     41  C   UNL     1      -3.425  10.769  16.368  0.00  0.00    +0.120 A 
ATOM     42  N   UNL     1      -3.817  11.425  17.496  0.00  0.00    -0.312 N 
ATOM     43  H   UNL     1      -4.082  10.530  15.543  0.00  0.00    +0.105 HD
BRANCH  42  44
ATOM     44  C   UNL     1      -5.144  11.899  17.781  0.00  0.00    +0.015 C 
ATOM     45  H   UNL     1      -5.851  11.080  17.630  0.00  0.00    +0.046 HD
ATOM     46  H   UNL     1      -5.391  12.722  17.105  0.00  0.00    +0.046 HD
ATOM     47  H   UNL     1      -5.176  12.256  18.814  0.00  0.00    +0.046 HD
ENDBRANCH  42  44
ENDBRANCH  37  38
ENDBRANCH  31  37
ENDBRANCH   1  31
TORSDOF 7
ENDMDL
MODEL 16
REMARK VINA RESULT:    -7.219      3.919      9.748
REMARK INTER + INTRA:         -10.299
REMARK INTER:                  -9.866
REMARK INTRA:                  -0.433
REMARK UNBOUND:                -0.548
REMARK  Name = 
REMARK  7 active torsions:
REMARK  status: ('A' for Active; 'I' for Inactive)
REMARK    1  A    between atoms: C_1  and  C_2
REMARK    2  A    between atoms: C_2  and  C_3
REMARK    3  A    between atoms: C_2  and  S_22
REMARK    4  A    between atoms: C_7  and  N_9
REMARK    5  A    between atoms: C_10  and  C_11
REMARK    6  A    between atoms: S_22  and  C_23
REMARK    7  A    between atoms: N_27  and  C_28
REMARK                            x       y       z     vdW  Elec       q    Type
REMARK                         _______ _______ _______ _____ _____    ______ ____
ROOT
ATOM      1  C   UNL     1       2.203   7.372  19.529  0.00  0.00    -0.033 A 
ATOM      2  C   UNL     1       2.354   7.548  18.146  0.00  0.00    -0.057 A 
ATOM      3  C   UNL     1       1.885   8.703  17.522  0.00  0.00    -0.060 A 
ATOM      4  C   UNL     1       1.262   9.706  18.269  0.00  0.00    -0.040 A 
ATOM      5  C   UNL     1       1.107   9.561  19.647  0.00  0.00    +0.034 A 
ATOM      6  C   UNL     1       1.579   8.396  20.267  0.00  0.00    -0.036 A 
ATOM      7  H   UNL     1       2.839   6.784  17.541  0.00  0.00    +0.062 HD
ATOM      8  H   UNL     1       2.005   8.829  16.449  0.00  0.00    +0.062 HD
ATOM      9  H   UNL     1       0.912  10.589  17.746  0.00  0.00    +0.064 HD
ATOM     10  H   UNL     1       1.471   8.285  21.343  0.00  0.00    +0.064 HD
ENDROOT
BRANCH   5  11
ATOM     11  N   UNL     1       0.497  10.524  20.469  0.00  0.00    -0.280 N 
ATOM     12  C   UNL     1       0.883  11.830  20.697  0.00  0.00    +0.267 C 
ATOM     13  O   UNL     1       1.850  12.414  20.223  0.00  0.00    -0.268 OA
ATOM     14  H   UNL     1      -0.343  10.250  20.975  0.00  0.00    +0.155 HD
BRANCH  12  15
ATOM     15  C   UNL     1      -0.036  12.548  21.643  0.00  0.00    +0.126 A 
ATOM     16  C   UNL     1      -1.144  11.892  22.167  0.00  0.00    -0.023 A 
ATOM     17  C   UNL     1      -1.980  12.589  23.045  0.00  0.00    -0.014 A 
ATOM     18  C   UNL     1      -3.116  11.991  23.613  0.00  0.00    -0.054 A 
ATOM     19  C   UNL     1      -3.934  12.708  24.489  0.00  0.00    -0.061 A 
ATOM     20  C   UNL     1      -3.629  14.029  24.807  0.00  0.00    -0.061 A 
ATOM     21  C   UNL     1      -2.503  14.638  24.251  0.00  0.00    -0.053 A 
ATOM     22  C   UNL     1      -1.672  13.926  23.368  0.00  0.00    +0.000 A 
ATOM     23  C   UNL     1      -0.534  14.488  22.784  0.00  0.00    +0.036 A 
ATOM     24  N   UNL     1       0.292  13.840  21.930  0.00  0.00    -0.250 NA
ATOM     25  H   UNL     1      -1.345  10.861  21.893  0.00  0.00    +0.065 HD
ATOM     26  H   UNL     1      -3.374  10.959  23.378  0.00  0.00    +0.062 HD
ATOM     27  H   UNL     1      -4.812  12.233  24.922  0.00  0.00    +0.062 HD
ATOM     28  H   UNL     1      -4.269  14.585  25.489  0.00  0.00    +0.062 HD
ATOM     29  H   UNL     1      -2.280  15.671  24.511  0.00  0.00    +0.062 HD
ATOM     30  H   UNL     1      -0.246  15.515  22.996  0.00  0.00    +0.084 HD
ENDBRANCH  12  15
ENDBRANCH   5  11
BRANCH   1  31
ATOM     31  C   UNL     1       2.729   6.104  20.186  0.00  0.00    +0.035 C 
ATOM     32  H   UNL     1       3.081   6.368  21.191  0.00  0.00    +0.046 HD
BRANCH  31  33
ATOM     33  C   UNL     1       3.909   5.500  19.420  0.00  0.00    -0.049 C 
ATOM     34  H   UNL     1       4.288   6.187  18.656  0.00  0.00    +0.024 HD
ATOM     35  H   UNL     1       4.747   5.237  20.075  0.00  0.00    +0.024 HD
ATOM     36  H   UNL     1       3.601   4.583  18.903  0.00  0.00    +0.024 HD
ENDBRANCH  31  33
BRANCH  31  37
ATOM     37  S   UNL     1       1.371   4.879  20.354  0.00  0.00    -0.078 S 
BRANCH  37  38
ATOM     38  C   UNL     1       1.931   3.600  19.340  0.00  0.00    +0.192 A 
ATOM     39  N   UNL     1       1.728   3.460  18.050  0.00  0.00    -0.123 NA
ATOM     40  N   UNL     1       2.351   2.300  17.650  0.00  0.00    -0.137 NA
ATOM     41  C   UNL     1       2.919   1.770  18.709  0.00  0.00    +0.120 A 
ATOM     42  N   UNL     1       2.681   2.555  19.798  0.00  0.00    -0.312 N 
ATOM     43  H   UNL     1       3.491   0.853  18.733  0.00  0.00    +0.105 HD
BRANCH  42  44
ATOM     44  C   UNL     1       3.144   2.308  21.135  0.00  0.00    +0.015 C 
ATOM     45  H   UNL     1       2.458   2.783  21.840  0.00  0.00    +0.046 HD
ATOM     46  H   UNL     1       4.144   2.732  21.260  0.00  0.00    +0.046 HD
ATOM     47  H   UNL     1       3.186   1.228  21.300  0.00  0.00    +0.046 HD
ENDBRANCH  42  44
ENDBRANCH  37  38
ENDBRANCH  31  37
ENDBRANCH   1  31
TORSDOF 7
ENDMDL
MODEL 17
REMARK VINA RESULT:    -7.194      3.660      9.198
REMARK INTER + INTRA:         -10.266
REMARK INTER:                  -9.923
REMARK INTRA:                  -0.343
REMARK UNBOUND:                -0.548
REMARK  Name = 
REMARK  7 active torsions:
REMARK  status: ('A' for Active; 'I' for Inactive)
REMARK    1  A    between atoms: C_1  and  C_2
REMARK    2  A    between atoms: C_2  and  C_3
REMARK    3  A    between atoms: C_2  and  S_22
REMARK    4  A    between atoms: C_7  and  N_9
REMARK    5  A    between atoms: C_10  and  C_11
REMARK    6  A    between atoms: S_22  and  C_23
REMARK    7  A    between atoms: N_27  and  C_28
REMARK                            x       y       z     vdW  Elec       q    Type
REMARK                         _______ _______ _______ _____ _____    ______ ____
ROOT
ATOM      1  C   UNL     1       2.956   3.827  18.895  0.00  0.00    -0.033 A 
ATOM      2  C   UNL     1       3.027   2.755  19.797  0.00  0.00    -0.057 A 
ATOM      3  C   UNL     1       2.548   2.889  21.099  0.00  0.00    -0.060 A 
ATOM      4  C   UNL     1       1.984   4.096  21.522  0.00  0.00    -0.040 A 
ATOM      5  C   UNL     1       1.892   5.175  20.645  0.00  0.00    +0.034 A 
ATOM      6  C   UNL     1       2.378   5.032  19.337  0.00  0.00    -0.036 A 
ATOM      7  H   UNL     1       3.458   1.802  19.491  0.00  0.00    +0.062 HD
ATOM      8  H   UNL     1       2.609   2.054  21.791  0.00  0.00    +0.062 HD
ATOM      9  H   UNL     1       1.622   4.160  22.543  0.00  0.00    +0.064 HD
ATOM     10  H   UNL     1       2.297   5.868  18.646  0.00  0.00    +0.064 HD
ENDROOT
BRANCH   5  11
ATOM     11  N   UNL     1       1.336   6.417  20.991  0.00  0.00    -0.280 N 
ATOM     12  C   UNL     1       1.561   7.652  20.413  0.00  0.00    +0.267 C 
ATOM     13  O   UNL     1       2.303   7.910  19.473  0.00  0.00    -0.268 OA
ATOM     14  H   UNL     1       0.676   6.441  21.765  0.00  0.00    +0.155 HD
BRANCH  12  15
ATOM     15  C   UNL     1       0.769   8.749  21.066  0.00  0.00    +0.126 A 
ATOM     16  C   UNL     1       0.118   9.695  20.284  0.00  0.00    -0.023 A 
ATOM     17  C   UNL     1      -0.611  10.703  20.923  0.00  0.00    -0.014 A 
ATOM     18  C   UNL     1      -1.294  11.692  20.197  0.00  0.00    -0.054 A 
ATOM     19  C   UNL     1      -2.017  12.688  20.860  0.00  0.00    -0.061 A 
ATOM     20  C   UNL     1      -2.066  12.708  22.251  0.00  0.00    -0.061 A 
ATOM     21  C   UNL     1      -1.392  11.731  22.987  0.00  0.00    -0.053 A 
ATOM     22  C   UNL     1      -0.662  10.724  22.331  0.00  0.00    +0.000 A 
ATOM     23  C   UNL     1       0.030   9.723  23.019  0.00  0.00    +0.036 A 
ATOM     24  N   UNL     1       0.745   8.737  22.429  0.00  0.00    -0.250 NA
ATOM     25  H   UNL     1       0.182   9.643  19.201  0.00  0.00    +0.065 HD
ATOM     26  H   UNL     1      -1.269  11.697  19.109  0.00  0.00    +0.062 HD
ATOM     27  H   UNL     1      -2.541  13.449  20.287  0.00  0.00    +0.062 HD
ATOM     28  H   UNL     1      -2.629  13.484  22.764  0.00  0.00    +0.062 HD
ATOM     29  H   UNL     1      -1.442  11.761  24.073  0.00  0.00    +0.062 HD
ATOM     30  H   UNL     1       0.027   9.688  24.106  0.00  0.00    +0.084 HD
ENDBRANCH  12  15
ENDBRANCH   5  11
BRANCH   1  31
ATOM     31  C   UNL     1       3.481   3.651  17.478  0.00  0.00    +0.035 C 
ATOM     32  H   UNL     1       2.626   3.425  16.828  0.00  0.00    +0.046 HD
BRANCH  31  33
ATOM     33  C   UNL     1       4.475   2.491  17.366  0.00  0.00    -0.049 C 
ATOM     34  H   UNL     1       4.201   1.803  16.560  0.00  0.00    +0.024 HD
ATOM     35  H   UNL     1       5.500   2.831  17.179  0.00  0.00    +0.024 HD
ATOM     36  H   UNL     1       4.490   1.910  18.296  0.00  0.00    +0.024 HD
ENDBRANCH  31  33
BRANCH  31  37
ATOM     37  S   UNL     1       4.245   5.217  16.898  0.00  0.00    -0.078 S 
BRANCH  37  38
ATOM     38  C   UNL     1       5.728   5.226  17.781  0.00  0.00    +0.192 A 
ATOM     39  N   UNL     1       5.894   5.505  19.053  0.00  0.00    -0.123 NA
ATOM     40  N   UNL     1       7.237   5.391  19.337  0.00  0.00    -0.137 NA
ATOM     41  C   UNL     1       7.847   5.043  18.227  0.00  0.00    +0.120 A 
ATOM     42  N   UNL     1       6.937   4.926  17.220  0.00  0.00    -0.312 N 
ATOM     43  H   UNL     1       8.909   4.870  18.112  0.00  0.00    +0.105 HD
BRANCH  42  44
ATOM     44  C   UNL     1       7.222   4.556  15.861  0.00  0.00    +0.015 C 
ATOM     45  H   UNL     1       8.134   5.065  15.541  0.00  0.00    +0.046 HD
ATOM     46  H   UNL     1       6.392   4.861  15.218  0.00  0.00    +0.046 HD
ATOM     47  H   UNL     1       7.341   3.471  15.810  0.00  0.00    +0.046 HD
ENDBRANCH  42  44
ENDBRANCH  37  38
ENDBRANCH  31  37
ENDBRANCH   1  31
TORSDOF 7
ENDMDL
MODEL 18
REMARK VINA RESULT:    -7.154      2.839      4.029
REMARK INTER + INTRA:         -10.211
REMARK INTER:                  -9.933
REMARK INTRA:                  -0.278
REMARK UNBOUND:                -0.548
REMARK  Name = 
REMARK  7 active torsions:
REMARK  status: ('A' for Active; 'I' for Inactive)
REMARK    1  A    between atoms: C_1  and  C_2
REMARK    2  A    between atoms: C_2  and  C_3
REMARK    3  A    between atoms: C_2  and  S_22
REMARK    4  A    between atoms: C_7  and  N_9
REMARK    5  A    between atoms: C_10  and  C_11
REMARK    6  A    between atoms: S_22  and  C_23
REMARK    7  A    between atoms: N_27  and  C_28
REMARK                            x       y       z     vdW  Elec       q    Type
REMARK                         _______ _______ _______ _____ _____    ______ ____
ROOT
ATOM      1  C   UNL     1      -0.492  11.214  21.053  0.00  0.00    -0.033 A 
ATOM      2  C   UNL     1      -0.718  10.985  22.417  0.00  0.00    -0.057 A 
ATOM      3  C   UNL     1      -0.233   9.833  23.034  0.00  0.00    -0.060 A 
ATOM      4  C   UNL     1       0.493   8.892  22.299  0.00  0.00    -0.040 A 
ATOM      5  C   UNL     1       0.740   9.097  20.943  0.00  0.00    +0.034 A 
ATOM      6  C   UNL     1       0.247  10.258  20.330  0.00  0.00    -0.036 A 
ATOM      7  H   UNL     1      -1.277  11.704  23.014  0.00  0.00    +0.062 HD
ATOM      8  H   UNL     1      -0.415   9.663  24.092  0.00  0.00    +0.062 HD
ATOM      9  H   UNL     1       0.853   8.009  22.816  0.00  0.00    +0.064 HD
ATOM     10  H   UNL     1       0.448  10.428  19.275  0.00  0.00    +0.064 HD
ENDROOT
BRANCH   5  11
ATOM     11  N   UNL     1       1.463   8.203  20.137  0.00  0.00    -0.280 N 
ATOM     12  C   UNL     1       2.008   8.420  18.886  0.00  0.00    +0.267 C 
ATOM     13  O   UNL     1       1.964   9.450  18.223  0.00  0.00    -0.268 OA
ATOM     14  H   UNL     1       1.623   7.264  20.497  0.00  0.00    +0.155 HD
BRANCH  12  15
ATOM     15  C   UNL     1       2.718   7.211  18.347  0.00  0.00    +0.126 A 
ATOM     16  C   UNL     1       3.700   7.359  17.375  0.00  0.00    -0.023 A 
ATOM     17  C   UNL     1       4.343   6.213  16.895  0.00  0.00    -0.014 A 
ATOM     18  C   UNL     1       5.345   6.285  15.914  0.00  0.00    -0.054 A 
ATOM     19  C   UNL     1       5.972   5.126  15.452  0.00  0.00    -0.061 A 
ATOM     20  C   UNL     1       5.607   3.883  15.962  0.00  0.00    -0.061 A 
ATOM     21  C   UNL     1       4.613   3.793  16.938  0.00  0.00    -0.053 A 
ATOM     22  C   UNL     1       3.975   4.954  17.411  0.00  0.00    +0.000 A 
ATOM     23  C   UNL     1       2.973   4.921  18.386  0.00  0.00    +0.036 A 
ATOM     24  N   UNL     1       2.333   6.012  18.868  0.00  0.00    -0.250 NA
ATOM     25  H   UNL     1       3.955   8.347  17.005  0.00  0.00    +0.065 HD
ATOM     26  H   UNL     1       5.646   7.246  15.501  0.00  0.00    +0.062 HD
ATOM     27  H   UNL     1       6.747   5.195  14.692  0.00  0.00    +0.062 HD
ATOM     28  H   UNL     1       6.098   2.982  15.600  0.00  0.00    +0.062 HD
ATOM     29  H   UNL     1       4.341   2.814  17.326  0.00  0.00    +0.062 HD
ATOM     30  H   UNL     1       2.648   3.979  18.821  0.00  0.00    +0.084 HD
ENDBRANCH  12  15
ENDBRANCH   5  11
BRANCH   1  31
ATOM     31  C   UNL     1      -1.028  12.483  20.405  0.00  0.00    +0.035 C 
ATOM     32  H   UNL     1      -1.089  13.256  21.181  0.00  0.00    +0.046 HD
BRANCH  31  33
ATOM     33  C   UNL     1      -2.433  12.289  19.825  0.00  0.00    -0.049 C 
ATOM     34  H   UNL     1      -2.462  12.522  18.756  0.00  0.00    +0.024 HD
ATOM     35  H   UNL     1      -2.805  11.266  19.952  0.00  0.00    +0.024 HD
ATOM     36  H   UNL     1      -3.147  12.958  20.321  0.00  0.00    +0.024 HD
ENDBRANCH  31  33
BRANCH  31  37
ATOM     37  S   UNL     1       0.135  13.059  19.107  0.00  0.00    -0.078 S 
BRANCH  37  38
ATOM     38  C   UNL     1       1.362  13.819  20.054  0.00  0.00    +0.192 A 
ATOM     39  N   UNL     1       1.290  14.165  21.318  0.00  0.00    -0.123 NA
ATOM     40  N   UNL     1       2.493  14.739  21.666  0.00  0.00    -0.137 NA
ATOM     41  C   UNL     1       3.262  14.720  20.601  0.00  0.00    +0.120 A 
ATOM     42  N   UNL     1       2.592  14.149  19.561  0.00  0.00    -0.312 N 
ATOM     43  H   UNL     1       4.275  15.095  20.541  0.00  0.00    +0.105 HD
BRANCH  42  44
ATOM     44  C   UNL     1       3.105  13.946  18.234  0.00  0.00    +0.015 C 
ATOM     45  H   UNL     1       4.181  13.764  18.296  0.00  0.00    +0.046 HD
ATOM     46  H   UNL     1       2.922  14.840  17.631  0.00  0.00    +0.046 HD
ATOM     47  H   UNL     1       2.590  13.094  17.784  0.00  0.00    +0.046 HD
ENDBRANCH  42  44
ENDBRANCH  37  38
ENDBRANCH  31  37
ENDBRANCH   1  31
TORSDOF 7
ENDMDL
MODEL 19
REMARK VINA RESULT:    -7.121      2.819      4.336
REMARK INTER + INTRA:         -10.167
REMARK INTER:                  -9.564
REMARK INTRA:                  -0.603
REMARK UNBOUND:                -0.548
REMARK  Name = 
REMARK  7 active torsions:
REMARK  status: ('A' for Active; 'I' for Inactive)
REMARK    1  A    between atoms: C_1  and  C_2
REMARK    2  A    between atoms: C_2  and  C_3
REMARK    3  A    between atoms: C_2  and  S_22
REMARK    4  A    between atoms: C_7  and  N_9
REMARK    5  A    between atoms: C_10  and  C_11
REMARK    6  A    between atoms: S_22  and  C_23
REMARK    7  A    between atoms: N_27  and  C_28
REMARK                            x       y       z     vdW  Elec       q    Type
REMARK                         _______ _______ _______ _____ _____    ______ ____
ROOT
ATOM      1  C   UNL     1      -0.690  11.659  19.227  0.00  0.00    -0.033 A 
ATOM      2  C   UNL     1       0.118  12.773  18.957  0.00  0.00    -0.057 A 
ATOM      3  C   UNL     1       1.446  12.611  18.568  0.00  0.00    -0.060 A 
ATOM      4  C   UNL     1       1.991  11.331  18.437  0.00  0.00    -0.040 A 
ATOM      5  C   UNL     1       1.210  10.205  18.690  0.00  0.00    +0.034 A 
ATOM      6  C   UNL     1      -0.126  10.377  19.082  0.00  0.00    -0.036 A 
ATOM      7  H   UNL     1      -0.283  13.782  19.048  0.00  0.00    +0.062 HD
ATOM      8  H   UNL     1       2.064  13.481  18.363  0.00  0.00    +0.062 HD
ATOM      9  H   UNL     1       3.029  11.246  18.132  0.00  0.00    +0.064 HD
ATOM     10  H   UNL     1      -0.742   9.501  19.269  0.00  0.00    +0.064 HD
ENDROOT
BRANCH   5  11
ATOM     11  N   UNL     1       1.680   8.886  18.576  0.00  0.00    -0.280 N 
ATOM     12  C   UNL     1       1.913   7.966  19.580  0.00  0.00    +0.267 C 
ATOM     13  O   UNL     1       1.756   8.123  20.785  0.00  0.00    -0.268 OA
ATOM     14  H   UNL     1       1.883   8.535  17.643  0.00  0.00    +0.155 HD
BRANCH  12  15
ATOM     15  C   UNL     1       2.412   6.651  19.054  0.00  0.00    +0.126 A 
ATOM     16  C   UNL     1       1.927   5.461  19.584  0.00  0.00    -0.023 A 
ATOM     17  C   UNL     1       2.412   4.254  19.072  0.00  0.00    -0.014 A 
ATOM     18  C   UNL     1       1.967   3.014  19.558  0.00  0.00    -0.054 A 
ATOM     19  C   UNL     1       2.467   1.822  19.029  0.00  0.00    -0.061 A 
ATOM     20  C   UNL     1       3.415   1.853  18.009  0.00  0.00    -0.061 A 
ATOM     21  C   UNL     1       3.867   3.077  17.514  0.00  0.00    -0.053 A 
ATOM     22  C   UNL     1       3.372   4.284  18.039  0.00  0.00    +0.000 A 
ATOM     23  C   UNL     1       3.790   5.536  17.581  0.00  0.00    +0.036 A 
ATOM     24  N   UNL     1       3.341   6.720  18.058  0.00  0.00    -0.250 NA
ATOM     25  H   UNL     1       1.187   5.482  20.379  0.00  0.00    +0.065 HD
ATOM     26  H   UNL     1       1.228   2.966  20.355  0.00  0.00    +0.062 HD
ATOM     27  H   UNL     1       2.115   0.868  19.414  0.00  0.00    +0.062 HD
ATOM     28  H   UNL     1       3.802   0.923  17.599  0.00  0.00    +0.062 HD
ATOM     29  H   UNL     1       4.608   3.083  16.717  0.00  0.00    +0.062 HD
ATOM     30  H   UNL     1       4.528   5.622  16.786  0.00  0.00    +0.084 HD
ENDBRANCH  12  15
ENDBRANCH   5  11
BRANCH   1  31
ATOM     31  C   UNL     1      -2.138  11.865  19.644  0.00  0.00    +0.035 C 
ATOM     32  H   UNL     1      -2.391  11.088  20.376  0.00  0.00    +0.046 HD
BRANCH  31  33
ATOM     33  C   UNL     1      -3.106  11.731  18.465  0.00  0.00    -0.049 C 
ATOM     34  H   UNL     1      -3.993  12.360  18.598  0.00  0.00    +0.024 HD
ATOM     35  H   UNL     1      -2.647  12.005  17.509  0.00  0.00    +0.024 HD
ATOM     36  H   UNL     1      -3.456  10.696  18.372  0.00  0.00    +0.024 HD
ENDBRANCH  31  33
BRANCH  31  37
ATOM     37  S   UNL     1      -2.327  13.502  20.455  0.00  0.00    -0.078 S 
BRANCH  37  38
ATOM     38  C   UNL     1      -3.172  13.078  21.899  0.00  0.00    +0.192 A 
ATOM     39  N   UNL     1      -4.421  13.349  22.198  0.00  0.00    -0.123 NA
ATOM     40  N   UNL     1      -4.678  12.826  23.446  0.00  0.00    -0.137 NA
ATOM     41  C   UNL     1      -3.576  12.248  23.866  0.00  0.00    +0.120 A 
ATOM     42  N   UNL     1      -2.600  12.381  22.924  0.00  0.00    -0.312 N 
ATOM     43  H   UNL     1      -3.444  11.739  24.812  0.00  0.00    +0.105 HD
BRANCH  42  44
ATOM     44  C   UNL     1      -1.258  11.875  23.020  0.00  0.00    +0.015 C 
ATOM     45  H   UNL     1      -0.903  11.624  22.017  0.00  0.00    +0.046 HD
ATOM     46  H   UNL     1      -1.251  10.976  23.643  0.00  0.00    +0.046 HD
ATOM     47  H   UNL     1      -0.625  12.639  23.478  0.00  0.00    +0.046 HD
ENDBRANCH  42  44
ENDBRANCH  37  38
ENDBRANCH  31  37
ENDBRANCH   1  31
TORSDOF 7
ENDMDL
MODEL 20
REMARK VINA RESULT:    -7.114      3.531      5.104
REMARK INTER + INTRA:         -10.157
REMARK INTER:                  -9.426
REMARK INTRA:                  -0.732
REMARK UNBOUND:                -0.548
REMARK  Name = 
REMARK  7 active torsions:
REMARK  status: ('A' for Active; 'I' for Inactive)
REMARK    1  A    between atoms: C_1  and  C_2
REMARK    2  A    between atoms: C_2  and  C_3
REMARK    3  A    between atoms: C_2  and  S_22
REMARK    4  A    between atoms: C_7  and  N_9
REMARK    5  A    between atoms: C_10  and  C_11
REMARK    6  A    between atoms: S_22  and  C_23
REMARK    7  A    between atoms: N_27  and  C_28
REMARK                            x       y       z     vdW  Elec       q    Type
REMARK                         _______ _______ _______ _____ _____    ______ ____
ROOT
ATOM      1  C   UNL     1       0.554  12.401  19.221  0.00  0.00    -0.033 A 
ATOM      2  C   UNL     1      -0.830  12.426  18.994  0.00  0.00    -0.057 A 
ATOM      3  C   UNL     1      -1.492  11.296  18.515  0.00  0.00    -0.060 A 
ATOM      4  C   UNL     1      -0.784  10.119  18.259  0.00  0.00    -0.040 A 
ATOM      5  C   UNL     1       0.591  10.063  18.483  0.00  0.00    +0.034 A 
ATOM      6  C   UNL     1       1.250  11.204  18.964  0.00  0.00    -0.036 A 
ATOM      7  H   UNL     1      -1.406  13.329  19.190  0.00  0.00    +0.062 HD
ATOM      8  H   UNL     1      -2.564  11.326  18.341  0.00  0.00    +0.062 HD
ATOM      9  H   UNL     1      -1.335   9.263  17.887  0.00  0.00    +0.064 HD
ATOM     10  H   UNL     1       2.320  11.160  19.152  0.00  0.00    +0.064 HD
ENDROOT
BRANCH   5  11
ATOM     11  N   UNL     1       1.373   8.918  18.256  0.00  0.00    -0.280 N 
ATOM     12  C   UNL     1       1.895   8.035  19.181  0.00  0.00    +0.267 C 
ATOM     13  O   UNL     1       1.779   8.078  20.400  0.00  0.00    -0.268 OA
ATOM     14  H   UNL     1       1.600   8.684  17.291  0.00  0.00    +0.155 HD
BRANCH  12  15
ATOM     15  C   UNL     1       2.678   6.924  18.541  0.00  0.00    +0.126 A 
ATOM     16  C   UNL     1       3.607   7.212  17.548  0.00  0.00    -0.023 A 
ATOM     17  C   UNL     1       4.320   6.155  16.973  0.00  0.00    -0.014 A 
ATOM     18  C   UNL     1       5.274   6.370  15.965  0.00  0.00    -0.054 A 
ATOM     19  C   UNL     1       5.973   5.298  15.408  0.00  0.00    -0.061 A 
ATOM     20  C   UNL     1       5.730   4.000  15.849  0.00  0.00    -0.061 A 
ATOM     21  C   UNL     1       4.785   3.768  16.851  0.00  0.00    -0.053 A 
ATOM     22  C   UNL     1       4.075   4.840  17.419  0.00  0.00    +0.000 A 
ATOM     23  C   UNL     1       3.118   4.665  18.423  0.00  0.00    +0.036 A 
ATOM     24  N   UNL     1       2.412   5.667  18.996  0.00  0.00    -0.250 NA
ATOM     25  H   UNL     1       3.766   8.239  17.233  0.00  0.00    +0.065 HD
ATOM     26  H   UNL     1       5.479   7.377  15.605  0.00  0.00    +0.062 HD
ATOM     27  H   UNL     1       6.709   5.477  14.628  0.00  0.00    +0.062 HD
ATOM     28  H   UNL     1       6.276   3.166  15.413  0.00  0.00    +0.062 HD
ATOM     29  H   UNL     1       4.608   2.748  17.183  0.00  0.00    +0.062 HD
ATOM     30  H   UNL     1       2.887   3.674  18.807  0.00  0.00    +0.084 HD
ENDBRANCH  12  15
ENDBRANCH   5  11
BRANCH   1  31
ATOM     31  C   UNL     1       1.251  13.646  19.749  0.00  0.00    +0.035 C 
ATOM     32  H   UNL     1       1.737  13.382  20.696  0.00  0.00    +0.046 HD
BRANCH  31  33
ATOM     33  C   UNL     1       0.268  14.786  20.029  0.00  0.00    -0.049 C 
ATOM     34  H   UNL     1      -0.209  15.142  19.110  0.00  0.00    +0.024 HD
ATOM     35  H   UNL     1      -0.528  14.496  20.725  0.00  0.00    +0.024 HD
ATOM     36  H   UNL     1       0.791  15.642  20.474  0.00  0.00    +0.024 HD
ENDBRANCH  31  33
BRANCH  31  37
ATOM     37  S   UNL     1       2.547  14.185  18.566  0.00  0.00    -0.078 S 
BRANCH  37  38
ATOM     38  C   UNL     1       3.844  14.586  19.632  0.00  0.00    +0.192 A 
ATOM     39  N   UNL     1       3.797  14.680  20.940  0.00  0.00    -0.123 NA
ATOM     40  N   UNL     1       5.055  15.024  21.383  0.00  0.00    -0.137 NA
ATOM     41  C   UNL     1       5.831  15.125  20.328  0.00  0.00    +0.120 A 
ATOM     42  N   UNL     1       5.111  14.858  19.202  0.00  0.00    -0.312 N 
ATOM     43  H   UNL     1       6.882  15.380  20.332  0.00  0.00    +0.105 HD
BRANCH  42  44
ATOM     44  C   UNL     1       5.614  14.862  17.856  0.00  0.00    +0.015 C 
ATOM     45  H   UNL     1       6.692  15.044  17.882  0.00  0.00    +0.046 HD
ATOM     46  H   UNL     1       5.126  15.658  17.286  0.00  0.00    +0.046 HD
ATOM     47  H   UNL     1       5.393  13.897  17.393  0.00  0.00    +0.046 HD
ENDBRANCH  42  44
ENDBRANCH  37  38
ENDBRANCH  31  37
ENDBRANCH   1  31
TORSDOF 7
ENDMDL
MODEL 21
REMARK VINA RESULT:    -7.056      3.759      9.448
REMARK INTER + INTRA:         -10.080
REMARK INTER:                  -9.705
REMARK INTRA:                  -0.375
REMARK UNBOUND:                -0.548
REMARK  Name = 
REMARK  7 active torsions:
REMARK  status: ('A' for Active; 'I' for Inactive)
REMARK    1  A    between atoms: C_1  and  C_2
REMARK    2  A    between atoms: C_2  and  C_3
REMARK    3  A    between atoms: C_2  and  S_22
REMARK    4  A    between atoms: C_7  and  N_9
REMARK    5  A    between atoms: C_10  and  C_11
REMARK    6  A    between atoms: S_22  and  C_23
REMARK    7  A    between atoms: N_27  and  C_28
REMARK                            x       y       z     vdW  Elec       q    Type
REMARK                         _______ _______ _______ _____ _____    ______ ____
ROOT
ATOM      1  C   UNL     1       3.279   5.871  19.001  0.00  0.00    -0.033 A 
ATOM      2  C   UNL     1       2.693   4.710  19.526  0.00  0.00    -0.057 A 
ATOM      3  C   UNL     1       1.641   4.795  20.436  0.00  0.00    -0.060 A 
ATOM      4  C   UNL     1       1.150   6.041  20.832  0.00  0.00    -0.040 A 
ATOM      5  C   UNL     1       1.707   7.211  20.320  0.00  0.00    +0.034 A 
ATOM      6  C   UNL     1       2.767   7.118  19.406  0.00  0.00    -0.036 A 
ATOM      7  H   UNL     1       3.054   3.726  19.230  0.00  0.00    +0.062 HD
ATOM      8  H   UNL     1       1.195   3.889  20.839  0.00  0.00    +0.062 HD
ATOM      9  H   UNL     1       0.330   6.065  21.542  0.00  0.00    +0.064 HD
ATOM     10  H   UNL     1       3.196   8.028  18.995  0.00  0.00    +0.064 HD
ENDROOT
BRANCH   5  11
ATOM     11  N   UNL     1       1.269   8.501  20.665  0.00  0.00    -0.280 N 
ATOM     12  C   UNL     1       0.885   9.531  19.828  0.00  0.00    +0.267 C 
ATOM     13  O   UNL     1       0.854   9.524  18.603  0.00  0.00    -0.268 OA
ATOM     14  H   UNL     1       1.217   8.735  21.654  0.00  0.00    +0.155 HD
BRANCH  12  15
ATOM     15  C   UNL     1       0.474  10.764  20.581  0.00  0.00    +0.126 A 
ATOM     16  C   UNL     1      -0.602  10.715  21.459  0.00  0.00    -0.023 A 
ATOM     17  C   UNL     1      -0.960  11.880  22.145  0.00  0.00    -0.014 A 
ATOM     18  C   UNL     1      -2.035  11.904  23.048  0.00  0.00    -0.054 A 
ATOM     19  C   UNL     1      -2.371  13.081  23.722  0.00  0.00    -0.061 A 
ATOM     20  C   UNL     1      -1.639  14.245  23.502  0.00  0.00    -0.061 A 
ATOM     21  C   UNL     1      -0.567  14.238  22.608  0.00  0.00    -0.053 A 
ATOM     22  C   UNL     1      -0.220  13.059  21.924  0.00  0.00    +0.000 A 
ATOM     23  C   UNL     1       0.843  12.996  21.019  0.00  0.00    +0.036 A 
ATOM     24  N   UNL     1       1.211  11.885  20.340  0.00  0.00    -0.250 NA
ATOM     25  H   UNL     1      -1.146   9.785  21.602  0.00  0.00    +0.065 HD
ATOM     26  H   UNL     1      -2.621  11.006  23.235  0.00  0.00    +0.062 HD
ATOM     27  H   UNL     1      -3.206  13.087  24.418  0.00  0.00    +0.062 HD
ATOM     28  H   UNL     1      -1.903  15.160  24.029  0.00  0.00    +0.062 HD
ATOM     29  H   UNL     1      -0.006  15.156  22.449  0.00  0.00    +0.062 HD
ATOM     30  H   UNL     1       1.450  13.874  20.809  0.00  0.00    +0.084 HD
ENDBRANCH  12  15
ENDBRANCH   5  11
BRANCH   1  31
ATOM     31  C   UNL     1       4.423   5.750  18.005  0.00  0.00    +0.035 C 
ATOM     32  H   UNL     1       5.364   5.836  18.561  0.00  0.00    +0.046 HD
BRANCH  31  33
ATOM     33  C   UNL     1       4.397   6.862  16.952  0.00  0.00    -0.049 C 
ATOM     34  H   UNL     1       3.656   7.630  17.197  0.00  0.00    +0.024 HD
ATOM     35  H   UNL     1       5.366   7.361  16.841  0.00  0.00    +0.024 HD
ATOM     36  H   UNL     1       4.128   6.454  15.971  0.00  0.00    +0.024 HD
ENDBRANCH  31  33
BRANCH  31  37
ATOM     37  S   UNL     1       4.379   4.098  17.202  0.00  0.00    -0.078 S 
BRANCH  37  38
ATOM     38  C   UNL     1       5.499   4.313  15.906  0.00  0.00    +0.192 A 
ATOM     39  N   UNL     1       5.235   4.322  14.620  0.00  0.00    -0.123 NA
ATOM     40  N   UNL     1       6.421   4.522  13.949  0.00  0.00    -0.137 NA
ATOM     41  C   UNL     1       7.371   4.632  14.850  0.00  0.00    +0.120 A 
ATOM     42  N   UNL     1       6.837   4.507  16.097  0.00  0.00    -0.312 N 
ATOM     43  H   UNL     1       8.421   4.797  14.650  0.00  0.00    +0.105 HD
BRANCH  42  44
ATOM     44  C   UNL     1       7.560   4.577  17.337  0.00  0.00    +0.015 C 
ATOM     45  H   UNL     1       8.179   5.478  17.334  0.00  0.00    +0.046 HD
ATOM     46  H   UNL     1       8.201   3.697  17.436  0.00  0.00    +0.046 HD
ATOM     47  H   UNL     1       6.844   4.599  18.162  0.00  0.00    +0.046 HD
ENDBRANCH  42  44
ENDBRANCH  37  38
ENDBRANCH  31  37
ENDBRANCH   1  31
TORSDOF 7
ENDMDL
MODEL 22
REMARK VINA RESULT:    -6.973      1.432      2.215
REMARK INTER + INTRA:          -9.967
REMARK INTER:                  -9.985
REMARK INTRA:                   0.018
REMARK UNBOUND:                -0.548
REMARK  Name = 
REMARK  7 active torsions:
REMARK  status: ('A' for Active; 'I' for Inactive)
REMARK    1  A    between atoms: C_1  and  C_2
REMARK    2  A    between atoms: C_2  and  C_3
REMARK    3  A    between atoms: C_2  and  S_22
REMARK    4  A    between atoms: C_7  and  N_9
REMARK    5  A    between atoms: C_10  and  C_11
REMARK    6  A    between atoms: S_22  and  C_23
REMARK    7  A    between atoms: N_27  and  C_28
REMARK                            x       y       z     vdW  Elec       q    Type
REMARK                         _______ _______ _______ _____ _____    ______ ____
ROOT
ATOM      1  C   UNL     1      -0.624  11.199  21.288  0.00  0.00    -0.033 A 
ATOM      2  C   UNL     1      -0.828  10.766  22.606  0.00  0.00    -0.057 A 
ATOM      3  C   UNL     1      -0.227   9.597  23.070  0.00  0.00    -0.060 A 
ATOM      4  C   UNL     1       0.593   8.843  22.228  0.00  0.00    -0.040 A 
ATOM      5  C   UNL     1       0.821   9.254  20.915  0.00  0.00    +0.034 A 
ATOM      6  C   UNL     1       0.211  10.430  20.455  0.00  0.00    -0.036 A 
ATOM      7  H   UNL     1      -1.459  11.338  23.285  0.00  0.00    +0.062 HD
ATOM      8  H   UNL     1      -0.393   9.269  24.093  0.00  0.00    +0.062 HD
ATOM      9  H   UNL     1       1.042   7.940  22.627  0.00  0.00    +0.064 HD
ATOM     10  H   UNL     1       0.396  10.760  19.436  0.00  0.00    +0.064 HD
ENDROOT
BRANCH   5  11
ATOM     11  N   UNL     1       1.634   8.555  20.008  0.00  0.00    -0.280 N 
ATOM     12  C   UNL     1       1.923   7.204  19.974  0.00  0.00    +0.267 C 
ATOM     13  O   UNL     1       1.523   6.338  20.743  0.00  0.00    -0.268 OA
ATOM     14  H   UNL     1       2.083   9.089  19.266  0.00  0.00    +0.155 HD
BRANCH  12  15
ATOM     15  C   UNL     1       2.835   6.837  18.839  0.00  0.00    +0.126 A 
ATOM     16  C   UNL     1       3.214   5.512  18.653  0.00  0.00    -0.023 A 
ATOM     17  C   UNL     1       4.063   5.203  17.587  0.00  0.00    -0.014 A 
ATOM     18  C   UNL     1       4.486   3.888  17.337  0.00  0.00    -0.054 A 
ATOM     19  C   UNL     1       5.335   3.605  16.264  0.00  0.00    -0.061 A 
ATOM     20  C   UNL     1       5.770   4.630  15.429  0.00  0.00    -0.061 A 
ATOM     21  C   UNL     1       5.359   5.944  15.662  0.00  0.00    -0.053 A 
ATOM     22  C   UNL     1       4.505   6.240  16.740  0.00  0.00    +0.000 A 
ATOM     23  C   UNL     1       4.063   7.536  17.019  0.00  0.00    +0.036 A 
ATOM     24  N   UNL     1       3.243   7.866  18.044  0.00  0.00    -0.250 NA
ATOM     25  H   UNL     1       2.850   4.743  19.328  0.00  0.00    +0.065 HD
ATOM     26  H   UNL     1       4.159   3.071  17.978  0.00  0.00    +0.062 HD
ATOM     27  H   UNL     1       5.656   2.582  16.082  0.00  0.00    +0.062 HD
ATOM     28  H   UNL     1       6.431   4.407  14.594  0.00  0.00    +0.062 HD
ATOM     29  H   UNL     1       5.709   6.732  14.999  0.00  0.00    +0.062 HD
ATOM     30  H   UNL     1       4.370   8.376  16.400  0.00  0.00    +0.084 HD
ENDBRANCH  12  15
ENDBRANCH   5  11
BRANCH   1  31
ATOM     31  C   UNL     1      -1.287  12.481  20.808  0.00  0.00    +0.035 C 
ATOM     32  H   UNL     1      -0.730  13.326  21.230  0.00  0.00    +0.046 HD
BRANCH  31  33
ATOM     33  C   UNL     1      -2.740  12.596  21.280  0.00  0.00    -0.049 C 
ATOM     34  H   UNL     1      -3.290  13.353  20.712  0.00  0.00    +0.024 HD
ATOM     35  H   UNL     1      -3.288  11.651  21.190  0.00  0.00    +0.024 HD
ATOM     36  H   UNL     1      -2.777  12.893  22.334  0.00  0.00    +0.024 HD
ENDBRANCH  31  33
BRANCH  31  37
ATOM     37  S   UNL     1      -1.192  12.585  18.977  0.00  0.00    -0.078 S 
BRANCH  37  38
ATOM     38  C   UNL     1      -2.561  11.646  18.505  0.00  0.00    +0.192 A 
ATOM     39  N   UNL     1      -3.827  11.931  18.704  0.00  0.00    -0.123 NA
ATOM     40  N   UNL     1      -4.577  10.909  18.167  0.00  0.00    -0.137 NA
ATOM     41  C   UNL     1      -3.743  10.034  17.652  0.00  0.00    +0.120 A 
ATOM     42  N   UNL     1      -2.461  10.457  17.842  0.00  0.00    -0.312 N 
ATOM     43  H   UNL     1      -4.014   9.114  17.152  0.00  0.00    +0.105 HD
BRANCH  42  44
ATOM     44  C   UNL     1      -1.273   9.771  17.413  0.00  0.00    +0.015 C 
ATOM     45  H   UNL     1      -0.570  10.503  17.009  0.00  0.00    +0.046 HD
ATOM     46  H   UNL     1      -1.530   9.047  16.635  0.00  0.00    +0.046 HD
ATOM     47  H   UNL     1      -0.842   9.246  18.269  0.00  0.00    +0.046 HD
ENDBRANCH  42  44
ENDBRANCH  37  38
ENDBRANCH  31  37
ENDBRANCH   1  31
TORSDOF 7
ENDMDL
MODEL 23
REMARK VINA RESULT:    -6.914      3.585      8.793
REMARK INTER + INTRA:          -9.888
REMARK INTER:                  -9.263
REMARK INTRA:                  -0.624
REMARK UNBOUND:                -0.548
REMARK  Name = 
REMARK  7 active torsions:
REMARK  status: ('A' for Active; 'I' for Inactive)
REMARK    1  A    between atoms: C_1  and  C_2
REMARK    2  A    between atoms: C_2  and  C_3
REMARK    3  A    between atoms: C_2  and  S_22
REMARK    4  A    between atoms: C_7  and  N_9
REMARK    5  A    between atoms: C_10  and  C_11
REMARK    6  A    between atoms: S_22  and  C_23
REMARK    7  A    between atoms: N_27  and  C_28
REMARK                            x       y       z     vdW  Elec       q    Type
REMARK                         _______ _______ _______ _____ _____    ______ ____
ROOT
ATOM      1  C   UNL     1       4.380   5.658  18.589  0.00  0.00    -0.033 A 
ATOM      2  C   UNL     1       4.583   5.950  17.232  0.00  0.00    -0.057 A 
ATOM      3  C   UNL     1       3.913   7.012  16.626  0.00  0.00    -0.060 A 
ATOM      4  C   UNL     1       3.034   7.805  17.367  0.00  0.00    -0.040 A 
ATOM      5  C   UNL     1       2.820   7.544  18.719  0.00  0.00    +0.034 A 
ATOM      6  C   UNL     1       3.496   6.473  19.321  0.00  0.00    -0.036 A 
ATOM      7  H   UNL     1       5.266   5.350  16.633  0.00  0.00    +0.062 HD
ATOM      8  H   UNL     1       4.075   7.228  15.574  0.00  0.00    +0.062 HD
ATOM      9  H   UNL     1       2.532   8.622  16.859  0.00  0.00    +0.064 HD
ATOM     10  H   UNL     1       3.341   6.273  20.378  0.00  0.00    +0.064 HD
ENDROOT
BRANCH   5  11
ATOM     11  N   UNL     1       1.957   8.296  19.533  0.00  0.00    -0.280 N 
ATOM     12  C   UNL     1       1.267   7.893  20.660  0.00  0.00    +0.267 C 
ATOM     13  O   UNL     1       1.270   6.782  21.177  0.00  0.00    -0.268 OA
ATOM     14  H   UNL     1       1.801   9.271  19.284  0.00  0.00    +0.155 HD
BRANCH  12  15
ATOM     15  C   UNL     1       0.445   8.997  21.261  0.00  0.00    +0.126 A 
ATOM     16  C   UNL     1      -0.111   9.974  20.443  0.00  0.00    -0.023 A 
ATOM     17  C   UNL     1      -0.871  10.988  21.034  0.00  0.00    -0.014 A 
ATOM     18  C   UNL     1      -1.463  12.007  20.270  0.00  0.00    -0.054 A 
ATOM     19  C   UNL     1      -2.219  13.008  20.885  0.00  0.00    -0.061 A 
ATOM     20  C   UNL     1      -2.392  13.004  22.266  0.00  0.00    -0.061 A 
ATOM     21  C   UNL     1      -1.811  11.998  23.040  0.00  0.00    -0.053 A 
ATOM     22  C   UNL     1      -1.048  10.985  22.432  0.00  0.00    +0.000 A 
ATOM     23  C   UNL     1      -0.444   9.955  23.159  0.00  0.00    +0.036 A 
ATOM     24  N   UNL     1       0.298   8.962  22.616  0.00  0.00    -0.250 NA
ATOM     25  H   UNL     1       0.049   9.939  19.369  0.00  0.00    +0.065 HD
ATOM     26  H   UNL     1      -1.340  12.029  19.189  0.00  0.00    +0.062 HD
ATOM     27  H   UNL     1      -2.671  13.792  20.282  0.00  0.00    +0.062 HD
ATOM     28  H   UNL     1      -2.981  13.785  22.742  0.00  0.00    +0.062 HD
ATOM     29  H   UNL     1      -1.957  12.010  24.118  0.00  0.00    +0.062 HD
ATOM     30  H   UNL     1      -0.546   9.900  24.241  0.00  0.00    +0.084 HD
ENDBRANCH  12  15
ENDBRANCH   5  11
BRANCH   1  31
ATOM     31  C   UNL     1       5.128   4.497  19.227  0.00  0.00    +0.035 C 
ATOM     32  H   UNL     1       5.097   4.633  20.314  0.00  0.00    +0.046 HD
BRANCH  31  33
ATOM     33  C   UNL     1       6.599   4.451  18.803  0.00  0.00    -0.049 C 
ATOM     34  H   UNL     1       7.268   4.647  19.647  0.00  0.00    +0.024 HD
ATOM     35  H   UNL     1       6.884   3.484  18.372  0.00  0.00    +0.024 HD
ATOM     36  H   UNL     1       6.803   5.217  18.045  0.00  0.00    +0.024 HD
ENDBRANCH  31  33
BRANCH  31  37
ATOM     37  S   UNL     1       4.288   2.915  18.820  0.00  0.00    -0.078 S 
BRANCH  37  38
ATOM     38  C   UNL     1       2.943   2.950  19.901  0.00  0.00    +0.192 A 
ATOM     39  N   UNL     1       2.940   2.638  21.177  0.00  0.00    -0.123 NA
ATOM     40  N   UNL     1       1.657   2.808  21.648  0.00  0.00    -0.137 NA
ATOM     41  C   UNL     1       0.919   3.221  20.644  0.00  0.00    +0.120 A 
ATOM     42  N   UNL     1       1.686   3.326  19.523  0.00  0.00    -0.312 N 
ATOM     43  H   UNL     1      -0.138   3.449  20.682  0.00  0.00    +0.105 HD
BRANCH  42  44
ATOM     44  C   UNL     1       1.236   3.753  18.227  0.00  0.00    +0.015 C 
ATOM     45  H   UNL     1       0.672   4.683  18.337  0.00  0.00    +0.046 HD
ATOM     46  H   UNL     1       0.588   2.986  17.794  0.00  0.00    +0.046 HD
ATOM     47  H   UNL     1       2.106   3.899  17.582  0.00  0.00    +0.046 HD
ENDBRANCH  42  44
ENDBRANCH  37  38
ENDBRANCH  31  37
ENDBRANCH   1  31
TORSDOF 7
ENDMDL
MODEL 24
REMARK VINA RESULT:    -6.914      2.927      4.312
REMARK INTER + INTRA:          -9.887
REMARK INTER:                  -9.110
REMARK INTRA:                  -0.777
REMARK UNBOUND:                -0.548
REMARK  Name = 
REMARK  7 active torsions:
REMARK  status: ('A' for Active; 'I' for Inactive)
REMARK    1  A    between atoms: C_1  and  C_2
REMARK    2  A    between atoms: C_2  and  C_3
REMARK    3  A    between atoms: C_2  and  S_22
REMARK    4  A    between atoms: C_7  and  N_9
REMARK    5  A    between atoms: C_10  and  C_11
REMARK    6  A    between atoms: S_22  and  C_23
REMARK    7  A    between atoms: N_27  and  C_28
REMARK                            x       y       z     vdW  Elec       q    Type
REMARK                         _______ _______ _______ _____ _____    ______ ____
ROOT
ATOM      1  C   UNL     1      -0.204  11.710  20.471  0.00  0.00    -0.033 A 
ATOM      2  C   UNL     1      -1.274  11.951  19.597  0.00  0.00    -0.057 A 
ATOM      3  C   UNL     1      -1.444  11.173  18.452  0.00  0.00    -0.060 A 
ATOM      4  C   UNL     1      -0.551  10.138  18.164  0.00  0.00    -0.040 A 
ATOM      5  C   UNL     1       0.516   9.871  19.019  0.00  0.00    +0.034 A 
ATOM      6  C   UNL     1       0.681  10.659  20.168  0.00  0.00    -0.036 A 
ATOM      7  H   UNL     1      -1.987  12.748  19.801  0.00  0.00    +0.062 HD
ATOM      8  H   UNL     1      -2.275  11.369  17.780  0.00  0.00    +0.062 HD
ATOM      9  H   UNL     1      -0.719   9.556  17.263  0.00  0.00    +0.064 HD
ATOM     10  H   UNL     1       1.505  10.446  20.844  0.00  0.00    +0.064 HD
ENDROOT
BRANCH   5  11
ATOM     11  N   UNL     1       1.453   8.847  18.803  0.00  0.00    -0.280 N 
ATOM     12  C   UNL     1       1.832   7.832  19.660  0.00  0.00    +0.267 C 
ATOM     13  O   UNL     1       1.420   7.623  20.795  0.00  0.00    -0.268 OA
ATOM     14  H   UNL     1       1.932   8.826  17.904  0.00  0.00    +0.155 HD
BRANCH  12  15
ATOM     15  C   UNL     1       2.866   6.924  19.058  0.00  0.00    +0.126 A 
ATOM     16  C   UNL     1       3.409   7.218  17.814  0.00  0.00    -0.023 A 
ATOM     17  C   UNL     1       4.371   6.353  17.282  0.00  0.00    -0.014 A 
ATOM     18  C   UNL     1       4.964   6.587  16.031  0.00  0.00    -0.054 A 
ATOM     19  C   UNL     1       5.922   5.708  15.523  0.00  0.00    -0.061 A 
ATOM     20  C   UNL     1       6.300   4.586  16.256  0.00  0.00    -0.061 A 
ATOM     21  C   UNL     1       5.721   4.338  17.502  0.00  0.00    -0.053 A 
ATOM     22  C   UNL     1       4.754   5.217  18.023  0.00  0.00    +0.000 A 
ATOM     23  C   UNL     1       4.143   5.017  19.264  0.00  0.00    +0.036 A 
ATOM     24  N   UNL     1       3.209   5.835  19.803  0.00  0.00    -0.250 NA
ATOM     25  H   UNL     1       3.087   8.105  17.275  0.00  0.00    +0.065 HD
ATOM     26  H   UNL     1       4.683   7.457  15.441  0.00  0.00    +0.062 HD
ATOM     27  H   UNL     1       6.374   5.900  14.552  0.00  0.00    +0.062 HD
ATOM     28  H   UNL     1       7.047   3.903  15.857  0.00  0.00    +0.062 HD
ATOM     29  H   UNL     1       6.028   3.457  18.061  0.00  0.00    +0.062 HD
ATOM     30  H   UNL     1       4.399   4.158  19.881  0.00  0.00    +0.084 HD
ENDBRANCH  12  15
ENDBRANCH   5  11
BRANCH   1  31
ATOM     31  C   UNL     1      -0.045  12.570  21.717  0.00  0.00    +0.035 C 
ATOM     32  H   UNL     1       0.885  12.270  22.215  0.00  0.00    +0.046 HD
BRANCH  31  33
ATOM     33  C   UNL     1      -1.194  12.371  22.710  0.00  0.00    -0.049 C 
ATOM     34  H   UNL     1      -1.361  13.267  23.317  0.00  0.00    +0.024 HD
ATOM     35  H   UNL     1      -2.141  12.125  22.216  0.00  0.00    +0.024 HD
ATOM     36  H   UNL     1      -0.965  11.551  23.401  0.00  0.00    +0.024 HD
ENDBRANCH  31  33
BRANCH  31  37
ATOM     37  S   UNL     1       0.100  14.338  21.240  0.00  0.00    -0.078 S 
BRANCH  37  38
ATOM     38  C   UNL     1       1.798  14.483  20.963  0.00  0.00    +0.192 A 
ATOM     39  N   UNL     1       2.726  14.770  21.847  0.00  0.00    -0.123 NA
ATOM     40  N   UNL     1       3.938  14.784  21.194  0.00  0.00    -0.137 NA
ATOM     41  C   UNL     1       3.710  14.500  19.931  0.00  0.00    +0.120 A 
ATOM     42  N   UNL     1       2.376  14.303  19.739  0.00  0.00    -0.312 N 
ATOM     43  H   UNL     1       4.455  14.430  19.151  0.00  0.00    +0.105 HD
BRANCH  42  44
ATOM     44  C   UNL     1       1.741  13.968  18.494  0.00  0.00    +0.015 C 
ATOM     45  H   UNL     1       2.490  13.550  17.817  0.00  0.00    +0.046 HD
ATOM     46  H   UNL     1       1.313  14.871  18.048  0.00  0.00    +0.046 HD
ATOM     47  H   UNL     1       0.944  13.246  18.688  0.00  0.00    +0.046 HD
ENDBRANCH  42  44
ENDBRANCH  37  38
ENDBRANCH  31  37
ENDBRANCH   1  31
TORSDOF 7
ENDMDL
MODEL 25
REMARK VINA RESULT:    -6.863      3.785      8.815
REMARK INTER + INTRA:          -9.818
REMARK INTER:                  -9.390
REMARK INTRA:                  -0.428
REMARK UNBOUND:                -0.548
REMARK  Name = 
REMARK  7 active torsions:
REMARK  status: ('A' for Active; 'I' for Inactive)
REMARK    1  A    between atoms: C_1  and  C_2
REMARK    2  A    between atoms: C_2  and  C_3
REMARK    3  A    between atoms: C_2  and  S_22
REMARK    4  A    between atoms: C_7  and  N_9
REMARK    5  A    between atoms: C_10  and  C_11
REMARK    6  A    between atoms: S_22  and  C_23
REMARK    7  A    between atoms: N_27  and  C_28
REMARK                            x       y       z     vdW  Elec       q    Type
REMARK                         _______ _______ _______ _____ _____    ______ ____
ROOT
ATOM      1  C   UNL     1       2.797   5.080  18.770  0.00  0.00    -0.033 A 
ATOM      2  C   UNL     1       2.405   4.257  19.836  0.00  0.00    -0.057 A 
ATOM      3  C   UNL     1       1.790   4.800  20.963  0.00  0.00    -0.060 A 
ATOM      4  C   UNL     1       1.550   6.174  21.043  0.00  0.00    -0.040 A 
ATOM      5  C   UNL     1       1.921   7.014  19.996  0.00  0.00    +0.034 A 
ATOM      6  C   UNL     1       2.540   6.462  18.865  0.00  0.00    -0.036 A 
ATOM      7  H   UNL     1       2.577   3.182  19.797  0.00  0.00    +0.062 HD
ATOM      8  H   UNL     1       1.493   4.154  21.785  0.00  0.00    +0.062 HD
ATOM      9  H   UNL     1       1.069   6.556  21.938  0.00  0.00    +0.064 HD
ATOM     10  H   UNL     1       2.819   7.112  18.040  0.00  0.00    +0.064 HD
ENDROOT
BRANCH   5  11
ATOM     11  N   UNL     1       1.710   8.403  19.997  0.00  0.00    -0.280 N 
ATOM     12  C   UNL     1       0.680   9.117  20.578  0.00  0.00    +0.267 C 
ATOM     13  O   UNL     1      -0.269   8.672  21.213  0.00  0.00    -0.268 OA
ATOM     14  H   UNL     1       2.392   8.986  19.514  0.00  0.00    +0.155 HD
BRANCH  12  15
ATOM     15  C   UNL     1       0.810  10.598  20.363  0.00  0.00    +0.126 A 
ATOM     16  C   UNL     1       1.602  11.083  19.329  0.00  0.00    -0.023 A 
ATOM     17  C   UNL     1       1.701  12.467  19.156  0.00  0.00    -0.014 A 
ATOM     18  C   UNL     1       2.482  13.029  18.133  0.00  0.00    -0.054 A 
ATOM     19  C   UNL     1       2.564  14.414  17.980  0.00  0.00    -0.061 A 
ATOM     20  C   UNL     1       1.869  15.255  18.845  0.00  0.00    -0.061 A 
ATOM     21  C   UNL     1       1.087  14.713  19.868  0.00  0.00    -0.053 A 
ATOM     22  C   UNL     1       0.998  13.320  20.031  0.00  0.00    +0.000 A 
ATOM     23  C   UNL     1       0.231  12.725  21.037  0.00  0.00    +0.036 A 
ATOM     24  N   UNL     1       0.117  11.390  21.230  0.00  0.00    -0.250 NA
ATOM     25  H   UNL     1       2.127  10.392  18.677  0.00  0.00    +0.065 HD
ATOM     26  H   UNL     1       3.035  12.390  17.446  0.00  0.00    +0.062 HD
ATOM     27  H   UNL     1       3.173  14.837  17.184  0.00  0.00    +0.062 HD
ATOM     28  H   UNL     1       1.935  16.334  18.724  0.00  0.00    +0.062 HD
ATOM     29  H   UNL     1       0.551  15.385  20.534  0.00  0.00    +0.062 HD
ATOM     30  H   UNL     1      -0.334  13.331  21.741  0.00  0.00    +0.084 HD
ENDBRANCH  12  15
ENDBRANCH   5  11
BRANCH   1  31
ATOM     31  C   UNL     1       3.460   4.462  17.548  0.00  0.00    +0.035 C 
ATOM     32  H   UNL     1       3.452   5.210  16.746  0.00  0.00    +0.046 HD
BRANCH  31  33
ATOM     33  C   UNL     1       2.711   3.225  17.044  0.00  0.00    -0.049 C 
ATOM     34  H   UNL     1       2.815   2.381  17.734  0.00  0.00    +0.024 HD
ATOM     35  H   UNL     1       1.639   3.409  16.905  0.00  0.00    +0.024 HD
ATOM     36  H   UNL     1       3.113   2.903  16.076  0.00  0.00    +0.024 HD
ENDBRANCH  31  33
BRANCH  31  37
ATOM     37  S   UNL     1       5.208   4.048  17.932  0.00  0.00    -0.078 S 
BRANCH  37  38
ATOM     38  C   UNL     1       5.961   4.267  16.394  0.00  0.00    +0.192 A 
ATOM     39  N   UNL     1       5.839   3.504  15.333  0.00  0.00    -0.123 NA
ATOM     40  N   UNL     1       6.612   4.048  14.332  0.00  0.00    -0.137 NA
ATOM     41  C   UNL     1       7.179   5.131  14.814  0.00  0.00    +0.120 A 
ATOM     42  N   UNL     1       6.797   5.309  16.111  0.00  0.00    -0.312 N 
ATOM     43  H   UNL     1       7.848   5.791  14.280  0.00  0.00    +0.105 HD
BRANCH  42  44
ATOM     44  C   UNL     1       7.204   6.385  16.971  0.00  0.00    +0.015 C 
ATOM     45  H   UNL     1       6.999   6.106  18.008  0.00  0.00    +0.046 HD
ATOM     46  H   UNL     1       6.640   7.288  16.720  0.00  0.00    +0.046 HD
ATOM     47  H   UNL     1       8.271   6.571  16.822  0.00  0.00    +0.046 HD
ENDBRANCH  42  44
ENDBRANCH  37  38
ENDBRANCH  31  37
ENDBRANCH   1  31
TORSDOF 7
ENDMDL
MODEL 26
REMARK VINA RESULT:    -6.862      3.078      3.962
REMARK INTER + INTRA:          -9.818
REMARK INTER:                  -9.447
REMARK INTRA:                  -0.371
REMARK UNBOUND:                -0.548
REMARK  Name = 
REMARK  7 active torsions:
REMARK  status: ('A' for Active; 'I' for Inactive)
REMARK    1  A    between atoms: C_1  and  C_2
REMARK    2  A    between atoms: C_2  and  C_3
REMARK    3  A    between atoms: C_2  and  S_22
REMARK    4  A    between atoms: C_7  and  N_9
REMARK    5  A    between atoms: C_10  and  C_11
REMARK    6  A    between atoms: S_22  and  C_23
REMARK    7  A    between atoms: N_27  and  C_28
REMARK                            x       y       z     vdW  Elec       q    Type
REMARK                         _______ _______ _______ _____ _____    ______ ____
ROOT
ATOM      1  C   UNL     1       0.041  12.141  21.059  0.00  0.00    -0.033 A 
ATOM      2  C   UNL     1       0.362  13.018  20.013  0.00  0.00    -0.057 A 
ATOM      3  C   UNL     1       0.997  12.550  18.863  0.00  0.00    -0.060 A 
ATOM      4  C   UNL     1       1.316  11.196  18.735  0.00  0.00    -0.040 A 
ATOM      5  C   UNL     1       1.002  10.300  19.755  0.00  0.00    +0.034 A 
ATOM      6  C   UNL     1       0.365  10.779  20.910  0.00  0.00    -0.036 A 
ATOM      7  H   UNL     1       0.120  14.077  20.085  0.00  0.00    +0.062 HD
ATOM      8  H   UNL     1       1.243  13.238  18.059  0.00  0.00    +0.062 HD
ATOM      9  H   UNL     1       1.810  10.872  17.825  0.00  0.00    +0.064 HD
ATOM     10  H   UNL     1       0.107  10.081  21.702  0.00  0.00    +0.064 HD
ENDROOT
BRANCH   5  11
ATOM     11  N   UNL     1       1.285   8.925  19.702  0.00  0.00    -0.280 N 
ATOM     12  C   UNL     1       2.060   8.241  18.785  0.00  0.00    +0.267 C 
ATOM     13  O   UNL     1       2.659   8.705  17.822  0.00  0.00    -0.268 OA
ATOM     14  H   UNL     1       0.880   8.330  20.422  0.00  0.00    +0.155 HD
BRANCH  12  15
ATOM     15  C   UNL     1       2.127   6.768  19.070  0.00  0.00    +0.126 A 
ATOM     16  C   UNL     1       2.389   5.872  18.041  0.00  0.00    -0.023 A 
ATOM     17  C   UNL     1       2.445   4.507  18.340  0.00  0.00    -0.014 A 
ATOM     18  C   UNL     1       2.706   3.545  17.351  0.00  0.00    -0.054 A 
ATOM     19  C   UNL     1       2.758   2.188  17.676  0.00  0.00    -0.061 A 
ATOM     20  C   UNL     1       2.550   1.775  18.989  0.00  0.00    -0.061 A 
ATOM     21  C   UNL     1       2.290   2.719  19.985  0.00  0.00    -0.053 A 
ATOM     22  C   UNL     1       2.235   4.088  19.669  0.00  0.00    +0.000 A 
ATOM     23  C   UNL     1       1.979   5.074  20.626  0.00  0.00    +0.036 A 
ATOM     24  N   UNL     1       1.917   6.401  20.366  0.00  0.00    -0.250 NA
ATOM     25  H   UNL     1       2.545   6.237  17.030  0.00  0.00    +0.065 HD
ATOM     26  H   UNL     1       2.871   3.845  16.318  0.00  0.00    +0.062 HD
ATOM     27  H   UNL     1       2.960   1.452  16.901  0.00  0.00    +0.062 HD
ATOM     28  H   UNL     1       2.591   0.717  19.239  0.00  0.00    +0.062 HD
ATOM     29  H   UNL     1       2.131   2.378  21.005  0.00  0.00    +0.062 HD
ATOM     30  H   UNL     1       1.810   4.811  21.668  0.00  0.00    +0.084 HD
ENDBRANCH  12  15
ENDBRANCH   5  11
BRANCH   1  31
ATOM     31  C   UNL     1      -0.656  12.677  22.300  0.00  0.00    +0.035 C 
ATOM     32  H   UNL     1       0.118  13.006  23.005  0.00  0.00    +0.046 HD
BRANCH  31  33
ATOM     33  C   UNL     1      -1.501  11.607  22.999  0.00  0.00    -0.049 C 
ATOM     34  H   UNL     1      -1.256  10.602  22.640  0.00  0.00    +0.024 HD
ATOM     35  H   UNL     1      -1.372  11.611  24.087  0.00  0.00    +0.024 HD
ATOM     36  H   UNL     1      -2.567  11.770  22.798  0.00  0.00    +0.024 HD
ENDBRANCH  31  33
BRANCH  31  37
ATOM     37  S   UNL     1      -1.688  14.130  21.858  0.00  0.00    -0.078 S 
BRANCH  37  38
ATOM     38  C   UNL     1      -3.110  13.370  21.241  0.00  0.00    +0.192 A 
ATOM     39  N   UNL     1      -3.261  12.797  20.070  0.00  0.00    -0.123 NA
ATOM     40  N   UNL     1      -4.552  12.324  19.996  0.00  0.00    -0.137 NA
ATOM     41  C   UNL     1      -5.147  12.621  21.129  0.00  0.00    +0.120 A 
ATOM     42  N   UNL     1      -4.277  13.280  21.944  0.00  0.00    -0.312 N 
ATOM     43  H   UNL     1      -6.169  12.386  21.391  0.00  0.00    +0.105 HD
BRANCH  42  44
ATOM     44  C   UNL     1      -4.559  13.762  23.269  0.00  0.00    +0.015 C 
ATOM     45  H   UNL     1      -5.576  14.162  23.289  0.00  0.00    +0.046 HD
ATOM     46  H   UNL     1      -3.852  14.555  23.527  0.00  0.00    +0.046 HD
ATOM     47  H   UNL     1      -4.451  12.935  23.975  0.00  0.00    +0.046 HD
ENDBRANCH  42  44
ENDBRANCH  37  38
ENDBRANCH  31  37
ENDBRANCH   1  31
TORSDOF 7
ENDMDL
MODEL 27
REMARK VINA RESULT:    -6.825      3.968      5.334
REMARK INTER + INTRA:          -9.767
REMARK INTER:                  -9.169
REMARK INTRA:                  -0.598
REMARK UNBOUND:                -0.548
REMARK  Name = 
REMARK  7 active torsions:
REMARK  status: ('A' for Active; 'I' for Inactive)
REMARK    1  A    between atoms: C_1  and  C_2
REMARK    2  A    between atoms: C_2  and  C_3
REMARK    3  A    between atoms: C_2  and  S_22
REMARK    4  A    between atoms: C_7  and  N_9
REMARK    5  A    between atoms: C_10  and  C_11
REMARK    6  A    between atoms: S_22  and  C_23
REMARK    7  A    between atoms: N_27  and  C_28
REMARK                            x       y       z     vdW  Elec       q    Type
REMARK                         _______ _______ _______ _____ _____    ______ ____
ROOT
ATOM      1  C   UNL     1      -0.707  11.834  20.837  0.00  0.00    -0.033 A 
ATOM      2  C   UNL     1      -1.360  12.359  19.713  0.00  0.00    -0.057 A 
ATOM      3  C   UNL     1      -1.269  11.722  18.477  0.00  0.00    -0.060 A 
ATOM      4  C   UNL     1      -0.528  10.545  18.343  0.00  0.00    -0.040 A 
ATOM      5  C   UNL     1       0.124   9.996  19.445  0.00  0.00    +0.034 A 
ATOM      6  C   UNL     1       0.030  10.644  20.685  0.00  0.00    -0.036 A 
ATOM      7  H   UNL     1      -1.948  13.273  19.791  0.00  0.00    +0.062 HD
ATOM      8  H   UNL     1      -1.777  12.138  17.611  0.00  0.00    +0.062 HD
ATOM      9  H   UNL     1      -0.482  10.080  17.364  0.00  0.00    +0.064 HD
ATOM     10  H   UNL     1       0.527  10.212  21.550  0.00  0.00    +0.064 HD
ENDROOT
BRANCH   5  11
ATOM     11  N   UNL     1       0.884   8.815  19.394  0.00  0.00    -0.280 N 
ATOM     12  C   UNL     1       1.978   8.529  18.601  0.00  0.00    +0.267 C 
ATOM     13  O   UNL     1       2.507   9.259  17.771  0.00  0.00    -0.268 OA
ATOM     14  H   UNL     1       0.616   8.053  20.014  0.00  0.00    +0.155 HD
BRANCH  12  15
ATOM     15  C   UNL     1       2.523   7.151  18.843  0.00  0.00    +0.126 A 
ATOM     16  C   UNL     1       2.005   6.369  19.869  0.00  0.00    -0.023 A 
ATOM     17  C   UNL     1       2.534   5.090  20.067  0.00  0.00    -0.014 A 
ATOM     18  C   UNL     1       2.059   4.245  21.083  0.00  0.00    -0.054 A 
ATOM     19  C   UNL     1       2.604   2.971  21.260  0.00  0.00    -0.061 A 
ATOM     20  C   UNL     1       3.628   2.527  20.427  0.00  0.00    -0.061 A 
ATOM     21  C   UNL     1       4.111   3.354  19.412  0.00  0.00    -0.053 A 
ATOM     22  C   UNL     1       3.570   4.638  19.225  0.00  0.00    +0.000 A 
ATOM     23  C   UNL     1       4.016   5.508  18.225  0.00  0.00    +0.036 A 
ATOM     24  N   UNL     1       3.525   6.750  18.010  0.00  0.00    -0.250 NA
ATOM     25  H   UNL     1       1.206   6.755  20.495  0.00  0.00    +0.065 HD
ATOM     26  H   UNL     1       1.261   4.572  21.746  0.00  0.00    +0.062 HD
ATOM     27  H   UNL     1       2.228   2.326  22.051  0.00  0.00    +0.062 HD
ATOM     28  H   UNL     1       4.050   1.534  20.568  0.00  0.00    +0.062 HD
ATOM     29  H   UNL     1       4.910   2.991  18.771  0.00  0.00    +0.062 HD
ATOM     30  H   UNL     1       4.813   5.214  17.544  0.00  0.00    +0.084 HD
ENDBRANCH  12  15
ENDBRANCH   5  11
BRANCH   1  31
ATOM     31  C   UNL     1      -0.827  12.547  22.177  0.00  0.00    +0.035 C 
ATOM     32  H   UNL     1       0.177  12.617  22.612  0.00  0.00    +0.046 HD
BRANCH  31  33
ATOM     33  C   UNL     1      -1.713  11.781  23.164  0.00  0.00    -0.049 C 
ATOM     34  H   UNL     1      -1.570  12.134  24.191  0.00  0.00    +0.024 HD
ATOM     35  H   UNL     1      -2.780  11.869  22.929  0.00  0.00    +0.024 HD
ATOM     36  H   UNL     1      -1.465  10.713  23.152  0.00  0.00    +0.024 HD
ENDBRANCH  31  33
BRANCH  31  37
ATOM     37  S   UNL     1      -1.464  14.250  21.921  0.00  0.00    -0.078 S 
BRANCH  37  38
ATOM     38  C   UNL     1      -1.958  14.678  23.519  0.00  0.00    +0.192 A 
ATOM     39  N   UNL     1      -1.186  15.003  24.530  0.00  0.00    -0.123 NA
ATOM     40  N   UNL     1      -1.998  15.267  25.611  0.00  0.00    -0.137 NA
ATOM     41  C   UNL     1      -3.241  15.098  25.222  0.00  0.00    +0.120 A 
ATOM     42  N   UNL     1      -3.265  14.726  23.911  0.00  0.00    -0.312 N 
ATOM     43  H   UNL     1      -4.122  15.229  25.835  0.00  0.00    +0.105 HD
BRANCH  42  44
ATOM     44  C   UNL     1      -4.441  14.456  23.131  0.00  0.00    +0.015 C 
ATOM     45  H   UNL     1      -4.282  13.540  22.557  0.00  0.00    +0.046 HD
ATOM     46  H   UNL     1      -4.623  15.287  22.444  0.00  0.00    +0.046 HD
ATOM     47  H   UNL     1      -5.295  14.349  23.806  0.00  0.00    +0.046 HD
ENDBRANCH  42  44
ENDBRANCH  37  38
ENDBRANCH  31  37
ENDBRANCH   1  31
TORSDOF 7
ENDMDL
MODEL 28
REMARK VINA RESULT:    -6.809      2.544      3.939
REMARK INTER + INTRA:          -9.745
REMARK INTER:                  -9.158
REMARK INTRA:                  -0.587
REMARK UNBOUND:                -0.548
REMARK  Name = 
REMARK  7 active torsions:
REMARK  status: ('A' for Active; 'I' for Inactive)
REMARK    1  A    between atoms: C_1  and  C_2
REMARK    2  A    between atoms: C_2  and  C_3
REMARK    3  A    between atoms: C_2  and  S_22
REMARK    4  A    between atoms: C_7  and  N_9
REMARK    5  A    between atoms: C_10  and  C_11
REMARK    6  A    between atoms: S_22  and  C_23
REMARK    7  A    between atoms: N_27  and  C_28
REMARK                            x       y       z     vdW  Elec       q    Type
REMARK                         _______ _______ _______ _____ _____    ______ ____
ROOT
ATOM      1  C   UNL     1      -0.991  11.219  20.460  0.00  0.00    -0.033 A 
ATOM      2  C   UNL     1      -0.925  11.407  21.848  0.00  0.00    -0.057 A 
ATOM      3  C   UNL     1      -0.173  10.548  22.646  0.00  0.00    -0.060 A 
ATOM      4  C   UNL     1       0.532   9.487  22.072  0.00  0.00    -0.040 A 
ATOM      5  C   UNL     1       0.492   9.281  20.694  0.00  0.00    +0.034 A 
ATOM      6  C   UNL     1      -0.268  10.149  19.897  0.00  0.00    -0.036 A 
ATOM      7  H   UNL     1      -1.462  12.229  22.320  0.00  0.00    +0.062 HD
ATOM      8  H   UNL     1      -0.130  10.701  23.721  0.00  0.00    +0.062 HD
ATOM      9  H   UNL     1       1.106   8.841  22.727  0.00  0.00    +0.064 HD
ATOM     10  H   UNL     1      -0.293   9.999  18.821  0.00  0.00    +0.064 HD
ENDROOT
BRANCH   5  11
ATOM     11  N   UNL     1       1.175   8.243  20.039  0.00  0.00    -0.280 N 
ATOM     12  C   UNL     1       1.973   8.313  18.913  0.00  0.00    +0.267 C 
ATOM     13  O   UNL     1       2.242   9.309  18.253  0.00  0.00    -0.268 OA
ATOM     14  H   UNL     1       1.090   7.304  20.424  0.00  0.00    +0.155 HD
BRANCH  12  15
ATOM     15  C   UNL     1       2.536   6.977  18.520  0.00  0.00    +0.126 A 
ATOM     16  C   UNL     1       1.904   5.809  18.929  0.00  0.00    -0.023 A 
ATOM     17  C   UNL     1       2.453   4.582  18.545  0.00  0.00    -0.014 A 
ATOM     18  C   UNL     1       1.868   3.362  18.921  0.00  0.00    -0.054 A 
ATOM     19  C   UNL     1       2.436   2.149  18.523  0.00  0.00    -0.061 A 
ATOM     20  C   UNL     1       3.592   2.140  17.747  0.00  0.00    -0.061 A 
ATOM     21  C   UNL     1       4.186   3.344  17.364  0.00  0.00    -0.053 A 
ATOM     22  C   UNL     1       3.623   4.571  17.759  0.00  0.00    +0.000 A 
ATOM     23  C   UNL     1       4.176   5.805  17.404  0.00  0.00    +0.036 A 
ATOM     24  N   UNL     1       3.669   7.007  17.762  0.00  0.00    -0.250 NA
ATOM     25  H   UNL     1       1.003   5.862  19.533  0.00  0.00    +0.065 HD
ATOM     26  H   UNL     1       0.965   3.345  19.527  0.00  0.00    +0.062 HD
ATOM     27  H   UNL     1       1.974   1.211  18.821  0.00  0.00    +0.062 HD
ATOM     28  H   UNL     1       4.032   1.194  17.439  0.00  0.00    +0.062 HD
ATOM     29  H   UNL     1       5.088   3.318  16.758  0.00  0.00    +0.062 HD
ATOM     30  H   UNL     1       5.078   5.859  16.799  0.00  0.00    +0.084 HD
ENDBRANCH  12  15
ENDBRANCH   5  11
BRANCH   1  31
ATOM     31  C   UNL     1      -1.815  12.175  19.610  0.00  0.00    +0.035 C 
ATOM     32  H   UNL     1      -2.835  12.189  20.013  0.00  0.00    +0.046 HD
BRANCH  31  33
ATOM     33  C   UNL     1      -1.896  11.730  18.147  0.00  0.00    -0.049 C 
ATOM     34  H   UNL     1      -2.930  11.536  17.841  0.00  0.00    +0.024 HD
ATOM     35  H   UNL     1      -1.479  12.471  17.457  0.00  0.00    +0.024 HD
ATOM     36  H   UNL     1      -1.337  10.798  17.999  0.00  0.00    +0.024 HD
ENDBRANCH  31  33
BRANCH  31  37
ATOM     37  S   UNL     1      -1.124  13.872  19.733  0.00  0.00    -0.078 S 
BRANCH  37  38
ATOM     38  C   UNL     1       0.548  13.589  19.407  0.00  0.00    +0.192 A 
ATOM     39  N   UNL     1       1.072  13.110  18.303  0.00  0.00    -0.123 NA
ATOM     40  N   UNL     1       2.437  13.049  18.479  0.00  0.00    -0.137 NA
ATOM     41  C   UNL     1       2.701  13.498  19.685  0.00  0.00    +0.120 A 
ATOM     42  N   UNL     1       1.541  13.849  20.307  0.00  0.00    -0.312 N 
ATOM     43  H   UNL     1       3.682  13.582  20.132  0.00  0.00    +0.105 HD
BRANCH  42  44
ATOM     44  C   UNL     1       1.423  14.387  21.635  0.00  0.00    +0.015 C 
ATOM     45  H   UNL     1       1.019  13.615  22.294  0.00  0.00    +0.046 HD
ATOM     46  H   UNL     1       0.745  15.245  21.623  0.00  0.00    +0.046 HD
ATOM     47  H   UNL     1       2.411  14.710  21.972  0.00  0.00    +0.046 HD
ENDBRANCH  42  44
ENDBRANCH  37  38
ENDBRANCH  31  37
ENDBRANCH   1  31
TORSDOF 7
ENDMDL
MODEL 29
REMARK VINA RESULT:    -6.794      3.300      5.164
REMARK INTER + INTRA:          -9.726
REMARK INTER:                  -8.785
REMARK INTRA:                  -0.941
REMARK UNBOUND:                -0.548
REMARK  Name = 
REMARK  7 active torsions:
REMARK  status: ('A' for Active; 'I' for Inactive)
REMARK    1  A    between atoms: C_1  and  C_2
REMARK    2  A    between atoms: C_2  and  C_3
REMARK    3  A    between atoms: C_2  and  S_22
REMARK    4  A    between atoms: C_7  and  N_9
REMARK    5  A    between atoms: C_10  and  C_11
REMARK    6  A    between atoms: S_22  and  C_23
REMARK    7  A    between atoms: N_27  and  C_28
REMARK                            x       y       z     vdW  Elec       q    Type
REMARK                         _______ _______ _______ _____ _____    ______ ____
ROOT
ATOM      1  C   UNL     1      -0.320  12.089  20.727  0.00  0.00    -0.033 A 
ATOM      2  C   UNL     1      -1.251  12.431  19.735  0.00  0.00    -0.057 A 
ATOM      3  C   UNL     1      -1.470  11.589  18.646  0.00  0.00    -0.060 A 
ATOM      4  C   UNL     1      -0.767  10.387  18.531  0.00  0.00    -0.040 A 
ATOM      5  C   UNL     1       0.158  10.018  19.506  0.00  0.00    +0.034 A 
ATOM      6  C   UNL     1       0.374  10.871  20.598  0.00  0.00    -0.036 A 
ATOM      7  H   UNL     1      -1.816  13.360  19.802  0.00  0.00    +0.062 HD
ATOM      8  H   UNL     1      -2.192  11.864  17.881  0.00  0.00    +0.062 HD
ATOM      9  H   UNL     1      -0.966   9.760  17.668  0.00  0.00    +0.064 HD
ATOM     10  H   UNL     1       1.085  10.580  21.367  0.00  0.00    +0.064 HD
ENDROOT
BRANCH   5  11
ATOM     11  N   UNL     1       0.900   8.826  19.466  0.00  0.00    -0.280 N 
ATOM     12  C   UNL     1       1.978   8.510  18.661  0.00  0.00    +0.267 C 
ATOM     13  O   UNL     1       2.503   9.216  17.809  0.00  0.00    -0.268 OA
ATOM     14  H   UNL     1       0.632   8.080  20.104  0.00  0.00    +0.155 HD
BRANCH  12  15
ATOM     15  C   UNL     1       2.508   7.129  18.921  0.00  0.00    +0.126 A 
ATOM     16  C   UNL     1       1.971   6.360  19.947  0.00  0.00    -0.023 A 
ATOM     17  C   UNL     1       2.486   5.079  20.163  0.00  0.00    -0.014 A 
ATOM     18  C   UNL     1       1.992   4.246  21.179  0.00  0.00    -0.054 A 
ATOM     19  C   UNL     1       2.524   2.969  21.373  0.00  0.00    -0.061 A 
ATOM     20  C   UNL     1       3.553   2.509  20.557  0.00  0.00    -0.061 A 
ATOM     21  C   UNL     1       4.056   3.324  19.541  0.00  0.00    -0.053 A 
ATOM     22  C   UNL     1       3.529   4.611  19.337  0.00  0.00    +0.000 A 
ATOM     23  C   UNL     1       3.995   5.468  18.335  0.00  0.00    +0.036 A 
ATOM     24  N   UNL     1       3.517   6.713  18.104  0.00  0.00    -0.250 NA
ATOM     25  H   UNL     1       1.167   6.758  20.560  0.00  0.00    +0.065 HD
ATOM     26  H   UNL     1       1.188   4.585  21.830  0.00  0.00    +0.062 HD
ATOM     27  H   UNL     1       2.133   2.333  22.165  0.00  0.00    +0.062 HD
ATOM     28  H   UNL     1       3.965   1.514  20.711  0.00  0.00    +0.062 HD
ATOM     29  H   UNL     1       4.860   2.948  18.913  0.00  0.00    +0.062 HD
ATOM     30  H   UNL     1       4.796   5.162  17.667  0.00  0.00    +0.084 HD
ENDBRANCH  12  15
ENDBRANCH   5  11
BRANCH   1  31
ATOM     31  C   UNL     1      -0.105  13.024  21.908  0.00  0.00    +0.035 C 
ATOM     32  H   UNL     1       0.783  12.679  22.451  0.00  0.00    +0.046 HD
BRANCH  31  33
ATOM     33  C   UNL     1      -1.286  13.008  22.883  0.00  0.00    -0.049 C 
ATOM     34  H   UNL     1      -2.245  13.002  22.355  0.00  0.00    +0.024 HD
ATOM     35  H   UNL     1      -1.270  12.139  23.551  0.00  0.00    +0.024 HD
ATOM     36  H   UNL     1      -1.272  13.904  23.516  0.00  0.00    +0.024 HD
ENDBRANCH  31  33
BRANCH  31  37
ATOM     37  S   UNL     1       0.214  14.729  21.305  0.00  0.00    -0.078 S 
BRANCH  37  38
ATOM     38  C   UNL     1       1.923  14.696  21.062  0.00  0.00    +0.192 A 
ATOM     39  N   UNL     1       2.857  14.893  21.963  0.00  0.00    -0.123 NA
ATOM     40  N   UNL     1       4.077  14.777  21.336  0.00  0.00    -0.137 NA
ATOM     41  C   UNL     1       3.847  14.508  20.071  0.00  0.00    +0.120 A 
ATOM     42  N   UNL     1       2.503  14.448  19.852  0.00  0.00    -0.312 N 
ATOM     43  H   UNL     1       4.596  14.356  19.306  0.00  0.00    +0.105 HD
BRANCH  42  44
ATOM     44  C   UNL     1       1.863  14.171  18.595  0.00  0.00    +0.015 C 
ATOM     45  H   UNL     1       2.630  14.061  17.825  0.00  0.00    +0.046 HD
ATOM     46  H   UNL     1       1.200  15.000  18.332  0.00  0.00    +0.046 HD
ATOM     47  H   UNL     1       1.276  13.254  18.694  0.00  0.00    +0.046 HD
ENDBRANCH  42  44
ENDBRANCH  37  38
ENDBRANCH  31  37
ENDBRANCH   1  31
TORSDOF 7
ENDMDL
MODEL 30
REMARK VINA RESULT:    -6.785      3.639      9.431
REMARK INTER + INTRA:          -9.714
REMARK INTER:                  -9.184
REMARK INTRA:                  -0.530
REMARK UNBOUND:                -0.548
REMARK  Name = 
REMARK  7 active torsions:
REMARK  status: ('A' for Active; 'I' for Inactive)
REMARK    1  A    between atoms: C_1  and  C_2
REMARK    2  A    between atoms: C_2  and  C_3
REMARK    3  A    between atoms: C_2  and  S_22
REMARK    4  A    between atoms: C_7  and  N_9
REMARK    5  A    between atoms: C_10  and  C_11
REMARK    6  A    between atoms: S_22  and  C_23
REMARK    7  A    between atoms: N_27  and  C_28
REMARK                            x       y       z     vdW  Elec       q    Type
REMARK                         _______ _______ _______ _____ _____    ______ ____
ROOT
ATOM      1  C   UNL     1       2.770   5.493  18.620  0.00  0.00    -0.033 A 
ATOM      2  C   UNL     1       2.579   4.450  19.538  0.00  0.00    -0.057 A 
ATOM      3  C   UNL     1       2.016   4.698  20.789  0.00  0.00    -0.060 A 
ATOM      4  C   UNL     1       1.627   5.993  21.142  0.00  0.00    -0.040 A 
ATOM      5  C   UNL     1       1.797   7.047  20.247  0.00  0.00    +0.034 A 
ATOM      6  C   UNL     1       2.366   6.789  18.991  0.00  0.00    -0.036 A 
ATOM      7  H   UNL     1       2.870   3.431  19.286  0.00  0.00    +0.062 HD
ATOM      8  H   UNL     1       1.874   3.884  21.494  0.00  0.00    +0.062 HD
ATOM      9  H   UNL     1       1.192   6.144  22.125  0.00  0.00    +0.064 HD
ATOM     10  H   UNL     1       2.488   7.607  18.285  0.00  0.00    +0.064 HD
ENDROOT
BRANCH   5  11
ATOM     11  N   UNL     1       1.428   8.374  20.524  0.00  0.00    -0.280 N 
ATOM     12  C   UNL     1       0.302   8.836  21.178  0.00  0.00    +0.267 C 
ATOM     13  O   UNL     1      -0.611   8.169  21.650  0.00  0.00    -0.268 OA
ATOM     14  H   UNL     1       2.055   9.114  20.214  0.00  0.00    +0.155 HD
BRANCH  12  15
ATOM     15  C   UNL     1       0.269  10.334  21.283  0.00  0.00    +0.126 A 
ATOM     16  C   UNL     1      -0.559  10.946  22.216  0.00  0.00    -0.023 A 
ATOM     17  C   UNL     1      -0.566  12.343  22.289  0.00  0.00    -0.014 A 
ATOM     18  C   UNL     1      -1.376  13.030  23.208  0.00  0.00    -0.054 A 
ATOM     19  C   UNL     1      -1.364  14.425  23.261  0.00  0.00    -0.061 A 
ATOM     20  C   UNL     1      -0.545  15.151  22.400  0.00  0.00    -0.061 A 
ATOM     21  C   UNL     1       0.267  14.483  21.482  0.00  0.00    -0.053 A 
ATOM     22  C   UNL     1       0.263  13.079  21.419  0.00  0.00    +0.000 A 
ATOM     23  C   UNL     1       1.056  12.361  20.519  0.00  0.00    +0.036 A 
ATOM     24  N   UNL     1       1.082  11.011  20.424  0.00  0.00    -0.250 NA
ATOM     25  H   UNL     1      -1.182  10.343  22.870  0.00  0.00    +0.065 HD
ATOM     26  H   UNL     1      -2.025  12.483  23.889  0.00  0.00    +0.062 HD
ATOM     27  H   UNL     1      -1.997  14.946  23.976  0.00  0.00    +0.062 HD
ATOM     28  H   UNL     1      -0.538  16.238  22.444  0.00  0.00    +0.062 HD
ATOM     29  H   UNL     1       0.901  15.066  20.817  0.00  0.00    +0.062 HD
ATOM     30  H   UNL     1       1.716  12.874  19.823  0.00  0.00    +0.084 HD
ENDBRANCH  12  15
ENDBRANCH   5  11
BRANCH   1  31
ATOM     31  C   UNL     1       3.382   5.193  17.260  0.00  0.00    +0.035 C 
ATOM     32  H   UNL     1       2.589   5.281  16.507  0.00  0.00    +0.046 HD
BRANCH  31  33
ATOM     33  C   UNL     1       3.949   3.772  17.179  0.00  0.00    -0.049 C 
ATOM     34  H   UNL     1       4.392   3.571  16.198  0.00  0.00    +0.024 HD
ATOM     35  H   UNL     1       4.719   3.582  17.935  0.00  0.00    +0.024 HD
ATOM     36  H   UNL     1       3.153   3.033  17.332  0.00  0.00    +0.024 HD
ENDBRANCH  31  33
BRANCH  31  37
ATOM     37  S   UNL     1       4.682   6.432  16.874  0.00  0.00    -0.078 S 
BRANCH  37  38
ATOM     38  C   UNL     1       6.071   5.714  17.605  0.00  0.00    +0.192 A 
ATOM     39  N   UNL     1       6.408   5.746  18.873  0.00  0.00    -0.123 NA
ATOM     40  N   UNL     1       7.587   5.048  19.013  0.00  0.00    -0.137 NA
ATOM     41  C   UNL     1       7.930   4.609  17.823  0.00  0.00    +0.120 A 
ATOM     42  N   UNL     1       7.004   5.005  16.904  0.00  0.00    -0.312 N 
ATOM     43  H   UNL     1       8.808   4.023  17.589  0.00  0.00    +0.105 HD
BRANCH  42  44
ATOM     44  C   UNL     1       7.031   4.712  15.498  0.00  0.00    +0.015 C 
ATOM     45  H   UNL     1       7.751   5.375  15.013  0.00  0.00    +0.046 HD
ATOM     46  H   UNL     1       6.038   4.880  15.071  0.00  0.00    +0.046 HD
ATOM     47  H   UNL     1       7.312   3.665  15.361  0.00  0.00    +0.046 HD
ENDBRANCH  42  44
ENDBRANCH  37  38
ENDBRANCH  31  37
ENDBRANCH   1  31
TORSDOF 7
ENDMDL
MODEL 31
REMARK VINA RESULT:    -6.780      2.969      4.754
REMARK INTER + INTRA:          -9.706
REMARK INTER:                  -8.899
REMARK INTRA:                  -0.807
REMARK UNBOUND:                -0.548
REMARK  Name = 
REMARK  7 active torsions:
REMARK  status: ('A' for Active; 'I' for Inactive)
REMARK    1  A    between atoms: C_1  and  C_2
REMARK    2  A    between atoms: C_2  and  C_3
REMARK    3  A    between atoms: C_2  and  S_22
REMARK    4  A    between atoms: C_7  and  N_9
REMARK    5  A    between atoms: C_10  and  C_11
REMARK    6  A    between atoms: S_22  and  C_23
REMARK    7  A    between atoms: N_27  and  C_28
REMARK                            x       y       z     vdW  Elec       q    Type
REMARK                         _______ _______ _______ _____ _____    ______ ____
ROOT
ATOM      1  C   UNL     1      -0.547  12.354  19.017  0.00  0.00    -0.033 A 
ATOM      2  C   UNL     1      -1.699  12.347  18.217  0.00  0.00    -0.057 A 
ATOM      3  C   UNL     1      -2.081  11.194  17.533  0.00  0.00    -0.060 A 
ATOM      4  C   UNL     1      -1.322  10.026  17.641  0.00  0.00    -0.040 A 
ATOM      5  C   UNL     1      -0.177  10.002  18.435  0.00  0.00    +0.034 A 
ATOM      6  C   UNL     1       0.202  11.166  19.119  0.00  0.00    -0.036 A 
ATOM      7  H   UNL     1      -2.310  13.242  18.120  0.00  0.00    +0.062 HD
ATOM      8  H   UNL     1      -2.974  11.199  16.914  0.00  0.00    +0.062 HD
ATOM      9  H   UNL     1      -1.653   9.150  17.093  0.00  0.00    +0.064 HD
ATOM     10  H   UNL     1       1.087  11.148  19.749  0.00  0.00    +0.064 HD
ENDROOT
BRANCH   5  11
ATOM     11  N   UNL     1       0.636   8.868  18.599  0.00  0.00    -0.280 N 
ATOM     12  C   UNL     1       1.969   8.710  18.270  0.00  0.00    +0.267 C 
ATOM     13  O   UNL     1       2.714   9.539  17.761  0.00  0.00    -0.268 OA
ATOM     14  H   UNL     1       0.215   8.039  19.013  0.00  0.00    +0.155 HD
BRANCH  12  15
ATOM     15  C   UNL     1       2.489   7.342  18.607  0.00  0.00    +0.126 A 
ATOM     16  C   UNL     1       1.924   6.622  19.653  0.00  0.00    -0.023 A 
ATOM     17  C   UNL     1       2.431   5.351  19.941  0.00  0.00    -0.014 A 
ATOM     18  C   UNL     1       1.909   4.567  20.982  0.00  0.00    -0.054 A 
ATOM     19  C   UNL     1       2.432   3.300  21.248  0.00  0.00    -0.061 A 
ATOM     20  C   UNL     1       3.482   2.801  20.480  0.00  0.00    -0.061 A 
ATOM     21  C   UNL     1       4.012   3.568  19.441  0.00  0.00    -0.053 A 
ATOM     22  C   UNL     1       3.493   4.845  19.164  0.00  0.00    +0.000 A 
ATOM     23  C   UNL     1       3.986   5.654  18.137  0.00  0.00    +0.036 A 
ATOM     24  N   UNL     1       3.517   6.888  17.836  0.00  0.00    -0.250 NA
ATOM     25  H   UNL     1       1.106   7.048  20.227  0.00  0.00    +0.065 HD
ATOM     26  H   UNL     1       1.089   4.937  21.595  0.00  0.00    +0.062 HD
ATOM     27  H   UNL     1       2.020   2.702  22.058  0.00  0.00    +0.062 HD
ATOM     28  H   UNL     1       3.887   1.814  20.690  0.00  0.00    +0.062 HD
ATOM     29  H   UNL     1       4.831   3.163  18.851  0.00  0.00    +0.062 HD
ATOM     30  H   UNL     1       4.804   5.317  17.504  0.00  0.00    +0.084 HD
ENDBRANCH  12  15
ENDBRANCH   5  11
BRANCH   1  31
ATOM     31  C   UNL     1      -0.155  13.625  19.757  0.00  0.00    +0.035 C 
ATOM     32  H   UNL     1      -1.056  14.242  19.866  0.00  0.00    +0.046 HD
BRANCH  31  33
ATOM     33  C   UNL     1       0.886  14.446  18.991  0.00  0.00    -0.049 C 
ATOM     34  H   UNL     1       1.324  13.873  18.167  0.00  0.00    +0.024 HD
ATOM     35  H   UNL     1       0.469  15.367  18.569  0.00  0.00    +0.024 HD
ATOM     36  H   UNL     1       1.709  14.736  19.655  0.00  0.00    +0.024 HD
ENDBRANCH  31  33
BRANCH  31  37
ATOM     37  S   UNL     1       0.460  13.204  21.436  0.00  0.00    -0.078 S 
BRANCH  37  38
ATOM     38  C   UNL     1      -1.017  12.946  22.291  0.00  0.00    +0.192 A 
ATOM     39  N   UNL     1      -1.963  13.826  22.526  0.00  0.00    -0.123 NA
ATOM     40  N   UNL     1      -2.956  13.193  23.241  0.00  0.00    -0.137 NA
ATOM     41  C   UNL     1      -2.585  11.946  23.415  0.00  0.00    +0.120 A 
ATOM     42  N   UNL     1      -1.369  11.744  22.834  0.00  0.00    -0.312 N 
ATOM     43  H   UNL     1      -3.145  11.182  23.937  0.00  0.00    +0.105 HD
BRANCH  42  44
ATOM     44  C   UNL     1      -0.639  10.506  22.809  0.00  0.00    +0.015 C 
ATOM     45  H   UNL     1      -1.259   9.740  22.338  0.00  0.00    +0.046 HD
ATOM     46  H   UNL     1      -0.401  10.202  23.832  0.00  0.00    +0.046 HD
ATOM     47  H   UNL     1       0.288  10.655  22.250  0.00  0.00    +0.046 HD
ENDBRANCH  42  44
ENDBRANCH  37  38
ENDBRANCH  31  37
ENDBRANCH   1  31
TORSDOF 7
ENDMDL
MODEL 32
REMARK VINA RESULT:    -6.760      3.370      9.463
REMARK INTER + INTRA:          -9.679
REMARK INTER:                  -9.447
REMARK INTRA:                  -0.232
REMARK UNBOUND:                -0.548
REMARK  Name = 
REMARK  7 active torsions:
REMARK  status: ('A' for Active; 'I' for Inactive)
REMARK    1  A    between atoms: C_1  and  C_2
REMARK    2  A    between atoms: C_2  and  C_3
REMARK    3  A    between atoms: C_2  and  S_22
REMARK    4  A    between atoms: C_7  and  N_9
REMARK    5  A    between atoms: C_10  and  C_11
REMARK    6  A    between atoms: S_22  and  C_23
REMARK    7  A    between atoms: N_27  and  C_28
REMARK                            x       y       z     vdW  Elec       q    Type
REMARK                         _______ _______ _______ _____ _____    ______ ____
ROOT
ATOM      1  C   UNL     1       2.778   6.342  18.917  0.00  0.00    -0.033 A 
ATOM      2  C   UNL     1       3.445   6.832  17.785  0.00  0.00    -0.057 A 
ATOM      3  C   UNL     1       3.244   8.142  17.353  0.00  0.00    -0.060 A 
ATOM      4  C   UNL     1       2.376   8.988  18.048  0.00  0.00    -0.040 A 
ATOM      5  C   UNL     1       1.706   8.532  19.181  0.00  0.00    +0.034 A 
ATOM      6  C   UNL     1       1.913   7.212  19.609  0.00  0.00    -0.036 A 
ATOM      7  H   UNL     1       4.130   6.194  17.228  0.00  0.00    +0.062 HD
ATOM      8  H   UNL     1       3.764   8.511  16.473  0.00  0.00    +0.062 HD
ATOM      9  H   UNL     1       2.247  10.000  17.679  0.00  0.00    +0.064 HD
ATOM     10  H   UNL     1       1.401   6.856  20.500  0.00  0.00    +0.064 HD
ENDROOT
BRANCH   5  11
ATOM     11  N   UNL     1       0.822   9.320  19.937  0.00  0.00    -0.280 N 
ATOM     12  C   UNL     1       0.832   9.561  21.297  0.00  0.00    +0.267 C 
ATOM     13  O   UNL     1       1.624   9.125  22.125  0.00  0.00    -0.268 OA
ATOM     14  H   UNL     1       0.066   9.788  19.443  0.00  0.00    +0.155 HD
BRANCH  12  15
ATOM     15  C   UNL     1      -0.283  10.468  21.732  0.00  0.00    +0.126 A 
ATOM     16  C   UNL     1      -0.830  11.376  20.833  0.00  0.00    -0.023 A 
ATOM     17  C   UNL     1      -1.868  12.206  21.269  0.00  0.00    -0.014 A 
ATOM     18  C   UNL     1      -2.469  13.145  20.416  0.00  0.00    -0.054 A 
ATOM     19  C   UNL     1      -3.504  13.962  20.875  0.00  0.00    -0.061 A 
ATOM     20  C   UNL     1      -3.952  13.851  22.189  0.00  0.00    -0.061 A 
ATOM     21  C   UNL     1      -3.365  12.921  23.050  0.00  0.00    -0.053 A 
ATOM     22  C   UNL     1      -2.322  12.094  22.598  0.00  0.00    +0.000 A 
ATOM     23  C   UNL     1      -1.700  11.148  23.417  0.00  0.00    +0.036 A 
ATOM     24  N   UNL     1      -0.693  10.333  23.025  0.00  0.00    -0.250 NA
ATOM     25  H   UNL     1      -0.452  11.429  19.816  0.00  0.00    +0.065 HD
ATOM     26  H   UNL     1      -2.135  13.250  19.385  0.00  0.00    +0.062 HD
ATOM     27  H   UNL     1      -3.961  14.687  20.205  0.00  0.00    +0.062 HD
ATOM     28  H   UNL     1      -4.758  14.489  22.544  0.00  0.00    +0.062 HD
ATOM     29  H   UNL     1      -3.727  12.848  24.073  0.00  0.00    +0.062 HD
ATOM     30  H   UNL     1      -2.008  11.016  24.452  0.00  0.00    +0.084 HD
ENDBRANCH  12  15
ENDBRANCH   5  11
BRANCH   1  31
ATOM     31  C   UNL     1       3.020   4.910  19.371  0.00  0.00    +0.035 C 
ATOM     32  H   UNL     1       2.677   4.242  18.572  0.00  0.00    +0.046 HD
BRANCH  31  33
ATOM     33  C   UNL     1       2.236   4.563  20.640  0.00  0.00    -0.049 C 
ATOM     34  H   UNL     1       2.795   4.828  21.544  0.00  0.00    +0.024 HD
ATOM     35  H   UNL     1       1.266   5.071  20.690  0.00  0.00    +0.024 HD
ATOM     36  H   UNL     1       2.040   3.485  20.687  0.00  0.00    +0.024 HD
ENDBRANCH  31  33
BRANCH  31  37
ATOM     37  S   UNL     1       4.817   4.632  19.624  0.00  0.00    -0.078 S 
BRANCH  37  38
ATOM     38  C   UNL     1       5.352   4.336  18.009  0.00  0.00    +0.192 A 
ATOM     39  N   UNL     1       4.732   3.647  17.080  0.00  0.00    -0.123 NA
ATOM     40  N   UNL     1       5.516   3.667  15.948  0.00  0.00    -0.137 NA
ATOM     41  C   UNL     1       6.589   4.372  16.223  0.00  0.00    +0.120 A 
ATOM     42  N   UNL     1       6.530   4.815  17.511  0.00  0.00    -0.312 N 
ATOM     43  H   UNL     1       7.405   4.580  15.544  0.00  0.00    +0.105 HD
BRANCH  42  44
ATOM     44  C   UNL     1       7.517   5.622  18.173  0.00  0.00    +0.015 C 
ATOM     45  H   UNL     1       8.120   6.133  17.419  0.00  0.00    +0.046 HD
ATOM     46  H   UNL     1       8.163   4.983  18.782  0.00  0.00    +0.046 HD
ATOM     47  H   UNL     1       7.007   6.342  18.819  0.00  0.00    +0.046 HD
ENDBRANCH  42  44
ENDBRANCH  37  38
ENDBRANCH  31  37
ENDBRANCH   1  31
TORSDOF 7
ENDMDL
MODEL 33
REMARK VINA RESULT:    -6.709      2.153      3.525
REMARK INTER + INTRA:          -9.611
REMARK INTER:                  -9.062
REMARK INTRA:                  -0.548
REMARK UNBOUND:                -0.548
REMARK  Name = 
REMARK  7 active torsions:
REMARK  status: ('A' for Active; 'I' for Inactive)
REMARK    1  A    between atoms: C_1  and  C_2
REMARK    2  A    between atoms: C_2  and  C_3
REMARK    3  A    between atoms: C_2  and  S_22
REMARK    4  A    between atoms: C_7  and  N_9
REMARK    5  A    between atoms: C_10  and  C_11
REMARK    6  A    between atoms: S_22  and  C_23
REMARK    7  A    between atoms: N_27  and  C_28
REMARK                            x       y       z     vdW  Elec       q    Type
REMARK                         _______ _______ _______ _____ _____    ______ ____
ROOT
ATOM      1  C   UNL     1      -0.133  12.594  19.033  0.00  0.00    -0.033 A 
ATOM      2  C   UNL     1       0.821  13.491  18.530  0.00  0.00    -0.057 A 
ATOM      3  C   UNL     1       2.069  13.037  18.107  0.00  0.00    -0.060 A 
ATOM      4  C   UNL     1       2.385  11.678  18.174  0.00  0.00    -0.040 A 
ATOM      5  C   UNL     1       1.454  10.763  18.661  0.00  0.00    +0.034 A 
ATOM      6  C   UNL     1       0.200  11.227  19.086  0.00  0.00    -0.036 A 
ATOM      7  H   UNL     1       0.599  14.555  18.463  0.00  0.00    +0.062 HD
ATOM      8  H   UNL     1       2.802  13.740  17.721  0.00  0.00    +0.062 HD
ATOM      9  H   UNL     1       3.367  11.365  17.835  0.00  0.00    +0.064 HD
ATOM     10  H   UNL     1      -0.533  10.515  19.455  0.00  0.00    +0.064 HD
ENDROOT
BRANCH   5  11
ATOM     11  N   UNL     1       1.692   9.382  18.756  0.00  0.00    -0.280 N 
ATOM     12  C   UNL     1       1.603   8.567  19.869  0.00  0.00    +0.267 C 
ATOM     13  O   UNL     1       1.297   8.895  21.009  0.00  0.00    -0.268 OA
ATOM     14  H   UNL     1       1.967   8.889  17.908  0.00  0.00    +0.155 HD
BRANCH  12  15
ATOM     15  C   UNL     1       1.932   7.134  19.563  0.00  0.00    +0.126 A 
ATOM     16  C   UNL     1       1.560   6.132  20.452  0.00  0.00    -0.023 A 
ATOM     17  C   UNL     1       1.881   4.807  20.137  0.00  0.00    -0.014 A 
ATOM     18  C   UNL     1       1.536   3.743  20.987  0.00  0.00    -0.054 A 
ATOM     19  C   UNL     1       1.867   2.429  20.650  0.00  0.00    -0.061 A 
ATOM     20  C   UNL     1       2.545   2.161  19.463  0.00  0.00    -0.061 A 
ATOM     21  C   UNL     1       2.894   3.208  18.607  0.00  0.00    -0.053 A 
ATOM     22  C   UNL     1       2.566   4.535  18.937  0.00  0.00    +0.000 A 
ATOM     23  C   UNL     1       2.892   5.619  18.117  0.00  0.00    +0.036 A 
ATOM     24  N   UNL     1       2.597   6.910  18.395  0.00  0.00    -0.250 NA
ATOM     25  H   UNL     1       1.032   6.384  21.366  0.00  0.00    +0.065 HD
ATOM     26  H   UNL     1       1.007   3.930  21.919  0.00  0.00    +0.062 HD
ATOM     27  H   UNL     1       1.595   1.614  21.316  0.00  0.00    +0.062 HD
ATOM     28  H   UNL     1       2.801   1.136  19.203  0.00  0.00    +0.062 HD
ATOM     29  H   UNL     1       3.423   2.980  17.685  0.00  0.00    +0.062 HD
ATOM     30  H   UNL     1       3.421   5.470  17.178  0.00  0.00    +0.084 HD
ENDBRANCH  12  15
ENDBRANCH   5  11
BRANCH   1  31
ATOM     31  C   UNL     1      -1.490  13.115  19.482  0.00  0.00    +0.035 C 
ATOM     32  H   UNL     1      -1.922  13.687  18.651  0.00  0.00    +0.046 HD
BRANCH  31  33
ATOM     33  C   UNL     1      -1.382  14.052  20.689  0.00  0.00    -0.049 C 
ATOM     34  H   UNL     1      -1.284  13.493  21.625  0.00  0.00    +0.024 HD
ATOM     35  H   UNL     1      -0.526  14.733  20.619  0.00  0.00    +0.024 HD
ATOM     36  H   UNL     1      -2.283  14.671  20.775  0.00  0.00    +0.024 HD
ENDBRANCH  31  33
BRANCH  31  37
ATOM     37  S   UNL     1      -2.607  11.706  19.855  0.00  0.00    -0.078 S 
BRANCH  37  38
ATOM     38  C   UNL     1      -3.586  11.655  18.434  0.00  0.00    +0.192 A 
ATOM     39  N   UNL     1      -4.702  12.310  18.214  0.00  0.00    -0.123 NA
ATOM     40  N   UNL     1      -5.147  11.973  16.955  0.00  0.00    -0.137 NA
ATOM     41  C   UNL     1      -4.283  11.124  16.446  0.00  0.00    +0.120 A 
ATOM     42  N   UNL     1      -3.283  10.894  17.342  0.00  0.00    -0.312 N 
ATOM     43  H   UNL     1      -4.341  10.668  15.467  0.00  0.00    +0.105 HD
BRANCH  42  44
ATOM     44  C   UNL     1      -2.153  10.029  17.143  0.00  0.00    +0.015 C 
ATOM     45  H   UNL     1      -1.738  10.212  16.149  0.00  0.00    +0.046 HD
ATOM     46  H   UNL     1      -2.474   8.986  17.216  0.00  0.00    +0.046 HD
ATOM     47  H   UNL     1      -1.411  10.235  17.919  0.00  0.00    +0.046 HD
ENDBRANCH  42  44
ENDBRANCH  37  38
ENDBRANCH  31  37
ENDBRANCH   1  31
TORSDOF 7
ENDMDL
