MODEL 1
REMARK VINA RESULT:    -9.014      0.000      0.000
REMARK INTER + INTRA:         -11.729
REMARK INTER:                 -11.158
REMARK INTRA:                  -0.571
REMARK UNBOUND:                -0.080
REMARK  Name = 
REMARK  5 active torsions:
REMARK  status: ('A' for Active; 'I' for Inactive)
REMARK    1  A    between atoms: C_2  and  C_15
REMARK    2  A    between atoms: N_3  and  C_4
REMARK    3  A    between atoms: C_4  and  C_5
REMARK    4  A    between atoms: C_19  and  S_20
REMARK    5  A    between atoms: S_20  and  N_23
REMARK                            x       y       z     vdW  Elec       q    Type
REMARK                         _______ _______ _______ _____ _____    ______ ____
ROOT
ATOM      1  C   UNL     1       1.541   8.661  19.281  0.00  0.00    +0.039 A 
ATOM      2  C   UNL     1       1.413   8.173  20.589  0.00  0.00    -0.050 A 
ATOM      3  C   UNL     1       0.505   8.753  21.479  0.00  0.00    -0.059 A 
ATOM      4  C   UNL     1      -0.294   9.817  21.064  0.00  0.00    -0.035 A 
ATOM      5  C   UNL     1      -0.185  10.283  19.750  0.00  0.00    +0.106 A 
ATOM      6  C   UNL     1       0.729   9.717  18.854  0.00  0.00    -0.023 A 
ATOM      7  H   UNL     1       2.032   7.340  20.922  0.00  0.00    +0.063 HD
ATOM      8  H   UNL     1       0.424   8.375  22.495  0.00  0.00    +0.062 HD
ATOM      9  H   UNL     1      -0.995  10.271  21.762  0.00  0.00    +0.064 HD
ATOM     10  H   UNL     1       0.777  10.089  17.834  0.00  0.00    +0.064 HD
ENDROOT
BRANCH   1  12
ATOM     11  O   UNL     1       2.736   8.474  17.262  0.00  0.00    -0.270 OA
ATOM     12  C   UNL     1       2.523   8.007  18.374  0.00  0.00    +0.244 C 
ATOM     13  N   UNL     1       3.141   6.872  18.853  0.00  0.00    -0.308 N 
ATOM     14  H   UNL     1       2.761   6.417  19.674  0.00  0.00    +0.149 HD
BRANCH  13  15
ATOM     15  C   UNL     1       4.016   6.071  18.011  0.00  0.00    +0.052 C 
ATOM     16  H   UNL     1       4.386   6.731  17.219  0.00  0.00    +0.050 HD
ATOM     17  H   UNL     1       4.892   5.786  18.605  0.00  0.00    +0.050 HD
BRANCH  15  18
ATOM     18  C   UNL     1       3.370   4.803  17.417  0.00  0.00    +0.149 C 
ATOM     19  C   UNL     1       4.254   3.560  17.506  0.00  0.00    +0.128 C 
ATOM     20  O   UNL     1       4.539   3.212  18.865  0.00  0.00    -0.485 OA
ATOM     21  C   UNL     1       3.389   3.194  19.612  0.00  0.00    +0.162 A 
ATOM     22  C   UNL     1       3.440   2.512  20.826  0.00  0.00    -0.016 A 
ATOM     23  C   UNL     1       2.302   2.444  21.632  0.00  0.00    -0.058 A 
ATOM     24  C   UNL     1       1.119   3.062  21.225  0.00  0.00    -0.058 A 
ATOM     25  C   UNL     1       1.074   3.758  20.015  0.00  0.00    -0.016 A 
ATOM     26  C   UNL     1       2.212   3.835  19.215  0.00  0.00    +0.163 A 
ATOM     27  O   UNL     1       2.101   4.565  18.061  0.00  0.00    -0.480 OA
ATOM     28  H   UNL     1       3.143   4.976  16.360  0.00  0.00    +0.078 HD
ATOM     29  H   UNL     1       3.766   2.700  17.028  0.00  0.00    +0.073 HD
ATOM     30  H   UNL     1       5.208   3.717  16.994  0.00  0.00    +0.073 HD
ATOM     31  H   UNL     1       4.360   2.026  21.139  0.00  0.00    +0.066 HD
ATOM     32  H   UNL     1       2.338   1.907  22.577  0.00  0.00    +0.062 HD
ATOM     33  H   UNL     1       0.232   3.006  21.851  0.00  0.00    +0.062 HD
ATOM     34  H   UNL     1       0.157   4.248  19.703  0.00  0.00    +0.066 HD
ENDBRANCH  15  18
ENDBRANCH  13  15
ENDBRANCH   1  12
BRANCH   5  35
ATOM     35  S   UNL     1      -1.196  11.629  19.192  0.00  0.00    +0.061 S 
ATOM     36  O   UNL     1      -0.459  12.305  18.147  0.00  0.00    -0.153 OA
ATOM     37  O   UNL     1      -1.694  12.348  20.345  0.00  0.00    -0.153 OA
BRANCH  35  38
ATOM     38  N   UNL     1      -2.520  10.826  18.475  0.00  0.00    -0.172 NA
ATOM     39  C   UNL     1      -3.793  11.621  18.409  0.00  0.00    +0.044 C 
ATOM     40  C   UNL     1      -4.739  11.032  17.358  0.00  0.00    +0.062 C 
ATOM     41  O   UNL     1      -4.203  11.089  16.029  0.00  0.00    -0.377 OA
ATOM     42  C   UNL     1      -2.771  11.000  15.991  0.00  0.00    +0.062 C 
ATOM     43  C   UNL     1      -2.190  10.189  17.153  0.00  0.00    +0.044 C 
ATOM     44  H   UNL     1      -4.279  11.589  19.389  0.00  0.00    +0.047 HD
ATOM     45  H   UNL     1      -3.575  12.663  18.151  0.00  0.00    +0.047 HD
ATOM     46  H   UNL     1      -4.969   9.985  17.585  0.00  0.00    +0.057 HD
ATOM     47  H   UNL     1      -5.685  11.581  17.352  0.00  0.00    +0.057 HD
ATOM     48  H   UNL     1      -2.499  10.539  15.037  0.00  0.00    +0.057 HD
ATOM     49  H   UNL     1      -2.370  12.019  15.989  0.00  0.00    +0.057 HD
ATOM     50  H   UNL     1      -1.111  10.073  17.023  0.00  0.00    +0.047 HD
ATOM     51  H   UNL     1      -2.622   9.181  17.167  0.00  0.00    +0.047 HD
ENDBRANCH  35  38
ENDBRANCH   5  35
TORSDOF 5
ENDMDL
MODEL 2
REMARK VINA RESULT:    -8.543      2.167      3.870
REMARK INTER + INTRA:         -11.121
REMARK INTER:                 -10.607
REMARK INTRA:                  -0.514
REMARK UNBOUND:                -0.080
REMARK  Name = 
REMARK  5 active torsions:
REMARK  status: ('A' for Active; 'I' for Inactive)
REMARK    1  A    between atoms: C_2  and  C_15
REMARK    2  A    between atoms: N_3  and  C_4
REMARK    3  A    between atoms: C_4  and  C_5
REMARK    4  A    between atoms: C_19  and  S_20
REMARK    5  A    between atoms: S_20  and  N_23
REMARK                            x       y       z     vdW  Elec       q    Type
REMARK                         _______ _______ _______ _____ _____    ______ ____
ROOT
ATOM      1  C   UNL     1       1.837   7.828  19.500  0.00  0.00    +0.039 A 
ATOM      2  C   UNL     1       2.343   8.178  18.240  0.00  0.00    -0.050 A 
ATOM      3  C   UNL     1       2.120   9.453  17.714  0.00  0.00    -0.059 A 
ATOM      4  C   UNL     1       1.400  10.394  18.448  0.00  0.00    -0.035 A 
ATOM      5  C   UNL     1       0.921  10.051  19.716  0.00  0.00    +0.106 A 
ATOM      6  C   UNL     1       1.129   8.774  20.249  0.00  0.00    -0.023 A 
ATOM      7  H   UNL     1       2.908   7.449  17.660  0.00  0.00    +0.063 HD
ATOM      8  H   UNL     1       2.506   9.709  16.730  0.00  0.00    +0.062 HD
ATOM      9  H   UNL     1       1.222  11.383  18.031  0.00  0.00    +0.064 HD
ATOM     10  H   UNL     1       0.760   8.544  21.244  0.00  0.00    +0.064 HD
ENDROOT
BRANCH   1  12
ATOM     11  O   UNL     1       1.603   6.090  21.070  0.00  0.00    -0.270 OA
ATOM     12  C   UNL     1       2.102   6.457  20.014  0.00  0.00    +0.244 C 
ATOM     13  N   UNL     1       2.935   5.665  19.252  0.00  0.00    -0.308 N 
ATOM     14  H   UNL     1       3.487   6.097  18.522  0.00  0.00    +0.149 HD
BRANCH  13  15
ATOM     15  C   UNL     1       3.376   4.360  19.717  0.00  0.00    +0.052 C 
ATOM     16  H   UNL     1       3.843   4.513  20.696  0.00  0.00    +0.050 HD
ATOM     17  H   UNL     1       2.487   3.745  19.897  0.00  0.00    +0.050 HD
BRANCH  15  18
ATOM     18  C   UNL     1       4.327   3.612  18.761  0.00  0.00    +0.149 C 
ATOM     19  C   UNL     1       4.085   3.919  17.285  0.00  0.00    +0.128 C 
ATOM     20  O   UNL     1       4.302   5.302  16.991  0.00  0.00    -0.485 OA
ATOM     21  C   UNL     1       5.498   5.727  17.511  0.00  0.00    +0.162 A 
ATOM     22  C   UNL     1       6.024   6.909  16.993  0.00  0.00    -0.016 A 
ATOM     23  C   UNL     1       7.244   7.393  17.469  0.00  0.00    -0.058 A 
ATOM     24  C   UNL     1       7.931   6.698  18.466  0.00  0.00    -0.058 A 
ATOM     25  C   UNL     1       7.395   5.522  18.994  0.00  0.00    -0.016 A 
ATOM     26  C   UNL     1       6.173   5.044  18.526  0.00  0.00    +0.163 A 
ATOM     27  O   UNL     1       5.694   3.904  19.119  0.00  0.00    -0.480 OA
ATOM     28  H   UNL     1       4.204   2.533  18.903  0.00  0.00    +0.078 HD
ATOM     29  H   UNL     1       4.756   3.325  16.649  0.00  0.00    +0.073 HD
ATOM     30  H   UNL     1       3.060   3.672  16.993  0.00  0.00    +0.073 HD
ATOM     31  H   UNL     1       5.491   7.446  16.214  0.00  0.00    +0.066 HD
ATOM     32  H   UNL     1       7.659   8.311  17.062  0.00  0.00    +0.062 HD
ATOM     33  H   UNL     1       8.882   7.073  18.834  0.00  0.00    +0.062 HD
ATOM     34  H   UNL     1       7.925   4.986  19.776  0.00  0.00    +0.066 HD
ENDBRANCH  15  18
ENDBRANCH  13  15
ENDBRANCH   1  12
BRANCH   5  35
ATOM     35  S   UNL     1       0.011  11.232  20.676  0.00  0.00    +0.061 S 
ATOM     36  O   UNL     1       0.942  12.273  21.056  0.00  0.00    -0.153 OA
ATOM     37  O   UNL     1      -0.772  10.526  21.668  0.00  0.00    -0.153 OA
BRANCH  35  38
ATOM     38  N   UNL     1      -1.075  11.883  19.532  0.00  0.00    -0.172 NA
ATOM     39  C   UNL     1      -1.991  10.888  18.879  0.00  0.00    +0.044 C 
ATOM     40  C   UNL     1      -3.203  11.596  18.264  0.00  0.00    +0.062 C 
ATOM     41  O   UNL     1      -4.017  12.259  19.239  0.00  0.00    -0.377 OA
ATOM     42  C   UNL     1      -3.273  12.732  20.373  0.00  0.00    +0.062 C 
ATOM     43  C   UNL     1      -1.824  13.088  20.032  0.00  0.00    +0.044 C 
ATOM     44  H   UNL     1      -1.440  10.366  18.090  0.00  0.00    +0.047 HD
ATOM     45  H   UNL     1      -2.341  10.157  19.616  0.00  0.00    +0.047 HD
ATOM     46  H   UNL     1      -2.883  12.342  17.527  0.00  0.00    +0.057 HD
ATOM     47  H   UNL     1      -3.838  10.874  17.743  0.00  0.00    +0.057 HD
ATOM     48  H   UNL     1      -3.796  13.611  20.761  0.00  0.00    +0.057 HD
ATOM     49  H   UNL     1      -3.312  11.958  21.148  0.00  0.00    +0.057 HD
ATOM     50  H   UNL     1      -1.334  13.530  20.904  0.00  0.00    +0.047 HD
ATOM     51  H   UNL     1      -1.793  13.838  19.232  0.00  0.00    +0.047 HD
ENDBRANCH  35  38
ENDBRANCH   5  35
TORSDOF 5
ENDMDL
MODEL 3
REMARK VINA RESULT:    -8.541      0.933      1.210
REMARK INTER + INTRA:         -11.118
REMARK INTER:                 -10.808
REMARK INTRA:                  -0.310
REMARK UNBOUND:                -0.080
REMARK  Name = 
REMARK  5 active torsions:
REMARK  status: ('A' for Active; 'I' for Inactive)
REMARK    1  A    between atoms: C_2  and  C_15
REMARK    2  A    between atoms: N_3  and  C_4
REMARK    3  A    between atoms: C_4  and  C_5
REMARK    4  A    between atoms: C_19  and  S_20
REMARK    5  A    between atoms: S_20  and  N_23
REMARK                            x       y       z     vdW  Elec       q    Type
REMARK                         _______ _______ _______ _____ _____    ______ ____
ROOT
ATOM      1  C   UNL     1       1.606   8.709  19.049  0.00  0.00    +0.039 A 
ATOM      2  C   UNL     1       1.554   8.077  20.299  0.00  0.00    -0.050 A 
ATOM      3  C   UNL     1       0.665   8.520  21.284  0.00  0.00    -0.059 A 
ATOM      4  C   UNL     1      -0.188   9.590  21.021  0.00  0.00    -0.035 A 
ATOM      5  C   UNL     1      -0.153  10.200  19.763  0.00  0.00    +0.106 A 
ATOM      6  C   UNL     1       0.740   9.772  18.774  0.00  0.00    -0.023 A 
ATOM      7  H   UNL     1       2.216   7.238  20.513  0.00  0.00    +0.063 HD
ATOM      8  H   UNL     1       0.643   8.030  22.254  0.00  0.00    +0.062 HD
ATOM      9  H   UNL     1      -0.873   9.936  21.792  0.00  0.00    +0.064 HD
ATOM     10  H   UNL     1       0.730  10.255  17.801  0.00  0.00    +0.064 HD
ENDROOT
BRANCH   1  12
ATOM     11  O   UNL     1       2.800   8.849  17.025  0.00  0.00    -0.270 OA
ATOM     12  C   UNL     1       2.570   8.199  18.037  0.00  0.00    +0.244 C 
ATOM     13  N   UNL     1       3.152   6.977  18.303  0.00  0.00    -0.308 N 
ATOM     14  H   UNL     1       2.756   6.395  19.031  0.00  0.00    +0.149 HD
BRANCH  13  15
ATOM     15  C   UNL     1       4.003   6.313  17.329  0.00  0.00    +0.052 C 
ATOM     16  H   UNL     1       3.394   6.150  16.433  0.00  0.00    +0.050 HD
ATOM     17  H   UNL     1       4.794   7.014  17.035  0.00  0.00    +0.050 HD
BRANCH  15  18
ATOM     18  C   UNL     1       4.644   4.996  17.810  0.00  0.00    +0.149 C 
ATOM     19  C   UNL     1       4.961   4.973  19.304  0.00  0.00    +0.128 C 
ATOM     20  O   UNL     1       3.777   5.102  20.097  0.00  0.00    -0.485 OA
ATOM     21  C   UNL     1       2.809   4.231  19.669  0.00  0.00    +0.162 A 
ATOM     22  C   UNL     1       1.768   3.963  20.555  0.00  0.00    -0.016 A 
ATOM     23  C   UNL     1       0.754   3.077  20.188  0.00  0.00    -0.058 A 
ATOM     24  C   UNL     1       0.781   2.464  18.934  0.00  0.00    -0.058 A 
ATOM     25  C   UNL     1       1.817   2.745  18.041  0.00  0.00    -0.016 A 
ATOM     26  C   UNL     1       2.824   3.638  18.403  0.00  0.00    +0.163 A 
ATOM     27  O   UNL     1       3.786   3.890  17.461  0.00  0.00    -0.480 OA
ATOM     28  H   UNL     1       5.581   4.833  17.266  0.00  0.00    +0.078 HD
ATOM     29  H   UNL     1       5.458   4.034  19.582  0.00  0.00    +0.073 HD
ATOM     30  H   UNL     1       5.637   5.789  19.577  0.00  0.00    +0.073 HD
ATOM     31  H   UNL     1       1.751   4.436  21.533  0.00  0.00    +0.066 HD
ATOM     32  H   UNL     1      -0.055   2.862  20.881  0.00  0.00    +0.062 HD
ATOM     33  H   UNL     1      -0.006   1.770  18.650  0.00  0.00    +0.062 HD
ATOM     34  H   UNL     1       1.834   2.276  17.062  0.00  0.00    +0.066 HD
ENDBRANCH  15  18
ENDBRANCH  13  15
ENDBRANCH   1  12
BRANCH   5  35
ATOM     35  S   UNL     1      -1.235  11.557  19.399  0.00  0.00    +0.061 S 
ATOM     36  O   UNL     1      -0.562  12.381  18.418  0.00  0.00    -0.153 OA
ATOM     37  O   UNL     1      -1.720  12.116  20.643  0.00  0.00    -0.153 OA
BRANCH  35  38
ATOM     38  N   UNL     1      -2.552  10.787  18.633  0.00  0.00    -0.172 NA
ATOM     39  C   UNL     1      -3.764  11.649  18.423  0.00  0.00    +0.044 C 
ATOM     40  C   UNL     1      -4.667  11.049  17.340  0.00  0.00    +0.062 C 
ATOM     41  O   UNL     1      -4.034  10.987  16.055  0.00  0.00    -0.377 OA
ATOM     42  C   UNL     1      -2.611  10.812  16.131  0.00  0.00    +0.062 C 
ATOM     43  C   UNL     1      -2.168  10.047  17.381  0.00  0.00    +0.044 C 
ATOM     44  H   UNL     1      -4.321  11.710  19.363  0.00  0.00    +0.047 HD
ATOM     45  H   UNL     1      -3.463  12.657  18.118  0.00  0.00    +0.047 HD
ATOM     46  H   UNL     1      -4.978  10.034  17.613  0.00  0.00    +0.057 HD
ATOM     47  H   UNL     1      -5.574  11.650  17.229  0.00  0.00    +0.057 HD
ATOM     48  H   UNL     1      -2.301  10.275  15.231  0.00  0.00    +0.057 HD
ATOM     49  H   UNL     1      -2.148  11.805  16.098  0.00  0.00    +0.057 HD
ATOM     50  H   UNL     1      -1.091   9.860  17.341  0.00  0.00    +0.047 HD
ATOM     51  H   UNL     1      -2.662   9.069  17.424  0.00  0.00    +0.047 HD
ENDBRANCH  35  38
ENDBRANCH   5  35
TORSDOF 5
ENDMDL
MODEL 4
REMARK VINA RESULT:    -8.540      2.852      4.402
REMARK INTER + INTRA:         -11.117
REMARK INTER:                 -10.516
REMARK INTRA:                  -0.601
REMARK UNBOUND:                -0.080
REMARK  Name = 
REMARK  5 active torsions:
REMARK  status: ('A' for Active; 'I' for Inactive)
REMARK    1  A    between atoms: C_2  and  C_15
REMARK    2  A    between atoms: N_3  and  C_4
REMARK    3  A    between atoms: C_4  and  C_5
REMARK    4  A    between atoms: C_19  and  S_20
REMARK    5  A    between atoms: S_20  and  N_23
REMARK                            x       y       z     vdW  Elec       q    Type
REMARK                         _______ _______ _______ _____ _____    ______ ____
ROOT
ATOM      1  C   UNL     1       0.663   9.424  20.840  0.00  0.00    +0.039 A 
ATOM      2  C   UNL     1       0.702   8.886  22.133  0.00  0.00    -0.050 A 
ATOM      3  C   UNL     1      -0.008   9.489  23.176  0.00  0.00    -0.059 A 
ATOM      4  C   UNL     1      -0.773  10.628  22.930  0.00  0.00    -0.035 A 
ATOM      5  C   UNL     1      -0.832  11.145  21.632  0.00  0.00    +0.106 A 
ATOM      6  C   UNL     1      -0.117  10.556  20.583  0.00  0.00    -0.023 A 
ATOM      7  H   UNL     1       1.296   7.995  22.334  0.00  0.00    +0.063 HD
ATOM      8  H   UNL     1       0.040   9.070  24.178  0.00  0.00    +0.062 HD
ATOM      9  H   UNL     1      -1.318  11.099  23.746  0.00  0.00    +0.064 HD
ATOM     10  H   UNL     1      -0.198  10.971  19.583  0.00  0.00    +0.064 HD
ENDROOT
BRANCH   1  12
ATOM     11  O   UNL     1       1.453   9.208  18.633  0.00  0.00    -0.270 OA
ATOM     12  C   UNL     1       1.437   8.743  19.766  0.00  0.00    +0.244 C 
ATOM     13  N   UNL     1       2.096   7.586  20.122  0.00  0.00    -0.308 N 
ATOM     14  H   UNL     1       1.861   7.140  21.000  0.00  0.00    +0.149 HD
BRANCH  13  15
ATOM     15  C   UNL     1       2.770   6.761  19.133  0.00  0.00    +0.052 C 
ATOM     16  H   UNL     1       2.076   6.639  18.294  0.00  0.00    +0.050 HD
ATOM     17  H   UNL     1       3.623   7.329  18.742  0.00  0.00    +0.050 HD
BRANCH  15  18
ATOM     18  C   UNL     1       3.263   5.394  19.647  0.00  0.00    +0.149 C 
ATOM     19  C   UNL     1       2.712   4.204  18.864  0.00  0.00    +0.128 C 
ATOM     20  O   UNL     1       3.125   4.237  17.494  0.00  0.00    -0.485 OA
ATOM     21  C   UNL     1       4.475   4.453  17.399  0.00  0.00    +0.162 A 
ATOM     22  C   UNL     1       5.079   4.133  16.185  0.00  0.00    -0.016 A 
ATOM     23  C   UNL     1       6.453   4.317  16.023  0.00  0.00    -0.058 A 
ATOM     24  C   UNL     1       7.219   4.826  17.073  0.00  0.00    -0.058 A 
ATOM     25  C   UNL     1       6.610   5.161  18.284  0.00  0.00    -0.016 A 
ATOM     26  C   UNL     1       5.237   4.987  18.442  0.00  0.00    +0.163 A 
ATOM     27  O   UNL     1       4.705   5.373  19.646  0.00  0.00    -0.480 OA
ATOM     28  H   UNL     1       2.962   5.273  20.694  0.00  0.00    +0.078 HD
ATOM     29  H   UNL     1       3.056   3.257  19.301  0.00  0.00    +0.073 HD
ATOM     30  H   UNL     1       1.618   4.190  18.884  0.00  0.00    +0.073 HD
ATOM     31  H   UNL     1       4.483   3.731  15.371  0.00  0.00    +0.066 HD
ATOM     32  H   UNL     1       6.927   4.061  15.079  0.00  0.00    +0.062 HD
ATOM     33  H   UNL     1       8.290   4.966  16.948  0.00  0.00    +0.062 HD
ATOM     34  H   UNL     1       7.204   5.567  19.098  0.00  0.00    +0.066 HD
ENDBRANCH  15  18
ENDBRANCH  13  15
ENDBRANCH   1  12
BRANCH   5  35
ATOM     35  S   UNL     1      -1.806  12.588  21.290  0.00  0.00    +0.061 S 
ATOM     36  O   UNL     1      -2.698  12.245  20.203  0.00  0.00    -0.153 OA
ATOM     37  O   UNL     1      -0.929  13.736  21.208  0.00  0.00    -0.153 OA
BRANCH  35  38
ATOM     38  N   UNL     1      -2.738  12.752  22.710  0.00  0.00    -0.172 NA
ATOM     39  C   UNL     1      -2.366  13.911  23.590  0.00  0.00    +0.044 C 
ATOM     40  C   UNL     1      -3.518  14.253  24.541  0.00  0.00    +0.062 C 
ATOM     41  O   UNL     1      -4.702  14.679  23.855  0.00  0.00    -0.377 OA
ATOM     42  C   UNL     1      -4.854  14.080  22.559  0.00  0.00    +0.062 C 
ATOM     43  C   UNL     1      -4.220  12.689  22.466  0.00  0.00    +0.044 C 
ATOM     44  H   UNL     1      -1.483  13.639  24.177  0.00  0.00    +0.047 HD
ATOM     45  H   UNL     1      -2.134  14.790  22.980  0.00  0.00    +0.047 HD
ATOM     46  H   UNL     1      -3.779  13.388  25.161  0.00  0.00    +0.057 HD
ATOM     47  H   UNL     1      -3.222  15.061  25.217  0.00  0.00    +0.057 HD
ATOM     48  H   UNL     1      -5.926  14.020  22.352  0.00  0.00    +0.057 HD
ATOM     49  H   UNL     1      -4.413  14.758  21.821  0.00  0.00    +0.057 HD
ATOM     50  H   UNL     1      -4.447  12.242  21.494  0.00  0.00    +0.047 HD
ATOM     51  H   UNL     1      -4.643  12.025  23.230  0.00  0.00    +0.047 HD
ENDBRANCH  35  38
ENDBRANCH   5  35
TORSDOF 5
ENDMDL
MODEL 5
REMARK VINA RESULT:    -8.501      1.982      2.921
REMARK INTER + INTRA:         -11.066
REMARK INTER:                 -10.509
REMARK INTRA:                  -0.557
REMARK UNBOUND:                -0.080
REMARK  Name = 
REMARK  5 active torsions:
REMARK  status: ('A' for Active; 'I' for Inactive)
REMARK    1  A    between atoms: C_2  and  C_15
REMARK    2  A    between atoms: N_3  and  C_4
REMARK    3  A    between atoms: C_4  and  C_5
REMARK    4  A    between atoms: C_19  and  S_20
REMARK    5  A    between atoms: S_20  and  N_23
REMARK                            x       y       z     vdW  Elec       q    Type
REMARK                         _______ _______ _______ _____ _____    ______ ____
ROOT
ATOM      1  C   UNL     1       1.440   8.686  19.522  0.00  0.00    +0.039 A 
ATOM      2  C   UNL     1       1.319   8.097  20.789  0.00  0.00    -0.050 A 
ATOM      3  C   UNL     1       0.474   8.654  21.753  0.00  0.00    -0.059 A 
ATOM      4  C   UNL     1      -0.267   9.796  21.455  0.00  0.00    -0.035 A 
ATOM      5  C   UNL     1      -0.165  10.364  20.181  0.00  0.00    +0.106 A 
ATOM      6  C   UNL     1       0.685   9.822  19.211  0.00  0.00    -0.023 A 
ATOM      7  H   UNL     1       1.894   7.204  21.030  0.00  0.00    +0.063 HD
ATOM      8  H   UNL     1       0.398   8.196  22.737  0.00  0.00    +0.062 HD
ATOM      9  H   UNL     1      -0.918  10.230  22.211  0.00  0.00    +0.064 HD
ATOM     10  H   UNL     1       0.728  10.276  18.225  0.00  0.00    +0.064 HD
ENDROOT
BRANCH   1  12
ATOM     11  O   UNL     1       2.458   8.525  17.406  0.00  0.00    -0.270 OA
ATOM     12  C   UNL     1       2.354   8.054  18.532  0.00  0.00    +0.244 C 
ATOM     13  N   UNL     1       3.036   6.932  18.953  0.00  0.00    -0.308 N 
ATOM     14  H   UNL     1       2.739   6.470  19.803  0.00  0.00    +0.149 HD
BRANCH  13  15
ATOM     15  C   UNL     1       3.851   6.151  18.037  0.00  0.00    +0.052 C 
ATOM     16  H   UNL     1       4.176   6.830  17.242  0.00  0.00    +0.050 HD
ATOM     17  H   UNL     1       4.760   5.845  18.567  0.00  0.00    +0.050 HD
BRANCH  15  18
ATOM     18  C   UNL     1       3.161   4.903  17.450  0.00  0.00    +0.149 C 
ATOM     19  C   UNL     1       4.042   3.656  17.442  0.00  0.00    +0.128 C 
ATOM     20  O   UNL     1       4.415   3.265  18.767  0.00  0.00    -0.485 OA
ATOM     21  C   UNL     1       3.318   3.228  19.589  0.00  0.00    +0.162 A 
ATOM     22  C   UNL     1       3.446   2.509  20.776  0.00  0.00    -0.016 A 
ATOM     23  C   UNL     1       2.364   2.420  21.654  0.00  0.00    -0.058 A 
ATOM     24  C   UNL     1       1.160   3.054  21.346  0.00  0.00    -0.058 A 
ATOM     25  C   UNL     1       1.038   3.786  20.163  0.00  0.00    -0.016 A 
ATOM     26  C   UNL     1       2.121   3.884  19.291  0.00  0.00    +0.163 A 
ATOM     27  O   UNL     1       1.936   4.650  18.169  0.00  0.00    -0.480 OA
ATOM     28  H   UNL     1       2.864   5.109  16.415  0.00  0.00    +0.078 HD
ATOM     29  H   UNL     1       3.519   2.812  16.971  0.00  0.00    +0.073 HD
ATOM     30  H   UNL     1       4.961   3.825  16.872  0.00  0.00    +0.073 HD
ATOM     31  H   UNL     1       4.382   2.011  21.011  0.00  0.00    +0.066 HD
ATOM     32  H   UNL     1       2.461   1.854  22.577  0.00  0.00    +0.062 HD
ATOM     33  H   UNL     1       0.317   2.982  22.028  0.00  0.00    +0.062 HD
ATOM     34  H   UNL     1       0.104   4.288  19.927  0.00  0.00    +0.066 HD
ENDBRANCH  15  18
ENDBRANCH  13  15
ENDBRANCH   1  12
BRANCH   5  35
ATOM     35  S   UNL     1      -1.105  11.811  19.771  0.00  0.00    +0.061 S 
ATOM     36  O   UNL     1      -2.070  12.002  20.834  0.00  0.00    -0.153 OA
ATOM     37  O   UNL     1      -1.520  11.724  18.388  0.00  0.00    -0.153 OA
BRANCH  35  38
ATOM     38  N   UNL     1       0.059  13.054  19.883  0.00  0.00    -0.172 NA
ATOM     39  C   UNL     1       1.208  12.773  20.809  0.00  0.00    +0.044 C 
ATOM     40  C   UNL     1       2.395  13.687  20.483  0.00  0.00    +0.062 C 
ATOM     41  O   UNL     1       2.923  13.470  19.168  0.00  0.00    -0.377 OA
ATOM     42  C   UNL     1       1.932  13.036  18.223  0.00  0.00    +0.062 C 
ATOM     43  C   UNL     1       0.529  13.557  18.546  0.00  0.00    +0.044 C 
ATOM     44  H   UNL     1       0.884  12.957  21.838  0.00  0.00    +0.047 HD
ATOM     45  H   UNL     1       1.525  11.729  20.714  0.00  0.00    +0.047 HD
ATOM     46  H   UNL     1       2.106  14.741  20.561  0.00  0.00    +0.057 HD
ATOM     47  H   UNL     1       3.208  13.517  21.194  0.00  0.00    +0.057 HD
ATOM     48  H   UNL     1       2.248  13.389  17.237  0.00  0.00    +0.057 HD
ATOM     49  H   UNL     1       1.945  11.941  18.201  0.00  0.00    +0.057 HD
ATOM     50  H   UNL     1      -0.164  13.279  17.747  0.00  0.00    +0.047 HD
ATOM     51  H   UNL     1       0.532  14.653  18.600  0.00  0.00    +0.047 HD
ENDBRANCH  35  38
ENDBRANCH   5  35
TORSDOF 5
ENDMDL
MODEL 6
REMARK VINA RESULT:    -8.468      1.472      2.985
REMARK INTER + INTRA:         -11.024
REMARK INTER:                 -10.474
REMARK INTRA:                  -0.550
REMARK UNBOUND:                -0.080
REMARK  Name = 
REMARK  5 active torsions:
REMARK  status: ('A' for Active; 'I' for Inactive)
REMARK    1  A    between atoms: C_2  and  C_15
REMARK    2  A    between atoms: N_3  and  C_4
REMARK    3  A    between atoms: C_4  and  C_5
REMARK    4  A    between atoms: C_19  and  S_20
REMARK    5  A    between atoms: S_20  and  N_23
REMARK                            x       y       z     vdW  Elec       q    Type
REMARK                         _______ _______ _______ _____ _____    ______ ____
ROOT
ATOM      1  C   UNL     1       1.255   8.658  20.140  0.00  0.00    +0.039 A 
ATOM      2  C   UNL     1       1.221   8.544  21.537  0.00  0.00    -0.050 A 
ATOM      3  C   UNL     1       0.503   9.462  22.308  0.00  0.00    -0.059 A 
ATOM      4  C   UNL     1      -0.199  10.494  21.688  0.00  0.00    -0.035 A 
ATOM      5  C   UNL     1      -0.187  10.588  20.293  0.00  0.00    +0.106 A 
ATOM      6  C   UNL     1       0.538   9.681  19.512  0.00  0.00    -0.023 A 
ATOM      7  H   UNL     1       1.766   7.740  22.031  0.00  0.00    +0.063 HD
ATOM      8  H   UNL     1       0.495   9.372  23.392  0.00  0.00    +0.062 HD
ATOM      9  H   UNL     1      -0.751  11.211  22.292  0.00  0.00    +0.064 HD
ATOM     10  H   UNL     1       0.512   9.769  18.429  0.00  0.00    +0.064 HD
ENDROOT
BRANCH   1  12
ATOM     11  O   UNL     1       2.650   7.995  18.364  0.00  0.00    -0.270 OA
ATOM     12  C   UNL     1       2.035   7.654  19.367  0.00  0.00    +0.244 C 
ATOM     13  N   UNL     1       2.003   6.357  19.834  0.00  0.00    -0.308 N 
ATOM     14  H   UNL     1       1.305   6.102  20.522  0.00  0.00    +0.149 HD
BRANCH  13  15
ATOM     15  C   UNL     1       2.612   5.267  19.089  0.00  0.00    +0.052 C 
ATOM     16  H   UNL     1       1.836   4.505  18.949  0.00  0.00    +0.050 HD
ATOM     17  H   UNL     1       2.859   5.636  18.087  0.00  0.00    +0.050 HD
BRANCH  15  18
ATOM     18  C   UNL     1       3.874   4.660  19.732  0.00  0.00    +0.149 C 
ATOM     19  C   UNL     1       4.182   3.238  19.269  0.00  0.00    +0.128 C 
ATOM     20  O   UNL     1       4.440   3.186  17.862  0.00  0.00    -0.485 OA
ATOM     21  C   UNL     1       5.343   4.151  17.498  0.00  0.00    +0.162 A 
ATOM     22  C   UNL     1       5.979   3.986  16.269  0.00  0.00    -0.016 A 
ATOM     23  C   UNL     1       6.918   4.926  15.842  0.00  0.00    -0.058 A 
ATOM     24  C   UNL     1       7.217   6.030  16.642  0.00  0.00    -0.058 A 
ATOM     25  C   UNL     1       6.568   6.201  17.866  0.00  0.00    -0.016 A 
ATOM     26  C   UNL     1       5.622   5.269  18.288  0.00  0.00    +0.163 A 
ATOM     27  O   UNL     1       5.002   5.525  19.484  0.00  0.00    -0.480 OA
ATOM     28  H   UNL     1       3.748   4.637  20.820  0.00  0.00    +0.078 HD
ATOM     29  H   UNL     1       5.061   2.839  19.792  0.00  0.00    +0.073 HD
ATOM     30  H   UNL     1       3.346   2.564  19.480  0.00  0.00    +0.073 HD
ATOM     31  H   UNL     1       5.750   3.123  15.651  0.00  0.00    +0.066 HD
ATOM     32  H   UNL     1       7.420   4.795  14.886  0.00  0.00    +0.062 HD
ATOM     33  H   UNL     1       7.951   6.759  16.311  0.00  0.00    +0.062 HD
ATOM     34  H   UNL     1       6.792   7.066  18.484  0.00  0.00    +0.066 HD
ENDBRANCH  15  18
ENDBRANCH  13  15
ENDBRANCH   1  12
BRANCH   5  35
ATOM     35  S   UNL     1      -1.080  11.886  19.477  0.00  0.00    +0.061 S 
ATOM     36  O   UNL     1      -0.242  12.358  18.396  0.00  0.00    -0.153 OA
ATOM     37  O   UNL     1      -1.600  12.794  20.476  0.00  0.00    -0.153 OA
BRANCH  35  38
ATOM     38  N   UNL     1      -2.405  11.053  18.797  0.00  0.00    -0.172 NA
ATOM     39  C   UNL     1      -3.675  11.848  18.691  0.00  0.00    +0.044 C 
ATOM     40  C   UNL     1      -4.622  11.212  17.668  0.00  0.00    +0.062 C 
ATOM     41  O   UNL     1      -4.084  11.202  16.339  0.00  0.00    -0.377 OA
ATOM     42  C   UNL     1      -2.652  11.106  16.308  0.00  0.00    +0.062 C 
ATOM     43  C   UNL     1      -2.076  10.351  17.509  0.00  0.00    +0.044 C 
ATOM     44  H   UNL     1      -4.163  11.866  19.671  0.00  0.00    +0.047 HD
ATOM     45  H   UNL     1      -3.453  12.875  18.382  0.00  0.00    +0.047 HD
ATOM     46  H   UNL     1      -4.856  10.178  17.946  0.00  0.00    +0.057 HD
ATOM     47  H   UNL     1      -5.566  11.763  17.634  0.00  0.00    +0.057 HD
ATOM     48  H   UNL     1      -2.380  10.598  15.378  0.00  0.00    +0.057 HD
ATOM     49  H   UNL     1      -2.247  12.123  16.257  0.00  0.00    +0.057 HD
ATOM     50  H   UNL     1      -0.996  10.225  17.386  0.00  0.00    +0.047 HD
ATOM     51  H   UNL     1      -2.511   9.346  17.571  0.00  0.00    +0.047 HD
ENDBRANCH  35  38
ENDBRANCH   5  35
TORSDOF 5
ENDMDL
MODEL 7
REMARK VINA RESULT:    -8.402      3.264      8.778
REMARK INTER + INTRA:         -10.938
REMARK INTER:                 -10.476
REMARK INTRA:                  -0.462
REMARK UNBOUND:                -0.080
REMARK  Name = 
REMARK  5 active torsions:
REMARK  status: ('A' for Active; 'I' for Inactive)
REMARK    1  A    between atoms: C_2  and  C_15
REMARK    2  A    between atoms: N_3  and  C_4
REMARK    3  A    between atoms: C_4  and  C_5
REMARK    4  A    between atoms: C_19  and  S_20
REMARK    5  A    between atoms: S_20  and  N_23
REMARK                            x       y       z     vdW  Elec       q    Type
REMARK                         _______ _______ _______ _____ _____    ______ ____
ROOT
ATOM      1  C   UNL     1       2.746   6.464  18.812  0.00  0.00    +0.039 A 
ATOM      2  C   UNL     1       2.364   5.219  19.330  0.00  0.00    -0.050 A 
ATOM      3  C   UNL     1       2.879   4.037  18.792  0.00  0.00    -0.059 A 
ATOM      4  C   UNL     1       3.791   4.090  17.739  0.00  0.00    -0.035 A 
ATOM      5  C   UNL     1       4.192   5.335  17.244  0.00  0.00    +0.106 A 
ATOM      6  C   UNL     1       3.675   6.525  17.768  0.00  0.00    -0.023 A 
ATOM      7  H   UNL     1       1.653   5.168  20.154  0.00  0.00    +0.063 HD
ATOM      8  H   UNL     1       2.566   3.076  19.193  0.00  0.00    +0.062 HD
ATOM      9  H   UNL     1       4.185   3.167  17.318  0.00  0.00    +0.064 HD
ATOM     10  H   UNL     1       4.020   7.476  17.373  0.00  0.00    +0.064 HD
ENDROOT
BRANCH   1  12
ATOM     11  O   UNL     1       2.043   8.710  18.751  0.00  0.00    -0.270 OA
ATOM     12  C   UNL     1       2.168   7.692  19.421  0.00  0.00    +0.244 C 
ATOM     13  N   UNL     1       1.812   7.610  20.751  0.00  0.00    -0.308 N 
ATOM     14  H   UNL     1       2.146   6.827  21.299  0.00  0.00    +0.149 HD
BRANCH  13  15
ATOM     15  C   UNL     1       1.365   8.780  21.491  0.00  0.00    +0.052 C 
ATOM     16  H   UNL     1       1.824   8.723  22.484  0.00  0.00    +0.050 HD
ATOM     17  H   UNL     1       1.790   9.669  21.010  0.00  0.00    +0.050 HD
BRANCH  15  18
ATOM     18  C   UNL     1      -0.165   8.941  21.597  0.00  0.00    +0.149 C 
ATOM     19  C   UNL     1      -0.608   9.953  22.651  0.00  0.00    +0.128 C 
ATOM     20  O   UNL     1      -0.132  11.270  22.352  0.00  0.00    -0.485 OA
ATOM     21  C   UNL     1      -0.398  11.596  21.047  0.00  0.00    +0.162 A 
ATOM     22  C   UNL     1      -0.351  12.949  20.716  0.00  0.00    -0.016 A 
ATOM     23  C   UNL     1      -0.622  13.353  19.407  0.00  0.00    -0.058 A 
ATOM     24  C   UNL     1      -0.934  12.404  18.433  0.00  0.00    -0.058 A 
ATOM     25  C   UNL     1      -0.966  11.048  18.763  0.00  0.00    -0.016 A 
ATOM     26  C   UNL     1      -0.685  10.643  20.066  0.00  0.00    +0.163 A 
ATOM     27  O   UNL     1      -0.700   9.293  20.305  0.00  0.00    -0.480 OA
ATOM     28  H   UNL     1      -0.611   7.974  21.853  0.00  0.00    +0.078 HD
ATOM     29  H   UNL     1      -1.703   9.993  22.717  0.00  0.00    +0.073 HD
ATOM     30  H   UNL     1      -0.234   9.680  23.643  0.00  0.00    +0.073 HD
ATOM     31  H   UNL     1      -0.114  13.687  21.477  0.00  0.00    +0.066 HD
ATOM     32  H   UNL     1      -0.593  14.409  19.149  0.00  0.00    +0.062 HD
ATOM     33  H   UNL     1      -1.150  12.720  17.415  0.00  0.00    +0.062 HD
ATOM     34  H   UNL     1      -1.199  10.308  18.002  0.00  0.00    +0.066 HD
ENDBRANCH  15  18
ENDBRANCH  13  15
ENDBRANCH   1  12
BRANCH   5  35
ATOM     35  S   UNL     1       5.359   5.432  15.911  0.00  0.00    +0.061 S 
ATOM     36  O   UNL     1       5.038   6.624  15.156  0.00  0.00    -0.153 OA
ATOM     37  O   UNL     1       5.446   4.137  15.271  0.00  0.00    -0.153 OA
BRANCH  35  38
ATOM     38  N   UNL     1       6.833   5.702  16.728  0.00  0.00    -0.172 NA
ATOM     39  C   UNL     1       6.956   7.037  17.405  0.00  0.00    +0.044 C 
ATOM     40  C   UNL     1       8.053   6.999  18.473  0.00  0.00    +0.062 C 
ATOM     41  O   UNL     1       7.770   6.077  19.533  0.00  0.00    -0.377 OA
ATOM     42  C   UNL     1       6.992   4.946  19.109  0.00  0.00    +0.062 C 
ATOM     43  C   UNL     1       7.228   4.574  17.642  0.00  0.00    +0.044 C 
ATOM     44  H   UNL     1       7.211   7.791  16.653  0.00  0.00    +0.047 HD
ATOM     45  H   UNL     1       6.006   7.310  17.877  0.00  0.00    +0.047 HD
ATOM     46  H   UNL     1       9.017   6.719  18.031  0.00  0.00    +0.057 HD
ATOM     47  H   UNL     1       8.176   7.988  18.924  0.00  0.00    +0.057 HD
ATOM     48  H   UNL     1       7.257   4.107  19.758  0.00  0.00    +0.057 HD
ATOM     49  H   UNL     1       5.936   5.178  19.287  0.00  0.00    +0.057 HD
ATOM     50  H   UNL     1       6.687   3.655  17.401  0.00  0.00    +0.047 HD
ATOM     51  H   UNL     1       8.292   4.377  17.466  0.00  0.00    +0.047 HD
ENDBRANCH  35  38
ENDBRANCH   5  35
TORSDOF 5
ENDMDL
MODEL 8
REMARK VINA RESULT:    -8.389      2.364      8.623
REMARK INTER + INTRA:         -10.922
REMARK INTER:                  -9.998
REMARK INTRA:                  -0.924
REMARK UNBOUND:                -0.080
REMARK  Name = 
REMARK  5 active torsions:
REMARK  status: ('A' for Active; 'I' for Inactive)
REMARK    1  A    between atoms: C_2  and  C_15
REMARK    2  A    between atoms: N_3  and  C_4
REMARK    3  A    between atoms: C_4  and  C_5
REMARK    4  A    between atoms: C_19  and  S_20
REMARK    5  A    between atoms: S_20  and  N_23
REMARK                            x       y       z     vdW  Elec       q    Type
REMARK                         _______ _______ _______ _____ _____    ______ ____
ROOT
ATOM      1  C   UNL     1       1.070   8.948  19.937  0.00  0.00    +0.039 A 
ATOM      2  C   UNL     1       1.332   9.487  18.669  0.00  0.00    -0.050 A 
ATOM      3  C   UNL     1       2.164   8.816  17.769  0.00  0.00    -0.059 A 
ATOM      4  C   UNL     1       2.731   7.594  18.124  0.00  0.00    -0.035 A 
ATOM      5  C   UNL     1       2.446   7.045  19.377  0.00  0.00    +0.106 A 
ATOM      6  C   UNL     1       1.623   7.713  20.291  0.00  0.00    -0.023 A 
ATOM      7  H   UNL     1       0.891  10.442  18.383  0.00  0.00    +0.063 HD
ATOM      8  H   UNL     1       2.371   9.251  16.794  0.00  0.00    +0.062 HD
ATOM      9  H   UNL     1       3.385   7.078  17.422  0.00  0.00    +0.064 HD
ATOM     10  H   UNL     1       1.405   7.251  21.250  0.00  0.00    +0.064 HD
ENDROOT
BRANCH   1  12
ATOM     11  O   UNL     1      -0.396   9.121  21.770  0.00  0.00    -0.270 OA
ATOM     12  C   UNL     1       0.178   9.703  20.857  0.00  0.00    +0.244 C 
ATOM     13  N   UNL     1       0.034  11.051  20.607  0.00  0.00    -0.308 N 
ATOM     14  H   UNL     1       0.348  11.419  19.718  0.00  0.00    +0.149 HD
BRANCH  13  15
ATOM     15  C   UNL     1      -0.914  11.865  21.351  0.00  0.00    +0.052 C 
ATOM     16  H   UNL     1      -1.726  11.200  21.664  0.00  0.00    +0.050 HD
ATOM     17  H   UNL     1      -0.423  12.201  22.272  0.00  0.00    +0.050 HD
BRANCH  15  18
ATOM     18  C   UNL     1      -1.462  13.089  20.591  0.00  0.00    +0.149 C 
ATOM     19  C   UNL     1      -0.754  13.363  19.266  0.00  0.00    +0.128 C 
ATOM     20  O   UNL     1      -0.912  12.275  18.349  0.00  0.00    -0.485 OA
ATOM     21  C   UNL     1      -2.228  11.898  18.267  0.00  0.00    +0.162 A 
ATOM     22  C   UNL     1      -2.595  11.137  17.159  0.00  0.00    -0.016 A 
ATOM     23  C   UNL     1      -3.921  10.728  17.007  0.00  0.00    -0.058 A 
ATOM     24  C   UNL     1      -4.875  11.075  17.965  0.00  0.00    -0.058 A 
ATOM     25  C   UNL     1      -4.502  11.825  19.082  0.00  0.00    -0.016 A 
ATOM     26  C   UNL     1      -3.176  12.225  19.240  0.00  0.00    +0.163 A 
ATOM     27  O   UNL     1      -2.880  12.926  20.380  0.00  0.00    -0.480 OA
ATOM     28  H   UNL     1      -1.353  13.980  21.219  0.00  0.00    +0.078 HD
ATOM     29  H   UNL     1      -1.151  14.270  18.792  0.00  0.00    +0.073 HD
ATOM     30  H   UNL     1       0.319  13.519  19.417  0.00  0.00    +0.073 HD
ATOM     31  H   UNL     1      -1.853  10.872  16.411  0.00  0.00    +0.066 HD
ATOM     32  H   UNL     1      -4.211  10.140  16.139  0.00  0.00    +0.062 HD
ATOM     33  H   UNL     1      -5.908  10.760  17.844  0.00  0.00    +0.062 HD
ATOM     34  H   UNL     1      -5.241  12.088  19.833  0.00  0.00    +0.066 HD
ENDBRANCH  15  18
ENDBRANCH  13  15
ENDBRANCH   1  12
BRANCH   5  35
ATOM     35  S   UNL     1       3.146   5.485  19.850  0.00  0.00    +0.061 S 
ATOM     36  O   UNL     1       2.595   5.151  21.146  0.00  0.00    -0.153 OA
ATOM     37  O   UNL     1       4.576   5.529  19.631  0.00  0.00    -0.153 OA
BRANCH  35  38
ATOM     38  N   UNL     1       2.481   4.416  18.698  0.00  0.00    -0.172 NA
ATOM     39  C   UNL     1       3.464   3.486  18.045  0.00  0.00    +0.044 C 
ATOM     40  C   UNL     1       2.737   2.289  17.422  0.00  0.00    +0.062 C 
ATOM     41  O   UNL     1       2.058   1.481  18.392  0.00  0.00    -0.377 OA
ATOM     42  C   UNL     1       1.594   2.227  19.528  0.00  0.00    +0.062 C 
ATOM     43  C   UNL     1       1.263   3.684  19.192  0.00  0.00    +0.044 C 
ATOM     44  H   UNL     1       3.997   4.032  17.260  0.00  0.00    +0.047 HD
ATOM     45  H   UNL     1       4.187   3.121  18.782  0.00  0.00    +0.047 HD
ATOM     46  H   UNL     1       1.999   2.624  16.684  0.00  0.00    +0.057 HD
ATOM     47  H   UNL     1       3.451   1.644  16.901  0.00  0.00    +0.057 HD
ATOM     48  H   UNL     1       0.706   1.718  19.911  0.00  0.00    +0.057 HD
ATOM     49  H   UNL     1       2.365   2.173  20.304  0.00  0.00    +0.057 HD
ATOM     50  H   UNL     1       0.827   4.177  20.065  0.00  0.00    +0.047 HD
ATOM     51  H   UNL     1       0.516   3.730  18.390  0.00  0.00    +0.047 HD
ENDBRANCH  35  38
ENDBRANCH   5  35
TORSDOF 5
ENDMDL
MODEL 9
REMARK VINA RESULT:    -8.356      2.480      3.277
REMARK INTER + INTRA:         -10.879
REMARK INTER:                 -10.283
REMARK INTRA:                  -0.597
REMARK UNBOUND:                -0.080
REMARK  Name = 
REMARK  5 active torsions:
REMARK  status: ('A' for Active; 'I' for Inactive)
REMARK    1  A    between atoms: C_2  and  C_15
REMARK    2  A    between atoms: N_3  and  C_4
REMARK    3  A    between atoms: C_4  and  C_5
REMARK    4  A    between atoms: C_19  and  S_20
REMARK    5  A    between atoms: S_20  and  N_23
REMARK                            x       y       z     vdW  Elec       q    Type
REMARK                         _______ _______ _______ _____ _____    ______ ____
ROOT
ATOM      1  C   UNL     1       2.688   7.324  18.773  0.00  0.00    +0.039 A 
ATOM      2  C   UNL     1       2.698   8.224  17.698  0.00  0.00    -0.050 A 
ATOM      3  C   UNL     1       1.978   9.421  17.766  0.00  0.00    -0.059 A 
ATOM      4  C   UNL     1       1.255   9.734  18.915  0.00  0.00    -0.035 A 
ATOM      5  C   UNL     1       1.270   8.847  19.997  0.00  0.00    +0.106 A 
ATOM      6  C   UNL     1       1.978   7.641  19.935  0.00  0.00    -0.023 A 
ATOM      7  H   UNL     1       3.262   7.988  16.796  0.00  0.00    +0.063 HD
ATOM      8  H   UNL     1       1.983  10.105  16.921  0.00  0.00    +0.062 HD
ATOM      9  H   UNL     1       0.690  10.663  18.961  0.00  0.00    +0.064 HD
ATOM     10  H   UNL     1       1.985   6.982  20.799  0.00  0.00    +0.064 HD
ENDROOT
BRANCH   1  12
ATOM     11  O   UNL     1       4.186   5.694  19.571  0.00  0.00    -0.270 OA
ATOM     12  C   UNL     1       3.470   6.065  18.649  0.00  0.00    +0.244 C 
ATOM     13  N   UNL     1       3.349   5.380  17.458  0.00  0.00    -0.308 N 
ATOM     14  H   UNL     1       2.928   5.848  16.666  0.00  0.00    +0.149 HD
BRANCH  13  15
ATOM     15  C   UNL     1       4.165   4.212  17.167  0.00  0.00    +0.052 C 
ATOM     16  H   UNL     1       4.650   4.396  16.202  0.00  0.00    +0.050 HD
ATOM     17  H   UNL     1       4.972   4.168  17.909  0.00  0.00    +0.050 HD
BRANCH  15  18
ATOM     18  C   UNL     1       3.408   2.869  17.160  0.00  0.00    +0.149 C 
ATOM     19  C   UNL     1       4.133   1.746  17.898  0.00  0.00    +0.128 C 
ATOM     20  O   UNL     1       4.303   2.051  19.287  0.00  0.00    -0.485 OA
ATOM     21  C   UNL     1       3.122   2.476  19.838  0.00  0.00    +0.162 A 
ATOM     22  C   UNL     1       3.027   2.438  21.227  0.00  0.00    -0.016 A 
ATOM     23  C   UNL     1       1.849   2.845  21.855  0.00  0.00    -0.058 A 
ATOM     24  C   UNL     1       0.769   3.294  21.092  0.00  0.00    -0.058 A 
ATOM     25  C   UNL     1       0.871   3.345  19.700  0.00  0.00    -0.016 A 
ATOM     26  C   UNL     1       2.051   2.948  19.074  0.00  0.00    +0.163 A 
ATOM     27  O   UNL     1       2.088   3.061  17.709  0.00  0.00    -0.480 OA
ATOM     28  H   UNL     1       3.259   2.546  16.124  0.00  0.00    +0.078 HD
ATOM     29  H   UNL     1       3.574   0.805  17.821  0.00  0.00    +0.073 HD
ATOM     30  H   UNL     1       5.125   1.569  17.471  0.00  0.00    +0.073 HD
ATOM     31  H   UNL     1       3.866   2.083  21.820  0.00  0.00    +0.066 HD
ATOM     32  H   UNL     1       1.771   2.810  22.939  0.00  0.00    +0.062 HD
ATOM     33  H   UNL     1      -0.150   3.607  21.580  0.00  0.00    +0.062 HD
ATOM     34  H   UNL     1       0.035   3.703  19.106  0.00  0.00    +0.066 HD
ENDBRANCH  15  18
ENDBRANCH  13  15
ENDBRANCH   1  12
BRANCH   5  35
ATOM     35  S   UNL     1       0.366   9.226  21.475  0.00  0.00    +0.061 S 
ATOM     36  O   UNL     1       1.329   9.286  22.554  0.00  0.00    -0.153 OA
ATOM     37  O   UNL     1      -0.792   8.361  21.549  0.00  0.00    -0.153 OA
BRANCH  35  38
ATOM     38  N   UNL     1      -0.193  10.810  21.172  0.00  0.00    -0.172 NA
ATOM     39  C   UNL     1      -1.378  10.907  20.254  0.00  0.00    +0.044 C 
ATOM     40  C   UNL     1      -2.080  12.258  20.426  0.00  0.00    +0.062 C 
ATOM     41  O   UNL     1      -2.619  12.445  21.741  0.00  0.00    -0.377 OA
ATOM     42  C   UNL     1      -1.869  11.769  22.763  0.00  0.00    +0.062 C 
ATOM     43  C   UNL     1      -0.384  11.627  22.420  0.00  0.00    +0.044 C 
ATOM     44  H   UNL     1      -1.031  10.810  19.220  0.00  0.00    +0.047 HD
ATOM     45  H   UNL     1      -2.090  10.104  20.470  0.00  0.00    +0.047 HD
ATOM     46  H   UNL     1      -1.387  13.084  20.225  0.00  0.00    +0.057 HD
ATOM     47  H   UNL     1      -2.908  12.346  19.717  0.00  0.00    +0.057 HD
ATOM     48  H   UNL     1      -1.990  12.342  23.687  0.00  0.00    +0.057 HD
ATOM     49  H   UNL     1      -2.328  10.787  22.923  0.00  0.00    +0.057 HD
ATOM     50  H   UNL     1       0.154  11.194  23.269  0.00  0.00    +0.047 HD
ATOM     51  H   UNL     1       0.059  12.612  22.229  0.00  0.00    +0.047 HD
ENDBRANCH  35  38
ENDBRANCH   5  35
TORSDOF 5
ENDMDL
MODEL 10
REMARK VINA RESULT:    -8.354      1.879      2.767
REMARK INTER + INTRA:         -10.876
REMARK INTER:                 -10.194
REMARK INTRA:                  -0.682
REMARK UNBOUND:                -0.080
REMARK  Name = 
REMARK  5 active torsions:
REMARK  status: ('A' for Active; 'I' for Inactive)
REMARK    1  A    between atoms: C_2  and  C_15
REMARK    2  A    between atoms: N_3  and  C_4
REMARK    3  A    between atoms: C_4  and  C_5
REMARK    4  A    between atoms: C_19  and  S_20
REMARK    5  A    between atoms: S_20  and  N_23
REMARK                            x       y       z     vdW  Elec       q    Type
REMARK                         _______ _______ _______ _____ _____    ______ ____
ROOT
ATOM      1  C   UNL     1       1.719   8.449  19.311  0.00  0.00    +0.039 A 
ATOM      2  C   UNL     1       1.563   7.814  20.551  0.00  0.00    -0.050 A 
ATOM      3  C   UNL     1       0.721   8.356  21.526  0.00  0.00    -0.059 A 
ATOM      4  C   UNL     1       0.017   9.530  21.264  0.00  0.00    -0.035 A 
ATOM      5  C   UNL     1       0.152  10.145  20.015  0.00  0.00    +0.106 A 
ATOM      6  C   UNL     1       1.001   9.617  19.036  0.00  0.00    -0.023 A 
ATOM      7  H   UNL     1       2.109   6.895  20.765  0.00  0.00    +0.063 HD
ATOM      8  H   UNL     1       0.618   7.862  22.490  0.00  0.00    +0.062 HD
ATOM      9  H   UNL     1      -0.633   9.952  22.029  0.00  0.00    +0.064 HD
ATOM     10  H   UNL     1       1.070  10.108  18.069  0.00  0.00    +0.064 HD
ENDROOT
BRANCH   1  12
ATOM     11  O   UNL     1       2.768   8.347  17.207  0.00  0.00    -0.270 OA
ATOM     12  C   UNL     1       2.628   7.831  18.309  0.00  0.00    +0.244 C 
ATOM     13  N   UNL     1       3.265   6.668  18.690  0.00  0.00    -0.308 N 
ATOM     14  H   UNL     1       2.937   6.179  19.513  0.00  0.00    +0.149 HD
BRANCH  13  15
ATOM     15  C   UNL     1       4.069   5.900  17.752  0.00  0.00    +0.052 C 
ATOM     16  H   UNL     1       4.322   6.573  16.925  0.00  0.00    +0.050 HD
ATOM     17  H   UNL     1       5.017   5.652  18.243  0.00  0.00    +0.050 HD
BRANCH  15  18
ATOM     18  C   UNL     1       3.410   4.607  17.232  0.00  0.00    +0.149 C 
ATOM     19  C   UNL     1       4.274   3.360  17.408  0.00  0.00    +0.128 C 
ATOM     20  O   UNL     1       4.540   3.093  18.789  0.00  0.00    -0.485 OA
ATOM     21  C   UNL     1       3.384   3.138  19.524  0.00  0.00    +0.162 A 
ATOM     22  C   UNL     1       3.412   2.534  20.779  0.00  0.00    -0.016 A 
ATOM     23  C   UNL     1       2.265   2.533  21.575  0.00  0.00    -0.058 A 
ATOM     24  C   UNL     1       1.095   3.141  21.117  0.00  0.00    -0.058 A 
ATOM     25  C   UNL     1       1.073   3.760  19.866  0.00  0.00    -0.016 A 
ATOM     26  C   UNL     1       2.220   3.770  19.075  0.00  0.00    +0.163 A 
ATOM     27  O   UNL     1       2.132   4.428  17.876  0.00  0.00    -0.480 OA
ATOM     28  H   UNL     1       3.196   4.717  16.164  0.00  0.00    +0.078 HD
ATOM     29  H   UNL     1       3.779   2.479  16.980  0.00  0.00    +0.073 HD
ATOM     30  H   UNL     1       5.236   3.470  16.898  0.00  0.00    +0.073 HD
ATOM     31  H   UNL     1       4.321   2.055  21.131  0.00  0.00    +0.066 HD
ATOM     32  H   UNL     1       2.284   2.055  22.552  0.00  0.00    +0.062 HD
ATOM     33  H   UNL     1       0.202   3.137  21.736  0.00  0.00    +0.062 HD
ATOM     34  H   UNL     1       0.166   4.242  19.513  0.00  0.00    +0.066 HD
ENDBRANCH  15  18
ENDBRANCH  13  15
ENDBRANCH   1  12
BRANCH   5  35
ATOM     35  S   UNL     1      -0.741  11.634  19.652  0.00  0.00    +0.061 S 
ATOM     36  O   UNL     1      -1.918  11.247  18.904  0.00  0.00    -0.153 OA
ATOM     37  O   UNL     1       0.185  12.620  19.138  0.00  0.00    -0.153 OA
BRANCH  35  38
ATOM     38  N   UNL     1      -1.241  12.153  21.198  0.00  0.00    -0.172 NA
ATOM     39  C   UNL     1      -0.311  13.114  21.884  0.00  0.00    +0.044 C 
ATOM     40  C   UNL     1      -1.046  13.870  22.996  0.00  0.00    +0.062 C 
ATOM     41  O   UNL     1      -2.117  14.685  22.504  0.00  0.00    -0.377 OA
ATOM     42  C   UNL     1      -2.734  14.158  21.319  0.00  0.00    +0.062 C 
ATOM     43  C   UNL     1      -2.667  12.630  21.239  0.00  0.00    +0.044 C 
ATOM     44  H   UNL     1       0.519  12.550  22.320  0.00  0.00    +0.047 HD
ATOM     45  H   UNL     1       0.085  13.836  21.162  0.00  0.00    +0.047 HD
ATOM     46  H   UNL     1      -1.463  13.171  23.731  0.00  0.00    +0.057 HD
ATOM     47  H   UNL     1      -0.352  14.527  23.527  0.00  0.00    +0.057 HD
ATOM     48  H   UNL     1      -3.777  14.489  21.320  0.00  0.00    +0.057 HD
ATOM     49  H   UNL     1      -2.244  14.615  20.452  0.00  0.00    +0.057 HD
ATOM     50  H   UNL     1      -3.232  12.278  20.371  0.00  0.00    +0.047 HD
ATOM     51  H   UNL     1      -3.129  12.181  22.126  0.00  0.00    +0.047 HD
ENDBRANCH  35  38
ENDBRANCH   5  35
TORSDOF 5
ENDMDL
MODEL 11
REMARK VINA RESULT:    -8.340      2.449      3.547
REMARK INTER + INTRA:         -10.858
REMARK INTER:                 -10.205
REMARK INTRA:                  -0.653
REMARK UNBOUND:                -0.080
REMARK  Name = 
REMARK  5 active torsions:
REMARK  status: ('A' for Active; 'I' for Inactive)
REMARK    1  A    between atoms: C_2  and  C_15
REMARK    2  A    between atoms: N_3  and  C_4
REMARK    3  A    between atoms: C_4  and  C_5
REMARK    4  A    between atoms: C_19  and  S_20
REMARK    5  A    between atoms: S_20  and  N_23
REMARK                            x       y       z     vdW  Elec       q    Type
REMARK                         _______ _______ _______ _____ _____    ______ ____
ROOT
ATOM      1  C   UNL     1       1.283   9.164  19.646  0.00  0.00    +0.039 A 
ATOM      2  C   UNL     1       1.319   8.386  20.811  0.00  0.00    -0.050 A 
ATOM      3  C   UNL     1       0.647   8.802  21.965  0.00  0.00    -0.059 A 
ATOM      4  C   UNL     1      -0.077   9.992  21.958  0.00  0.00    -0.035 A 
ATOM      5  C   UNL     1      -0.134  10.752  20.785  0.00  0.00    +0.106 A 
ATOM      6  C   UNL     1       0.543  10.351  19.628  0.00  0.00    -0.023 A 
ATOM      7  H   UNL     1       1.881   7.453  20.826  0.00  0.00    +0.063 HD
ATOM      8  H   UNL     1       0.693   8.197  22.867  0.00  0.00    +0.062 HD
ATOM      9  H   UNL     1      -0.592  10.316  22.860  0.00  0.00    +0.064 HD
ATOM     10  H   UNL     1       0.464  10.953  18.727  0.00  0.00    +0.064 HD
ENDROOT
BRANCH   1  12
ATOM     11  O   UNL     1       1.954   9.300  17.394  0.00  0.00    -0.270 OA
ATOM     12  C   UNL     1       2.015   8.676  18.446  0.00  0.00    +0.244 C 
ATOM     13  N   UNL     1       2.726   7.504  18.594  0.00  0.00    -0.308 N 
ATOM     14  H   UNL     1       2.554   6.926  19.408  0.00  0.00    +0.149 HD
BRANCH  13  15
ATOM     15  C   UNL     1       3.368   6.857  17.461  0.00  0.00    +0.052 C 
ATOM     16  H   UNL     1       2.575   6.595  16.752  0.00  0.00    +0.050 HD
ATOM     17  H   UNL     1       3.994   7.602  16.955  0.00  0.00    +0.050 HD
BRANCH  15  18
ATOM     18  C   UNL     1       4.226   5.625  17.811  0.00  0.00    +0.149 C 
ATOM     19  C   UNL     1       4.607   5.536  19.287  0.00  0.00    +0.128 C 
ATOM     20  O   UNL     1       3.452   5.414  20.124  0.00  0.00    -0.485 OA
ATOM     21  C   UNL     1       2.614   4.436  19.653  0.00  0.00    +0.162 A 
ATOM     22  C   UNL     1       1.666   3.939  20.545  0.00  0.00    -0.016 A 
ATOM     23  C   UNL     1       0.788   2.934  20.136  0.00  0.00    -0.058 A 
ATOM     24  C   UNL     1       0.856   2.432  18.835  0.00  0.00    -0.058 A 
ATOM     25  C   UNL     1       1.797   2.943  17.939  0.00  0.00    -0.016 A 
ATOM     26  C   UNL     1       2.667   3.953  18.343  0.00  0.00    +0.163 A 
ATOM     27  O   UNL     1       3.537   4.428  17.396  0.00  0.00    -0.480 OA
ATOM     28  H   UNL     1       5.153   5.655  17.227  0.00  0.00    +0.078 HD
ATOM     29  H   UNL     1       5.255   4.669  19.471  0.00  0.00    +0.073 HD
ATOM     30  H   UNL     1       5.159   6.426  19.607  0.00  0.00    +0.073 HD
ATOM     31  H   UNL     1       1.618   4.326  21.559  0.00  0.00    +0.066 HD
ATOM     32  H   UNL     1       0.052   2.540  20.833  0.00  0.00    +0.062 HD
ATOM     33  H   UNL     1       0.175   1.647  18.518  0.00  0.00    +0.062 HD
ATOM     34  H   UNL     1       1.844   2.560  16.923  0.00  0.00    +0.066 HD
ENDBRANCH  15  18
ENDBRANCH  13  15
ENDBRANCH   1  12
BRANCH   5  35
ATOM     35  S   UNL     1      -1.057  12.266  20.746  0.00  0.00    +0.061 S 
ATOM     36  O   UNL     1      -2.373  11.944  20.237  0.00  0.00    -0.153 OA
ATOM     37  O   UNL     1      -0.244  13.293  20.131  0.00  0.00    -0.153 OA
BRANCH  35  38
ATOM     38  N   UNL     1      -1.208  12.651  22.401  0.00  0.00    -0.172 NA
ATOM     39  C   UNL     1      -0.787  14.044  22.776  0.00  0.00    +0.044 C 
ATOM     40  C   UNL     1      -1.392  14.442  24.127  0.00  0.00    +0.062 C 
ATOM     41  O   UNL     1      -2.825  14.486  24.106  0.00  0.00    -0.377 OA
ATOM     42  C   UNL     1      -3.408  13.551  23.184  0.00  0.00    +0.062 C 
ATOM     43  C   UNL     1      -2.551  12.299  22.979  0.00  0.00    +0.044 C 
ATOM     44  H   UNL     1       0.305  14.074  22.848  0.00  0.00    +0.047 HD
ATOM     45  H   UNL     1      -1.116  14.757  22.013  0.00  0.00    +0.047 HD
ATOM     46  H   UNL     1      -1.087  13.739  24.911  0.00  0.00    +0.057 HD
ATOM     47  H   UNL     1      -1.038  15.434  24.421  0.00  0.00    +0.057 HD
ATOM     48  H   UNL     1      -4.390  13.276  23.579  0.00  0.00    +0.057 HD
ATOM     49  H   UNL     1      -3.570  14.072  22.234  0.00  0.00    +0.057 HD
ATOM     50  H   UNL     1      -3.084  11.583  22.347  0.00  0.00    +0.047 HD
ATOM     51  H   UNL     1      -2.366  11.803  23.940  0.00  0.00    +0.047 HD
ENDBRANCH  35  38
ENDBRANCH   5  35
TORSDOF 5
ENDMDL
MODEL 12
REMARK VINA RESULT:    -8.337      3.145      9.077
REMARK INTER + INTRA:         -10.854
REMARK INTER:                  -9.899
REMARK INTRA:                  -0.955
REMARK UNBOUND:                -0.080
REMARK  Name = 
REMARK  5 active torsions:
REMARK  status: ('A' for Active; 'I' for Inactive)
REMARK    1  A    between atoms: C_2  and  C_15
REMARK    2  A    between atoms: N_3  and  C_4
REMARK    3  A    between atoms: C_4  and  C_5
REMARK    4  A    between atoms: C_19  and  S_20
REMARK    5  A    between atoms: S_20  and  N_23
REMARK                            x       y       z     vdW  Elec       q    Type
REMARK                         _______ _______ _______ _____ _____    ______ ____
ROOT
ATOM      1  C   UNL     1       1.149   8.710  19.980  0.00  0.00    +0.039 A 
ATOM      2  C   UNL     1       1.271   9.589  18.894  0.00  0.00    -0.050 A 
ATOM      3  C   UNL     1       2.037   9.238  17.779  0.00  0.00    -0.059 A 
ATOM      4  C   UNL     1       2.675   8.000  17.733  0.00  0.00    -0.035 A 
ATOM      5  C   UNL     1       2.527   7.114  18.805  0.00  0.00    +0.106 A 
ATOM      6  C   UNL     1       1.772   7.459  19.931  0.00  0.00    -0.023 A 
ATOM      7  H   UNL     1       0.775  10.558  18.921  0.00  0.00    +0.063 HD
ATOM      8  H   UNL     1       2.136   9.934  16.949  0.00  0.00    +0.062 HD
ATOM      9  H   UNL     1       3.277   7.734  16.866  0.00  0.00    +0.064 HD
ATOM     10  H   UNL     1       1.661   6.741  20.740  0.00  0.00    +0.064 HD
ENDROOT
BRANCH   1  12
ATOM     11  O   UNL     1      -0.420   8.327  21.692  0.00  0.00    -0.270 OA
ATOM     12  C   UNL     1       0.322   9.132  21.142  0.00  0.00    +0.244 C 
ATOM     13  N   UNL     1       0.434  10.450  21.531  0.00  0.00    -0.308 N 
ATOM     14  H   UNL     1       0.883  11.107  20.906  0.00  0.00    +0.149 HD
BRANCH  13  15
ATOM     15  C   UNL     1      -0.421  11.012  22.564  0.00  0.00    +0.052 C 
ATOM     16  H   UNL     1      -1.354  10.438  22.552  0.00  0.00    +0.050 HD
ATOM     17  H   UNL     1       0.045  10.814  23.536  0.00  0.00    +0.050 HD
BRANCH  15  18
ATOM     18  C   UNL     1      -0.699  12.523  22.432  0.00  0.00    +0.149 C 
ATOM     19  C   UNL     1      -0.308  13.107  21.076  0.00  0.00    +0.128 C 
ATOM     20  O   UNL     1      -1.056  12.513  20.010  0.00  0.00    -0.485 OA
ATOM     21  C   UNL     1      -2.395  12.505  20.303  0.00  0.00    +0.162 A 
ATOM     22  C   UNL     1      -3.271  12.324  19.235  0.00  0.00    -0.016 A 
ATOM     23  C   UNL     1      -4.649  12.317  19.461  0.00  0.00    -0.058 A 
ATOM     24  C   UNL     1      -5.147  12.485  20.754  0.00  0.00    -0.058 A 
ATOM     25  C   UNL     1      -4.267  12.651  21.825  0.00  0.00    -0.016 A 
ATOM     26  C   UNL     1      -2.891  12.648  21.602  0.00  0.00    +0.163 A 
ATOM     27  O   UNL     1      -2.091  12.780  22.707  0.00  0.00    -0.480 OA
ATOM     28  H   UNL     1      -0.136  13.061  23.203  0.00  0.00    +0.078 HD
ATOM     29  H   UNL     1      -0.482  14.191  21.054  0.00  0.00    +0.073 HD
ATOM     30  H   UNL     1       0.755  12.946  20.868  0.00  0.00    +0.073 HD
ATOM     31  H   UNL     1      -2.883  12.199  18.229  0.00  0.00    +0.066 HD
ATOM     32  H   UNL     1      -5.334  12.183  18.627  0.00  0.00    +0.062 HD
ATOM     33  H   UNL     1      -6.219  12.483  20.929  0.00  0.00    +0.062 HD
ATOM     34  H   UNL     1      -4.653  12.772  22.833  0.00  0.00    +0.066 HD
ENDBRANCH  15  18
ENDBRANCH  13  15
ENDBRANCH   1  12
BRANCH   5  35
ATOM     35  S   UNL     1       3.321   5.528  18.768  0.00  0.00    +0.061 S 
ATOM     36  O   UNL     1       2.634   4.737  17.770  0.00  0.00    -0.153 OA
ATOM     37  O   UNL     1       3.478   5.052  20.126  0.00  0.00    -0.153 OA
BRANCH  35  38
ATOM     38  N   UNL     1       4.874   5.904  18.171  0.00  0.00    -0.172 NA
ATOM     39  C   UNL     1       6.020   5.417  19.012  0.00  0.00    +0.044 C 
ATOM     40  C   UNL     1       7.310   5.370  18.187  0.00  0.00    +0.062 C 
ATOM     41  O   UNL     1       7.240   4.447  17.093  0.00  0.00    -0.377 OA
ATOM     42  C   UNL     1       5.915   4.297  16.560  0.00  0.00    +0.062 C 
ATOM     43  C   UNL     1       5.060   5.556  16.720  0.00  0.00    +0.044 C 
ATOM     44  H   UNL     1       6.155   6.103  19.854  0.00  0.00    +0.047 HD
ATOM     45  H   UNL     1       5.806   4.414  19.398  0.00  0.00    +0.047 HD
ATOM     46  H   UNL     1       7.546   6.361  17.779  0.00  0.00    +0.057 HD
ATOM     47  H   UNL     1       8.151   5.068  18.818  0.00  0.00    +0.057 HD
ATOM     48  H   UNL     1       6.018   4.042  15.501  0.00  0.00    +0.057 HD
ATOM     49  H   UNL     1       5.447   3.442  17.060  0.00  0.00    +0.057 HD
ATOM     50  H   UNL     1       4.099   5.420  16.215  0.00  0.00    +0.047 HD
ATOM     51  H   UNL     1       5.552   6.414  16.245  0.00  0.00    +0.047 HD
ENDBRANCH  35  38
ENDBRANCH   5  35
TORSDOF 5
ENDMDL
MODEL 13
REMARK VINA RESULT:    -8.320      1.949      3.610
REMARK INTER + INTRA:         -10.832
REMARK INTER:                 -10.137
REMARK INTRA:                  -0.695
REMARK UNBOUND:                -0.080
REMARK  Name = 
REMARK  5 active torsions:
REMARK  status: ('A' for Active; 'I' for Inactive)
REMARK    1  A    between atoms: C_2  and  C_15
REMARK    2  A    between atoms: N_3  and  C_4
REMARK    3  A    between atoms: C_4  and  C_5
REMARK    4  A    between atoms: C_19  and  S_20
REMARK    5  A    between atoms: S_20  and  N_23
REMARK                            x       y       z     vdW  Elec       q    Type
REMARK                         _______ _______ _______ _____ _____    ______ ____
ROOT
ATOM      1  C   UNL     1       2.045   6.800  19.571  0.00  0.00    +0.039 A 
ATOM      2  C   UNL     1       2.779   6.984  18.391  0.00  0.00    -0.050 A 
ATOM      3  C   UNL     1       2.781   8.221  17.740  0.00  0.00    -0.059 A 
ATOM      4  C   UNL     1       2.061   9.289  18.272  0.00  0.00    -0.035 A 
ATOM      5  C   UNL     1       1.353   9.110  19.465  0.00  0.00    +0.106 A 
ATOM      6  C   UNL     1       1.335   7.874  20.119  0.00  0.00    -0.023 A 
ATOM      7  H   UNL     1       3.346   6.155  17.969  0.00  0.00    +0.063 HD
ATOM      8  H   UNL     1       3.344   8.347  16.818  0.00  0.00    +0.062 HD
ATOM      9  H   UNL     1       2.060  10.248  17.758  0.00  0.00    +0.064 HD
ATOM     10  H   UNL     1       0.790   7.772  21.054  0.00  0.00    +0.064 HD
ENDROOT
BRANCH   1  12
ATOM     11  O   UNL     1       1.943   5.370  21.438  0.00  0.00    -0.270 OA
ATOM     12  C   UNL     1       2.076   5.464  20.224  0.00  0.00    +0.244 C 
ATOM     13  N   UNL     1       2.275   4.379  19.396  0.00  0.00    -0.308 N 
ATOM     14  H   UNL     1       2.600   4.539  18.451  0.00  0.00    +0.149 HD
BRANCH  13  15
ATOM     15  C   UNL     1       2.460   3.039  19.931  0.00  0.00    +0.052 C 
ATOM     16  H   UNL     1       2.418   3.124  21.022  0.00  0.00    +0.050 HD
ATOM     17  H   UNL     1       1.593   2.435  19.639  0.00  0.00    +0.050 HD
BRANCH  15  18
ATOM     18  C   UNL     1       3.751   2.328  19.480  0.00  0.00    +0.149 C 
ATOM     19  C   UNL     1       3.716   1.844  18.032  0.00  0.00    +0.128 C 
ATOM     20  O   UNL     1       3.572   2.933  17.115  0.00  0.00    -0.485 OA
ATOM     21  C   UNL     1       4.470   3.929  17.400  0.00  0.00    +0.162 A 
ATOM     22  C   UNL     1       4.717   4.860  16.393  0.00  0.00    -0.016 A 
ATOM     23  C   UNL     1       5.629   5.894  16.612  0.00  0.00    -0.058 A 
ATOM     24  C   UNL     1       6.286   5.999  17.839  0.00  0.00    -0.058 A 
ATOM     25  C   UNL     1       6.026   5.075  18.852  0.00  0.00    -0.016 A 
ATOM     26  C   UNL     1       5.108   4.048  18.638  0.00  0.00    +0.163 A 
ATOM     27  O   UNL     1       4.879   3.202  19.691  0.00  0.00    -0.480 OA
ATOM     28  H   UNL     1       3.923   1.455  20.120  0.00  0.00    +0.078 HD
ATOM     29  H   UNL     1       4.639   1.304  17.779  0.00  0.00    +0.073 HD
ATOM     30  H   UNL     1       2.883   1.154  17.866  0.00  0.00    +0.073 HD
ATOM     31  H   UNL     1       4.209   4.774  15.437  0.00  0.00    +0.066 HD
ATOM     32  H   UNL     1       5.828   6.617  15.825  0.00  0.00    +0.062 HD
ATOM     33  H   UNL     1       6.999   6.802  18.008  0.00  0.00    +0.062 HD
ATOM     34  H   UNL     1       6.530   5.161  19.810  0.00  0.00    +0.066 HD
ENDBRANCH  15  18
ENDBRANCH  13  15
ENDBRANCH   1  12
BRANCH   5  35
ATOM     35  S   UNL     1       0.436  10.456  20.169  0.00  0.00    +0.061 S 
ATOM     36  O   UNL     1       1.397  11.475  20.534  0.00  0.00    -0.153 OA
ATOM     37  O   UNL     1      -0.502   9.927  21.135  0.00  0.00    -0.153 OA
BRANCH  35  38
ATOM     38  N   UNL     1      -0.463  11.029  18.836  0.00  0.00    -0.172 NA
ATOM     39  C   UNL     1      -1.413  10.035  18.230  0.00  0.00    +0.044 C 
ATOM     40  C   UNL     1      -2.481  10.753  17.398  0.00  0.00    +0.062 C 
ATOM     41  O   UNL     1      -3.310  11.620  18.181  0.00  0.00    -0.377 OA
ATOM     42  C   UNL     1      -2.631  12.184  19.314  0.00  0.00    +0.062 C 
ATOM     43  C   UNL     1      -1.127  12.355  19.086  0.00  0.00    +0.044 C 
ATOM     44  H   UNL     1      -0.847   9.357  17.582  0.00  0.00    +0.047 HD
ATOM     45  H   UNL     1      -1.904   9.453  19.016  0.00  0.00    +0.047 HD
ATOM     46  H   UNL     1      -2.018  11.353  16.605  0.00  0.00    +0.057 HD
ATOM     47  H   UNL     1      -3.136  10.023  16.914  0.00  0.00    +0.057 HD
ATOM     48  H   UNL     1      -3.094  13.153  19.521  0.00  0.00    +0.057 HD
ATOM     49  H   UNL     1      -2.823  11.537  20.177  0.00  0.00    +0.057 HD
ATOM     50  H   UNL     1      -0.678  12.873  19.938  0.00  0.00    +0.047 HD
ATOM     51  H   UNL     1      -0.944  12.976  18.200  0.00  0.00    +0.047 HD
ENDBRANCH  35  38
ENDBRANCH   5  35
TORSDOF 5
ENDMDL
MODEL 14
REMARK VINA RESULT:    -8.275      2.674      8.763
REMARK INTER + INTRA:         -10.774
REMARK INTER:                  -9.709
REMARK INTRA:                  -1.065
REMARK UNBOUND:                -0.080
REMARK  Name = 
REMARK  5 active torsions:
REMARK  status: ('A' for Active; 'I' for Inactive)
REMARK    1  A    between atoms: C_2  and  C_15
REMARK    2  A    between atoms: N_3  and  C_4
REMARK    3  A    between atoms: C_4  and  C_5
REMARK    4  A    between atoms: C_19  and  S_20
REMARK    5  A    between atoms: S_20  and  N_23
REMARK                            x       y       z     vdW  Elec       q    Type
REMARK                         _______ _______ _______ _____ _____    ______ ____
ROOT
ATOM      1  C   UNL     1       1.151   8.862  19.949  0.00  0.00    +0.039 A 
ATOM      2  C   UNL     1       1.297   9.771  18.893  0.00  0.00    -0.050 A 
ATOM      3  C   UNL     1       2.074   9.447  17.777  0.00  0.00    -0.059 A 
ATOM      4  C   UNL     1       2.701   8.205  17.703  0.00  0.00    -0.035 A 
ATOM      5  C   UNL     1       2.530   7.289  18.745  0.00  0.00    +0.106 A 
ATOM      6  C   UNL     1       1.764   7.607  19.871  0.00  0.00    -0.023 A 
ATOM      7  H   UNL     1       0.809  10.745  18.942  0.00  0.00    +0.063 HD
ATOM      8  H   UNL     1       2.191  10.167  16.970  0.00  0.00    +0.062 HD
ATOM      9  H   UNL     1       3.311   7.959  16.835  0.00  0.00    +0.064 HD
ATOM     10  H   UNL     1       1.635   6.866  20.656  0.00  0.00    +0.064 HD
ENDROOT
BRANCH   1  12
ATOM     11  O   UNL     1      -0.462   8.451  21.613  0.00  0.00    -0.270 OA
ATOM     12  C   UNL     1       0.313   9.256  21.113  0.00  0.00    +0.244 C 
ATOM     13  N   UNL     1       0.455  10.553  21.562  0.00  0.00    -0.308 N 
ATOM     14  H   UNL     1       0.935  11.223  20.975  0.00  0.00    +0.149 HD
BRANCH  13  15
ATOM     15  C   UNL     1      -0.405  11.094  22.602  0.00  0.00    +0.052 C 
ATOM     16  H   UNL     1      -1.324  10.498  22.598  0.00  0.00    +0.050 HD
ATOM     17  H   UNL     1       0.074  10.908  23.571  0.00  0.00    +0.050 HD
BRANCH  15  18
ATOM     18  C   UNL     1      -0.721  12.598  22.472  0.00  0.00    +0.149 C 
ATOM     19  C   UNL     1      -0.330  13.197  21.123  0.00  0.00    +0.128 C 
ATOM     20  O   UNL     1      -1.050  12.588  20.046  0.00  0.00    -0.485 OA
ATOM     21  C   UNL     1      -2.392  12.544  20.325  0.00  0.00    +0.162 A 
ATOM     22  C   UNL     1      -3.251  12.344  19.246  0.00  0.00    -0.016 A 
ATOM     23  C   UNL     1      -4.630  12.300  19.456  0.00  0.00    -0.058 A 
ATOM     24  C   UNL     1      -5.147  12.450  20.744  0.00  0.00    -0.058 A 
ATOM     25  C   UNL     1      -4.284  12.635  21.826  0.00  0.00    -0.016 A 
ATOM     26  C   UNL     1      -2.906  12.669  21.618  0.00  0.00    +0.163 A 
ATOM     27  O   UNL     1      -2.122  12.817  22.733  0.00  0.00    -0.480 OA
ATOM     28  H   UNL     1      -0.181  13.147  23.251  0.00  0.00    +0.078 HD
ATOM     29  H   UNL     1      -0.532  14.276  21.103  0.00  0.00    +0.073 HD
ATOM     30  H   UNL     1       0.739  13.065  20.927  0.00  0.00    +0.073 HD
ATOM     31  H   UNL     1      -2.848  12.234  18.243  0.00  0.00    +0.066 HD
ATOM     32  H   UNL     1      -5.303  12.151  18.614  0.00  0.00    +0.062 HD
ATOM     33  H   UNL     1      -6.221  12.420  20.907  0.00  0.00    +0.062 HD
ATOM     34  H   UNL     1      -4.685  12.742  22.830  0.00  0.00    +0.066 HD
ENDBRANCH  15  18
ENDBRANCH  13  15
ENDBRANCH   1  12
BRANCH   5  35
ATOM     35  S   UNL     1       3.309   5.697  18.671  0.00  0.00    +0.061 S 
ATOM     36  O   UNL     1       4.354   5.691  19.672  0.00  0.00    -0.153 OA
ATOM     37  O   UNL     1       3.593   5.379  17.288  0.00  0.00    -0.153 OA
BRANCH  35  38
ATOM     38  N   UNL     1       2.066   4.651  19.194  0.00  0.00    -0.172 NA
ATOM     39  C   UNL     1       1.624   3.627  18.188  0.00  0.00    +0.044 C 
ATOM     40  C   UNL     1       0.890   2.475  18.883  0.00  0.00    +0.062 C 
ATOM     41  O   UNL     1       1.724   1.753  19.798  0.00  0.00    -0.377 OA
ATOM     42  C   UNL     1       2.740   2.566  20.404  0.00  0.00    +0.062 C 
ATOM     43  C   UNL     1       2.328   4.035  20.541  0.00  0.00    +0.044 C 
ATOM     44  H   UNL     1       0.948   4.105  17.472  0.00  0.00    +0.047 HD
ATOM     45  H   UNL     1       2.490   3.226  17.651  0.00  0.00    +0.047 HD
ATOM     46  H   UNL     1       0.021   2.846  19.438  0.00  0.00    +0.057 HD
ATOM     47  H   UNL     1       0.523   1.760  18.141  0.00  0.00    +0.057 HD
ATOM     48  H   UNL     1       2.953   2.141  21.389  0.00  0.00    +0.057 HD
ATOM     49  H   UNL     1       3.650   2.472  19.801  0.00  0.00    +0.057 HD
ATOM     50  H   UNL     1       3.095   4.587  21.091  0.00  0.00    +0.047 HD
ATOM     51  H   UNL     1       1.398   4.117  21.117  0.00  0.00    +0.047 HD
ENDBRANCH  35  38
ENDBRANCH   5  35
TORSDOF 5
ENDMDL
MODEL 15
REMARK VINA RESULT:    -8.241      2.787      8.553
REMARK INTER + INTRA:         -10.730
REMARK INTER:                  -9.938
REMARK INTRA:                  -0.792
REMARK UNBOUND:                -0.080
REMARK  Name = 
REMARK  5 active torsions:
REMARK  status: ('A' for Active; 'I' for Inactive)
REMARK    1  A    between atoms: C_2  and  C_15
REMARK    2  A    between atoms: N_3  and  C_4
REMARK    3  A    between atoms: C_4  and  C_5
REMARK    4  A    between atoms: C_19  and  S_20
REMARK    5  A    between atoms: S_20  and  N_23
REMARK                            x       y       z     vdW  Elec       q    Type
REMARK                         _______ _______ _______ _____ _____    ______ ____
ROOT
ATOM      1  C   UNL     1       0.941   8.816  20.259  0.00  0.00    +0.039 A 
ATOM      2  C   UNL     1       1.010   9.814  19.277  0.00  0.00    -0.050 A 
ATOM      3  C   UNL     1       1.787   9.629  18.129  0.00  0.00    -0.059 A 
ATOM      4  C   UNL     1       2.489   8.439  17.948  0.00  0.00    -0.035 A 
ATOM      5  C   UNL     1       2.394   7.434  18.916  0.00  0.00    +0.106 A 
ATOM      6  C   UNL     1       1.629   7.613  20.073  0.00  0.00    -0.023 A 
ATOM      7  H   UNL     1       0.463  10.747  19.410  0.00  0.00    +0.063 HD
ATOM      8  H   UNL     1       1.844  10.416  17.381  0.00  0.00    +0.062 HD
ATOM      9  H   UNL     1       3.098   8.302  17.056  0.00  0.00    +0.064 HD
ATOM     10  H   UNL     1       1.561   6.806  20.798  0.00  0.00    +0.064 HD
ENDROOT
BRANCH   1  12
ATOM     11  O   UNL     1      -0.534   8.145  21.966  0.00  0.00    -0.270 OA
ATOM     12  C   UNL     1       0.100   9.063  21.461  0.00  0.00    +0.244 C 
ATOM     13  N   UNL     1       0.075  10.356  21.939  0.00  0.00    -0.308 N 
ATOM     14  H   UNL     1       0.432  11.101  21.354  0.00  0.00    +0.149 HD
BRANCH  13  15
ATOM     15  C   UNL     1      -0.813  10.749  23.022  0.00  0.00    +0.052 C 
ATOM     16  H   UNL     1      -1.430   9.875  23.260  0.00  0.00    +0.050 HD
ATOM     17  H   UNL     1      -0.201  10.939  23.911  0.00  0.00    +0.050 HD
BRANCH  15  18
ATOM     18  C   UNL     1      -1.690  11.984  22.734  0.00  0.00    +0.149 C 
ATOM     19  C   UNL     1      -0.973  13.315  22.952  0.00  0.00    +0.128 C 
ATOM     20  O   UNL     1       0.147  13.461  22.072  0.00  0.00    -0.485 OA
ATOM     21  C   UNL     1      -0.209  13.167  20.781  0.00  0.00    +0.162 A 
ATOM     22  C   UNL     1       0.640  13.626  19.776  0.00  0.00    -0.016 A 
ATOM     23  C   UNL     1       0.332  13.372  18.438  0.00  0.00    -0.058 A 
ATOM     24  C   UNL     1      -0.820  12.657  18.109  0.00  0.00    -0.058 A 
ATOM     25  C   UNL     1      -1.662  12.185  19.118  0.00  0.00    -0.016 A 
ATOM     26  C   UNL     1      -1.350  12.429  20.454  0.00  0.00    +0.163 A 
ATOM     27  O   UNL     1      -2.204  11.903  21.389  0.00  0.00    -0.480 OA
ATOM     28  H   UNL     1      -2.566  11.964  23.392  0.00  0.00    +0.078 HD
ATOM     29  H   UNL     1      -1.655  14.157  22.779  0.00  0.00    +0.073 HD
ATOM     30  H   UNL     1      -0.605  13.402  23.979  0.00  0.00    +0.073 HD
ATOM     31  H   UNL     1       1.533  14.187  20.033  0.00  0.00    +0.066 HD
ATOM     32  H   UNL     1       0.990  13.735  17.652  0.00  0.00    +0.062 HD
ATOM     33  H   UNL     1      -1.062  12.463  17.067  0.00  0.00    +0.062 HD
ATOM     34  H   UNL     1      -2.554  11.620  18.863  0.00  0.00    +0.066 HD
ENDBRANCH  15  18
ENDBRANCH  13  15
ENDBRANCH   1  12
BRANCH   5  35
ATOM     35  S   UNL     1       3.270   5.906  18.704  0.00  0.00    +0.061 S 
ATOM     36  O   UNL     1       4.332   5.890  19.687  0.00  0.00    -0.153 OA
ATOM     37  O   UNL     1       3.546   5.716  17.297  0.00  0.00    -0.153 OA
BRANCH  35  38
ATOM     38  N   UNL     1       2.105   4.745  19.162  0.00  0.00    -0.172 NA
ATOM     39  C   UNL     1       1.622   3.851  18.055  0.00  0.00    +0.044 C 
ATOM     40  C   UNL     1       0.982   2.584  18.631  0.00  0.00    +0.062 C 
ATOM     41  O   UNL     1       1.906   1.779  19.375  0.00  0.00    -0.377 OA
ATOM     42  C   UNL     1       2.938   2.545  20.015  0.00  0.00    +0.062 C 
ATOM     43  C   UNL     1       2.489   3.961  20.387  0.00  0.00    +0.044 C 
ATOM     44  H   UNL     1       0.878   4.394  17.464  0.00  0.00    +0.047 HD
ATOM     45  H   UNL     1       2.458   3.567  17.407  0.00  0.00    +0.047 HD
ATOM     46  H   UNL     1       0.145   2.837  19.293  0.00  0.00    +0.057 HD
ATOM     47  H   UNL     1       0.583   1.963  17.824  0.00  0.00    +0.057 HD
ATOM     48  H   UNL     1       3.239   1.997  20.913  0.00  0.00    +0.057 HD
ATOM     49  H   UNL     1       3.802   2.574  19.342  0.00  0.00    +0.057 HD
ATOM     50  H   UNL     1       3.277   4.464  20.954  0.00  0.00    +0.047 HD
ATOM     51  H   UNL     1       1.604   3.923  21.033  0.00  0.00    +0.047 HD
ENDBRANCH  35  38
ENDBRANCH   5  35
TORSDOF 5
ENDMDL
MODEL 16
REMARK VINA RESULT:    -8.174      2.604      4.142
REMARK INTER + INTRA:         -10.644
REMARK INTER:                 -10.201
REMARK INTRA:                  -0.443
REMARK UNBOUND:                -0.080
REMARK  Name = 
REMARK  5 active torsions:
REMARK  status: ('A' for Active; 'I' for Inactive)
REMARK    1  A    between atoms: C_2  and  C_15
REMARK    2  A    between atoms: N_3  and  C_4
REMARK    3  A    between atoms: C_4  and  C_5
REMARK    4  A    between atoms: C_19  and  S_20
REMARK    5  A    between atoms: S_20  and  N_23
REMARK                            x       y       z     vdW  Elec       q    Type
REMARK                         _______ _______ _______ _____ _____    ______ ____
ROOT
ATOM      1  C   UNL     1       0.753   9.380  20.644  0.00  0.00    +0.039 A 
ATOM      2  C   UNL     1       0.843   8.940  21.972  0.00  0.00    -0.050 A 
ATOM      3  C   UNL     1       0.124   9.582  22.984  0.00  0.00    -0.059 A 
ATOM      4  C   UNL     1      -0.702  10.660  22.675  0.00  0.00    -0.035 A 
ATOM      5  C   UNL     1      -0.812  11.079  21.345  0.00  0.00    +0.106 A 
ATOM      6  C   UNL     1      -0.088  10.451  20.325  0.00  0.00    -0.023 A 
ATOM      7  H   UNL     1       1.486   8.096  22.223  0.00  0.00    +0.063 HD
ATOM      8  H   UNL     1       0.212   9.240  24.013  0.00  0.00    +0.062 HD
ATOM      9  H   UNL     1      -1.255  11.162  23.467  0.00  0.00    +0.064 HD
ATOM     10  H   UNL     1      -0.209  10.788  19.299  0.00  0.00    +0.064 HD
ENDROOT
BRANCH   1  12
ATOM     11  O   UNL     1       1.648   9.136  18.481  0.00  0.00    -0.270 OA
ATOM     12  C   UNL     1       1.540   8.662  19.606  0.00  0.00    +0.244 C 
ATOM     13  N   UNL     1       2.104   7.461  19.981  0.00  0.00    -0.308 N 
ATOM     14  H   UNL     1       1.794   7.023  20.839  0.00  0.00    +0.149 HD
BRANCH  13  15
ATOM     15  C   UNL     1       2.779   6.605  19.019  0.00  0.00    +0.052 C 
ATOM     16  H   UNL     1       2.091   6.469  18.177  0.00  0.00    +0.050 HD
ATOM     17  H   UNL     1       3.641   7.154  18.621  0.00  0.00    +0.050 HD
BRANCH  15  18
ATOM     18  C   UNL     1       3.253   5.246  19.572  0.00  0.00    +0.149 C 
ATOM     19  C   UNL     1       2.863   4.055  18.700  0.00  0.00    +0.128 C 
ATOM     20  O   UNL     1       3.456   4.135  17.399  0.00  0.00    -0.485 OA
ATOM     21  C   UNL     1       4.797   4.405  17.494  0.00  0.00    +0.162 A 
ATOM     22  C   UNL     1       5.573   4.136  16.368  0.00  0.00    -0.016 A 
ATOM     23  C   UNL     1       6.947   4.377  16.399  0.00  0.00    -0.058 A 
ATOM     24  C   UNL     1       7.542   4.891  17.552  0.00  0.00    -0.058 A 
ATOM     25  C   UNL     1       6.761   5.174  18.674  0.00  0.00    -0.016 A 
ATOM     26  C   UNL     1       5.387   4.944  18.641  0.00  0.00    +0.163 A 
ATOM     27  O   UNL     1       4.682   5.281  19.767  0.00  0.00    -0.480 OA
ATOM     28  H   UNL     1       2.818   5.091  20.565  0.00  0.00    +0.078 HD
ATOM     29  H   UNL     1       3.183   3.112  19.163  0.00  0.00    +0.073 HD
ATOM     30  H   UNL     1       1.778   3.999  18.569  0.00  0.00    +0.073 HD
ATOM     31  H   UNL     1       5.110   3.731  15.473  0.00  0.00    +0.066 HD
ATOM     32  H   UNL     1       7.555   4.161  15.524  0.00  0.00    +0.062 HD
ATOM     33  H   UNL     1       8.613   5.074  17.577  0.00  0.00    +0.062 HD
ATOM     34  H   UNL     1       7.221   5.583  19.569  0.00  0.00    +0.066 HD
ENDBRANCH  15  18
ENDBRANCH  13  15
ENDBRANCH   1  12
BRANCH   5  35
ATOM     35  S   UNL     1      -1.865  12.443  20.922  0.00  0.00    +0.061 S 
ATOM     36  O   UNL     1      -2.670  12.731  22.089  0.00  0.00    -0.153 OA
ATOM     37  O   UNL     1      -2.473  12.182  19.635  0.00  0.00    -0.153 OA
BRANCH  35  38
ATOM     38  N   UNL     1      -0.752  13.720  20.716  0.00  0.00    -0.172 NA
ATOM     39  C   UNL     1       0.509  13.608  21.525  0.00  0.00    +0.044 C 
ATOM     40  C   UNL     1       1.607  14.497  20.933  0.00  0.00    +0.062 C 
ATOM     41  O   UNL     1       1.987  14.109  19.607  0.00  0.00    -0.377 OA
ATOM     42  C   UNL     1       0.913  13.517  18.859  0.00  0.00    +0.062 C 
ATOM     43  C   UNL     1      -0.465  14.040  19.275  0.00  0.00    +0.044 C 
ATOM     44  H   UNL     1       0.300  13.928  22.551  0.00  0.00    +0.047 HD
ATOM     45  H   UNL     1       0.859  12.570  21.538  0.00  0.00    +0.047 HD
ATOM     46  H   UNL     1       1.282  15.544  20.898  0.00  0.00    +0.057 HD
ATOM     47  H   UNL     1       2.505  14.454  21.556  0.00  0.00    +0.057 HD
ATOM     48  H   UNL     1       1.095  13.733  17.802  0.00  0.00    +0.057 HD
ATOM     49  H   UNL     1       0.972  12.430  18.988  0.00  0.00    +0.057 HD
ATOM     50  H   UNL     1      -1.233  13.630  18.613  0.00  0.00    +0.047 HD
ATOM     51  H   UNL     1      -0.504  15.131  19.175  0.00  0.00    +0.047 HD
ENDBRANCH  35  38
ENDBRANCH   5  35
TORSDOF 5
ENDMDL
MODEL 17
REMARK VINA RESULT:    -8.155      2.954      8.584
REMARK INTER + INTRA:         -10.619
REMARK INTER:                  -9.900
REMARK INTRA:                  -0.719
REMARK UNBOUND:                -0.080
REMARK  Name = 
REMARK  5 active torsions:
REMARK  status: ('A' for Active; 'I' for Inactive)
REMARK    1  A    between atoms: C_2  and  C_15
REMARK    2  A    between atoms: N_3  and  C_4
REMARK    3  A    between atoms: C_4  and  C_5
REMARK    4  A    between atoms: C_19  and  S_20
REMARK    5  A    between atoms: S_20  and  N_23
REMARK                            x       y       z     vdW  Elec       q    Type
REMARK                         _______ _______ _______ _____ _____    ______ ____
ROOT
ATOM      1  C   UNL     1       2.721   5.467  18.813  0.00  0.00    +0.039 A 
ATOM      2  C   UNL     1       2.421   4.101  18.907  0.00  0.00    -0.050 A 
ATOM      3  C   UNL     1       3.001   3.183  18.026  0.00  0.00    -0.059 A 
ATOM      4  C   UNL     1       3.896   3.623  17.053  0.00  0.00    -0.035 A 
ATOM      5  C   UNL     1       4.216   4.982  16.980  0.00  0.00    +0.106 A 
ATOM      6  C   UNL     1       3.633   5.911  17.849  0.00  0.00    -0.023 A 
ATOM      7  H   UNL     1       1.723   3.748  19.665  0.00  0.00    +0.063 HD
ATOM      8  H   UNL     1       2.750   2.128  18.099  0.00  0.00    +0.062 HD
ATOM      9  H   UNL     1       4.340   2.906  16.364  0.00  0.00    +0.064 HD
ATOM     10  H   UNL     1       3.916   6.958  17.780  0.00  0.00    +0.064 HD
ENDROOT
BRANCH   1  12
ATOM     11  O   UNL     1       1.620   5.978  20.829  0.00  0.00    -0.270 OA
ATOM     12  C   UNL     1       2.077   6.401  19.774  0.00  0.00    +0.244 C 
ATOM     13  N   UNL     1       2.018   7.727  19.399  0.00  0.00    -0.308 N 
ATOM     14  H   UNL     1       2.205   7.971  18.435  0.00  0.00    +0.149 HD
BRANCH  13  15
ATOM     15  C   UNL     1       1.294   8.709  20.191  0.00  0.00    +0.052 C 
ATOM     16  H   UNL     1       0.252   8.374  20.237  0.00  0.00    +0.050 HD
ATOM     17  H   UNL     1       1.674   8.663  21.218  0.00  0.00    +0.050 HD
BRANCH  15  18
ATOM     18  C   UNL     1       1.388  10.160  19.678  0.00  0.00    +0.149 C 
ATOM     19  C   UNL     1       1.635  10.269  18.175  0.00  0.00    +0.128 C 
ATOM     20  O   UNL     1       0.562   9.695  17.421  0.00  0.00    -0.485 OA
ATOM     21  C   UNL     1      -0.648  10.154  17.873  0.00  0.00    +0.162 A 
ATOM     22  C   UNL     1      -1.738   9.999  17.018  0.00  0.00    -0.016 A 
ATOM     23  C   UNL     1      -2.998  10.455  17.409  0.00  0.00    -0.058 A 
ATOM     24  C   UNL     1      -3.167  11.059  18.656  0.00  0.00    -0.058 A 
ATOM     25  C   UNL     1      -2.077  11.199  19.518  0.00  0.00    -0.016 A 
ATOM     26  C   UNL     1      -0.821  10.736  19.132  0.00  0.00    +0.163 A 
ATOM     27  O   UNL     1       0.191  10.876  20.045  0.00  0.00    -0.480 OA
ATOM     28  H   UNL     1       2.212  10.669  20.190  0.00  0.00    +0.078 HD
ATOM     29  H   UNL     1       1.740  11.320  17.873  0.00  0.00    +0.073 HD
ATOM     30  H   UNL     1       2.557   9.756  17.888  0.00  0.00    +0.073 HD
ATOM     31  H   UNL     1      -1.604   9.535  16.045  0.00  0.00    +0.066 HD
ATOM     32  H   UNL     1      -3.847  10.341  16.741  0.00  0.00    +0.062 HD
ATOM     33  H   UNL     1      -4.147  11.417  18.960  0.00  0.00    +0.062 HD
ATOM     34  H   UNL     1      -2.210  11.660  20.493  0.00  0.00    +0.066 HD
ENDBRANCH  15  18
ENDBRANCH  13  15
ENDBRANCH   1  12
BRANCH   5  35
ATOM     35  S   UNL     1       5.360   5.567  15.757  0.00  0.00    +0.061 S 
ATOM     36  O   UNL     1       4.918   6.888  15.364  0.00  0.00    -0.153 OA
ATOM     37  O   UNL     1       5.571   4.523  14.778  0.00  0.00    -0.153 OA
BRANCH  35  38
ATOM     38  N   UNL     1       6.804   5.734  16.651  0.00  0.00    -0.172 NA
ATOM     39  C   UNL     1       6.939   7.019  17.417  0.00  0.00    +0.044 C 
ATOM     40  C   UNL     1       7.987   6.876  18.526  0.00  0.00    +0.062 C 
ATOM     41  O   UNL     1       7.628   5.898  19.511  0.00  0.00    -0.377 OA
ATOM     42  C   UNL     1       6.835   4.824  18.982  0.00  0.00    +0.062 C 
ATOM     43  C   UNL     1       7.123   4.538  17.505  0.00  0.00    +0.044 C 
ATOM     44  H   UNL     1       7.250   7.810  16.727  0.00  0.00    +0.047 HD
ATOM     45  H   UNL     1       5.978   7.294  17.866  0.00  0.00    +0.047 HD
ATOM     46  H   UNL     1       8.959   6.592  18.107  0.00  0.00    +0.057 HD
ATOM     47  H   UNL     1       8.120   7.829  19.045  0.00  0.00    +0.057 HD
ATOM     48  H   UNL     1       7.046   3.937  19.586  0.00  0.00    +0.057 HD
ATOM     49  H   UNL     1       5.780   5.080  19.130  0.00  0.00    +0.057 HD
ATOM     50  H   UNL     1       6.566   3.655  17.182  0.00  0.00    +0.047 HD
ATOM     51  H   UNL     1       8.188   4.316  17.361  0.00  0.00    +0.047 HD
ENDBRANCH  35  38
ENDBRANCH   5  35
TORSDOF 5
ENDMDL
MODEL 18
REMARK VINA RESULT:    -8.134      2.340      3.718
REMARK INTER + INTRA:         -10.592
REMARK INTER:                 -10.215
REMARK INTRA:                  -0.377
REMARK UNBOUND:                -0.080
REMARK  Name = 
REMARK  5 active torsions:
REMARK  status: ('A' for Active; 'I' for Inactive)
REMARK    1  A    between atoms: C_2  and  C_15
REMARK    2  A    between atoms: N_3  and  C_4
REMARK    3  A    between atoms: C_4  and  C_5
REMARK    4  A    between atoms: C_19  and  S_20
REMARK    5  A    between atoms: S_20  and  N_23
REMARK                            x       y       z     vdW  Elec       q    Type
REMARK                         _______ _______ _______ _____ _____    ______ ____
ROOT
ATOM      1  C   UNL     1       0.783   9.490  20.712  0.00  0.00    +0.039 A 
ATOM      2  C   UNL     1       0.182   8.764  21.749  0.00  0.00    -0.050 A 
ATOM      3  C   UNL     1      -0.553   9.419  22.742  0.00  0.00    -0.059 A 
ATOM      4  C   UNL     1      -0.705  10.803  22.696  0.00  0.00    -0.035 A 
ATOM      5  C   UNL     1      -0.128  11.521  21.643  0.00  0.00    +0.106 A 
ATOM      6  C   UNL     1       0.619  10.877  20.651  0.00  0.00    -0.023 A 
ATOM      7  H   UNL     1       0.294   7.681  21.792  0.00  0.00    +0.063 HD
ATOM      8  H   UNL     1      -1.004   8.847  23.549  0.00  0.00    +0.062 HD
ATOM      9  H   UNL     1      -1.273  11.310  23.475  0.00  0.00    +0.064 HD
ATOM     10  H   UNL     1       1.039  11.461  19.836  0.00  0.00    +0.064 HD
ENDROOT
BRANCH   1  12
ATOM     11  O   UNL     1       1.700   9.217  18.561  0.00  0.00    -0.270 OA
ATOM     12  C   UNL     1       1.555   8.744  19.681  0.00  0.00    +0.244 C 
ATOM     13  N   UNL     1       2.064   7.520  20.060  0.00  0.00    -0.308 N 
ATOM     14  H   UNL     1       1.723   7.091  20.911  0.00  0.00    +0.149 HD
BRANCH  13  15
ATOM     15  C   UNL     1       2.718   6.640  19.104  0.00  0.00    +0.052 C 
ATOM     16  H   UNL     1       1.988   6.431  18.314  0.00  0.00    +0.050 HD
ATOM     17  H   UNL     1       3.530   7.201  18.627  0.00  0.00    +0.050 HD
BRANCH  15  18
ATOM     18  C   UNL     1       3.282   5.334  19.697  0.00  0.00    +0.149 C 
ATOM     19  C   UNL     1       2.771   4.071  19.006  0.00  0.00    +0.128 C 
ATOM     20  O   UNL     1       3.155   4.030  17.628  0.00  0.00    -0.485 OA
ATOM     21  C   UNL     1       4.492   4.299  17.489  0.00  0.00    +0.162 A 
ATOM     22  C   UNL     1       5.087   3.925  16.286  0.00  0.00    -0.016 A 
ATOM     23  C   UNL     1       6.448   4.158  16.082  0.00  0.00    -0.058 A 
ATOM     24  C   UNL     1       7.210   4.770  17.079  0.00  0.00    -0.058 A 
ATOM     25  C   UNL     1       6.609   5.159  18.278  0.00  0.00    -0.016 A 
ATOM     26  C   UNL     1       5.248   4.935  18.478  0.00  0.00    +0.163 A 
ATOM     27  O   UNL     1       4.723   5.376  19.665  0.00  0.00    -0.480 OA
ATOM     28  H   UNL     1       3.007   5.271  20.755  0.00  0.00    +0.078 HD
ATOM     29  H   UNL     1       3.166   3.171  19.497  0.00  0.00    +0.073 HD
ATOM     30  H   UNL     1       1.679   4.010  19.051  0.00  0.00    +0.073 HD
ATOM     31  H   UNL     1       4.494   3.443  15.514  0.00  0.00    +0.066 HD
ATOM     32  H   UNL     1       6.915   3.861  15.146  0.00  0.00    +0.062 HD
ATOM     33  H   UNL     1       8.270   4.949  16.921  0.00  0.00    +0.062 HD
ATOM     34  H   UNL     1       7.199   5.644  19.050  0.00  0.00    +0.066 HD
ENDBRANCH  15  18
ENDBRANCH  13  15
ENDBRANCH   1  12
BRANCH   5  35
ATOM     35  S   UNL     1      -0.315  13.283  21.556  0.00  0.00    +0.061 S 
ATOM     36  O   UNL     1       0.749  13.778  20.709  0.00  0.00    -0.153 OA
ATOM     37  O   UNL     1      -0.512  13.799  22.893  0.00  0.00    -0.153 OA
BRANCH  35  38
ATOM     38  N   UNL     1      -1.789  13.458  20.714  0.00  0.00    -0.172 NA
ATOM     39  C   UNL     1      -2.218  12.260  19.916  0.00  0.00    +0.044 C 
ATOM     40  C   UNL     1      -3.718  12.328  19.610  0.00  0.00    +0.062 C 
ATOM     41  O   UNL     1      -4.531  12.293  20.789  0.00  0.00    -0.377 OA
ATOM     42  C   UNL     1      -3.896  12.882  21.935  0.00  0.00    +0.062 C 
ATOM     43  C   UNL     1      -2.907  13.992  21.566  0.00  0.00    +0.044 C 
ATOM     44  H   UNL     1      -1.658  12.244  18.975  0.00  0.00    +0.047 HD
ATOM     45  H   UNL     1      -2.008  11.341  20.473  0.00  0.00    +0.047 HD
ATOM     46  H   UNL     1      -3.960  13.244  19.059  0.00  0.00    +0.057 HD
ATOM     47  H   UNL     1      -4.013  11.482  18.983  0.00  0.00    +0.057 HD
ATOM     48  H   UNL     1      -4.687  13.280  22.576  0.00  0.00    +0.057 HD
ATOM     49  H   UNL     1      -3.393  12.082  22.490  0.00  0.00    +0.057 HD
ATOM     50  H   UNL     1      -2.527  14.468  22.474  0.00  0.00    +0.047 HD
ATOM     51  H   UNL     1      -3.411  14.772  20.982  0.00  0.00    +0.047 HD
ENDBRANCH  35  38
ENDBRANCH   5  35
TORSDOF 5
ENDMDL
MODEL 19
REMARK VINA RESULT:    -8.097      3.244      8.942
REMARK INTER + INTRA:         -10.545
REMARK INTER:                 -10.039
REMARK INTRA:                  -0.506
REMARK UNBOUND:                -0.080
REMARK  Name = 
REMARK  5 active torsions:
REMARK  status: ('A' for Active; 'I' for Inactive)
REMARK    1  A    between atoms: C_2  and  C_15
REMARK    2  A    between atoms: N_3  and  C_4
REMARK    3  A    between atoms: C_4  and  C_5
REMARK    4  A    between atoms: C_19  and  S_20
REMARK    5  A    between atoms: S_20  and  N_23
REMARK                            x       y       z     vdW  Elec       q    Type
REMARK                         _______ _______ _______ _____ _____    ______ ____
ROOT
ATOM      1  C   UNL     1       1.376   8.781  20.323  0.00  0.00    +0.039 A 
ATOM      2  C   UNL     1       1.205   9.571  19.178  0.00  0.00    -0.050 A 
ATOM      3  C   UNL     1       1.655   9.124  17.932  0.00  0.00    -0.059 A 
ATOM      4  C   UNL     1       2.267   7.877  17.819  0.00  0.00    -0.035 A 
ATOM      5  C   UNL     1       2.410   7.079  18.958  0.00  0.00    +0.106 A 
ATOM      6  C   UNL     1       1.974   7.521  20.212  0.00  0.00    -0.023 A 
ATOM      7  H   UNL     1       0.727  10.547  19.257  0.00  0.00    +0.063 HD
ATOM      8  H   UNL     1       1.529   9.752  17.053  0.00  0.00    +0.062 HD
ATOM      9  H   UNL     1       2.622   7.536  16.848  0.00  0.00    +0.064 HD
ATOM     10  H   UNL     1       2.082   6.869  21.075  0.00  0.00    +0.064 HD
ENDROOT
BRANCH   1  12
ATOM     11  O   UNL     1       1.410   8.949  22.670  0.00  0.00    -0.270 OA
ATOM     12  C   UNL     1       0.880   9.303  21.624  0.00  0.00    +0.244 C 
ATOM     13  N   UNL     1      -0.191  10.170  21.571  0.00  0.00    -0.308 N 
ATOM     14  H   UNL     1      -0.719  10.243  20.710  0.00  0.00    +0.149 HD
BRANCH  13  15
ATOM     15  C   UNL     1      -0.849  10.639  22.780  0.00  0.00    +0.052 C 
ATOM     16  H   UNL     1      -1.431   9.798  23.172  0.00  0.00    +0.050 HD
ATOM     17  H   UNL     1      -0.076  10.848  23.529  0.00  0.00    +0.050 HD
BRANCH  15  18
ATOM     18  C   UNL     1      -1.734  11.889  22.601  0.00  0.00    +0.149 C 
ATOM     19  C   UNL     1      -1.049  13.194  23.002  0.00  0.00    +0.128 C 
ATOM     20  O   UNL     1       0.103  13.455  22.194  0.00  0.00    -0.485 OA
ATOM     21  C   UNL     1      -0.194  13.310  20.863  0.00  0.00    +0.162 A 
ATOM     22  C   UNL     1       0.687  13.892  19.955  0.00  0.00    -0.016 A 
ATOM     23  C   UNL     1       0.439  13.793  18.585  0.00  0.00    -0.058 A 
ATOM     24  C   UNL     1      -0.687  13.107  18.126  0.00  0.00    -0.058 A 
ATOM     25  C   UNL     1      -1.561  12.511  19.037  0.00  0.00    -0.016 A 
ATOM     26  C   UNL     1      -1.308  12.601  20.404  0.00  0.00    +0.163 A 
ATOM     27  O   UNL     1      -2.191  11.960  21.234  0.00  0.00    -0.480 OA
ATOM     28  H   UNL     1      -2.636  11.782  23.214  0.00  0.00    +0.078 HD
ATOM     29  H   UNL     1      -1.738  14.043  22.899  0.00  0.00    +0.073 HD
ATOM     30  H   UNL     1      -0.725  13.165  24.046  0.00  0.00    +0.073 HD
ATOM     31  H   UNL     1       1.560  14.431  20.314  0.00  0.00    +0.066 HD
ATOM     32  H   UNL     1       1.122  14.253  17.875  0.00  0.00    +0.062 HD
ATOM     33  H   UNL     1      -0.882  13.033  17.060  0.00  0.00    +0.062 HD
ATOM     34  H   UNL     1      -2.432  11.968  18.680  0.00  0.00    +0.066 HD
ENDBRANCH  15  18
ENDBRANCH  13  15
ENDBRANCH   1  12
BRANCH   5  35
ATOM     35  S   UNL     1       3.176   5.484  18.840  0.00  0.00    +0.061 S 
ATOM     36  O   UNL     1       2.471   4.753  17.808  0.00  0.00    -0.153 OA
ATOM     37  O   UNL     1       3.332   4.940  20.172  0.00  0.00    -0.153 OA
BRANCH  35  38
ATOM     38  N   UNL     1       4.733   5.862  18.252  0.00  0.00    -0.172 NA
ATOM     39  C   UNL     1       5.874   5.342  19.078  0.00  0.00    +0.044 C 
ATOM     40  C   UNL     1       7.163   5.307  18.251  0.00  0.00    +0.062 C 
ATOM     41  O   UNL     1       7.085   4.415  17.131  0.00  0.00    -0.377 OA
ATOM     42  C   UNL     1       5.758   4.291  16.596  0.00  0.00    +0.062 C 
ATOM     43  C   UNL     1       4.914   5.553  16.791  0.00  0.00    +0.044 C 
ATOM     44  H   UNL     1       6.016   6.003  19.939  0.00  0.00    +0.047 HD
ATOM     45  H   UNL     1       5.652   4.331  19.436  0.00  0.00    +0.047 HD
ATOM     46  H   UNL     1       7.408   6.306  17.871  0.00  0.00    +0.057 HD
ATOM     47  H   UNL     1       8.002   4.979  18.872  0.00  0.00    +0.057 HD
ATOM     48  H   UNL     1       5.857   4.065  15.530  0.00  0.00    +0.057 HD
ATOM     49  H   UNL     1       5.282   3.427  17.072  0.00  0.00    +0.057 HD
ATOM     50  H   UNL     1       3.952   5.439  16.283  0.00  0.00    +0.047 HD
ATOM     51  H   UNL     1       5.414   6.419  16.340  0.00  0.00    +0.047 HD
ENDBRANCH  35  38
ENDBRANCH   5  35
TORSDOF 5
ENDMDL
MODEL 20
REMARK VINA RESULT:    -8.094      3.057      8.850
REMARK INTER + INTRA:         -10.540
REMARK INTER:                  -9.746
REMARK INTRA:                  -0.795
REMARK UNBOUND:                -0.080
REMARK  Name = 
REMARK  5 active torsions:
REMARK  status: ('A' for Active; 'I' for Inactive)
REMARK    1  A    between atoms: C_2  and  C_15
REMARK    2  A    between atoms: N_3  and  C_4
REMARK    3  A    between atoms: C_4  and  C_5
REMARK    4  A    between atoms: C_19  and  S_20
REMARK    5  A    between atoms: S_20  and  N_23
REMARK                            x       y       z     vdW  Elec       q    Type
REMARK                         _______ _______ _______ _____ _____    ______ ____
ROOT
ATOM      1  C   UNL     1       1.994   7.448  19.159  0.00  0.00    +0.039 A 
ATOM      2  C   UNL     1       1.510   7.197  20.450  0.00  0.00    -0.050 A 
ATOM      3  C   UNL     1       1.720   5.957  21.060  0.00  0.00    -0.059 A 
ATOM      4  C   UNL     1       2.429   4.962  20.389  0.00  0.00    -0.035 A 
ATOM      5  C   UNL     1       2.936   5.226  19.113  0.00  0.00    +0.106 A 
ATOM      6  C   UNL     1       2.721   6.459  18.488  0.00  0.00    -0.023 A 
ATOM      7  H   UNL     1       0.955   7.969  20.983  0.00  0.00    +0.063 HD
ATOM      8  H   UNL     1       1.328   5.769  22.057  0.00  0.00    +0.062 HD
ATOM      9  H   UNL     1       2.585   3.996  20.865  0.00  0.00    +0.064 HD
ATOM     10  H   UNL     1       3.143   6.640  17.503  0.00  0.00    +0.064 HD
ENDROOT
BRANCH   1  12
ATOM     11  O   UNL     1       2.324   9.114  17.530  0.00  0.00    -0.270 OA
ATOM     12  C   UNL     1       1.742   8.784  18.556  0.00  0.00    +0.244 C 
ATOM     13  N   UNL     1       0.850   9.601  19.219  0.00  0.00    -0.308 N 
ATOM     14  H   UNL     1       0.582   9.364  20.166  0.00  0.00    +0.149 HD
BRANCH  13  15
ATOM     15  C   UNL     1       0.626  10.976  18.803  0.00  0.00    +0.052 C 
ATOM     16  H   UNL     1       1.111  11.096  17.828  0.00  0.00    +0.050 HD
ATOM     17  H   UNL     1      -0.448  11.107  18.628  0.00  0.00    +0.050 HD
BRANCH  15  18
ATOM     18  C   UNL     1       1.112  12.048  19.799  0.00  0.00    +0.149 C 
ATOM     19  C   UNL     1       0.571  13.447  19.514  0.00  0.00    +0.128 C 
ATOM     20  O   UNL     1      -0.856  13.491  19.613  0.00  0.00    -0.485 OA
ATOM     21  C   UNL     1      -1.280  12.902  20.777  0.00  0.00    +0.162 A 
ATOM     22  C   UNL     1      -2.574  13.202  21.198  0.00  0.00    -0.016 A 
ATOM     23  C   UNL     1      -3.066  12.645  22.380  0.00  0.00    -0.058 A 
ATOM     24  C   UNL     1      -2.265  11.787  23.135  0.00  0.00    -0.058 A 
ATOM     25  C   UNL     1      -0.974  11.476  22.703  0.00  0.00    -0.016 A 
ATOM     26  C   UNL     1      -0.486  12.023  21.518  0.00  0.00    +0.163 A 
ATOM     27  O   UNL     1       0.776  11.642  21.142  0.00  0.00    -0.480 OA
ATOM     28  H   UNL     1       2.206  12.099  19.767  0.00  0.00    +0.078 HD
ATOM     29  H   UNL     1       0.985  14.177  20.223  0.00  0.00    +0.073 HD
ATOM     30  H   UNL     1       0.846  13.780  18.509  0.00  0.00    +0.073 HD
ATOM     31  H   UNL     1      -3.194  13.875  20.612  0.00  0.00    +0.066 HD
ATOM     32  H   UNL     1      -4.073  12.883  22.713  0.00  0.00    +0.062 HD
ATOM     33  H   UNL     1      -2.647  11.357  24.057  0.00  0.00    +0.062 HD
ATOM     34  H   UNL     1      -0.354  10.800  23.285  0.00  0.00    +0.066 HD
ENDBRANCH  15  18
ENDBRANCH  13  15
ENDBRANCH   1  12
BRANCH   5  35
ATOM     35  S   UNL     1       3.850   3.981  18.240  0.00  0.00    +0.061 S 
ATOM     36  O   UNL     1       2.911   3.295  17.379  0.00  0.00    -0.153 OA
ATOM     37  O   UNL     1       4.671   3.255  19.186  0.00  0.00    -0.153 OA
BRANCH  35  38
ATOM     38  N   UNL     1       4.893   4.907  17.258  0.00  0.00    -0.172 NA
ATOM     39  C   UNL     1       6.296   5.056  17.774  0.00  0.00    +0.044 C 
ATOM     40  C   UNL     1       7.244   5.464  16.641  0.00  0.00    +0.062 C 
ATOM     41  O   UNL     1       7.337   4.477  15.606  0.00  0.00    -0.377 OA
ATOM     42  C   UNL     1       6.131   3.716  15.438  0.00  0.00    +0.062 C 
ATOM     43  C   UNL     1       4.870   4.502  15.809  0.00  0.00    +0.044 C 
ATOM     44  H   UNL     1       6.307   5.829  18.548  0.00  0.00    +0.047 HD
ATOM     45  H   UNL     1       6.642   4.111  18.205  0.00  0.00    +0.047 HD
ATOM     46  H   UNL     1       6.918   6.405  16.182  0.00  0.00    +0.057 HD
ATOM     47  H   UNL     1       8.253   5.624  17.032  0.00  0.00    +0.057 HD
ATOM     48  H   UNL     1       6.086   3.405  14.390  0.00  0.00    +0.057 HD
ATOM     49  H   UNL     1       6.217   2.809  16.046  0.00  0.00    +0.057 HD
ATOM     50  H   UNL     1       3.981   3.912  15.573  0.00  0.00    +0.047 HD
ATOM     51  H   UNL     1       4.809   5.425  15.220  0.00  0.00    +0.047 HD
ENDBRANCH  35  38
ENDBRANCH   5  35
TORSDOF 5
ENDMDL
MODEL 21
REMARK VINA RESULT:    -8.080      2.645      8.675
REMARK INTER + INTRA:         -10.522
REMARK INTER:                  -9.729
REMARK INTRA:                  -0.793
REMARK UNBOUND:                -0.080
REMARK  Name = 
REMARK  5 active torsions:
REMARK  status: ('A' for Active; 'I' for Inactive)
REMARK    1  A    between atoms: C_2  and  C_15
REMARK    2  A    between atoms: N_3  and  C_4
REMARK    3  A    between atoms: C_4  and  C_5
REMARK    4  A    between atoms: C_19  and  S_20
REMARK    5  A    between atoms: S_20  and  N_23
REMARK                            x       y       z     vdW  Elec       q    Type
REMARK                         _______ _______ _______ _____ _____    ______ ____
ROOT
ATOM      1  C   UNL     1       2.030   7.373  19.240  0.00  0.00    +0.039 A 
ATOM      2  C   UNL     1       1.549   7.007  20.504  0.00  0.00    -0.050 A 
ATOM      3  C   UNL     1       1.714   5.702  20.977  0.00  0.00    -0.059 A 
ATOM      4  C   UNL     1       2.375   4.757  20.195  0.00  0.00    -0.035 A 
ATOM      5  C   UNL     1       2.879   5.133  18.946  0.00  0.00    +0.106 A 
ATOM      6  C   UNL     1       2.709   6.433  18.458  0.00  0.00    -0.023 A 
ATOM      7  H   UNL     1       1.032   7.740  21.123  0.00  0.00    +0.063 HD
ATOM      8  H   UNL     1       1.325   5.426  21.955  0.00  0.00    +0.062 HD
ATOM      9  H   UNL     1       2.495   3.740  20.565  0.00  0.00    +0.064 HD
ATOM     10  H   UNL     1       3.128   6.699  17.492  0.00  0.00    +0.064 HD
ENDROOT
BRANCH   1  12
ATOM     11  O   UNL     1       2.285   9.143  17.709  0.00  0.00    -0.270 OA
ATOM     12  C   UNL     1       1.827   8.775  18.784  0.00  0.00    +0.244 C 
ATOM     13  N   UNL     1       1.127   9.604  19.635  0.00  0.00    -0.308 N 
ATOM     14  H   UNL     1       0.975   9.307  20.591  0.00  0.00    +0.149 HD
BRANCH  13  15
ATOM     15  C   UNL     1       0.982  11.025  19.362  0.00  0.00    +0.052 C 
ATOM     16  H   UNL     1       1.853  11.523  19.803  0.00  0.00    +0.050 HD
ATOM     17  H   UNL     1       1.064  11.173  18.279  0.00  0.00    +0.050 HD
BRANCH  15  18
ATOM     18  C   UNL     1      -0.331  11.657  19.865  0.00  0.00    +0.149 C 
ATOM     19  C   UNL     1      -0.693  12.967  19.168  0.00  0.00    +0.128 C 
ATOM     20  O   UNL     1      -0.903  12.778  17.765  0.00  0.00    -0.485 OA
ATOM     21  C   UNL     1      -1.744  11.718  17.539  0.00  0.00    +0.162 A 
ATOM     22  C   UNL     1      -2.343  11.648  16.284  0.00  0.00    -0.016 A 
ATOM     23  C   UNL     1      -3.219  10.601  15.990  0.00  0.00    -0.058 A 
ATOM     24  C   UNL     1      -3.490   9.625  16.950  0.00  0.00    -0.058 A 
ATOM     25  C   UNL     1      -2.877   9.689  18.203  0.00  0.00    -0.016 A 
ATOM     26  C   UNL     1      -1.994  10.728  18.493  0.00  0.00    +0.163 A 
ATOM     27  O   UNL     1      -1.404  10.703  19.730  0.00  0.00    -0.480 OA
ATOM     28  H   UNL     1      -0.244  11.862  20.938  0.00  0.00    +0.078 HD
ATOM     29  H   UNL     1      -1.608  13.396  19.596  0.00  0.00    +0.073 HD
ATOM     30  H   UNL     1       0.101  13.711  19.289  0.00  0.00    +0.073 HD
ATOM     31  H   UNL     1      -2.136  12.411  15.539  0.00  0.00    +0.066 HD
ATOM     32  H   UNL     1      -3.693  10.549  15.013  0.00  0.00    +0.062 HD
ATOM     33  H   UNL     1      -4.175   8.813  16.723  0.00  0.00    +0.062 HD
ATOM     34  H   UNL     1      -3.079   8.925  18.948  0.00  0.00    +0.066 HD
ENDBRANCH  15  18
ENDBRANCH  13  15
ENDBRANCH   1  12
BRANCH   5  35
ATOM     35  S   UNL     1       3.732   3.951  17.935  0.00  0.00    +0.061 S 
ATOM     36  O   UNL     1       2.765   3.423  16.998  0.00  0.00    -0.153 OA
ATOM     37  O   UNL     1       4.506   3.077  18.790  0.00  0.00    -0.153 OA
BRANCH  35  38
ATOM     38  N   UNL     1       4.831   4.929  17.070  0.00  0.00    -0.172 NA
ATOM     39  C   UNL     1       6.188   5.077  17.696  0.00  0.00    +0.044 C 
ATOM     40  C   UNL     1       7.212   5.542  16.654  0.00  0.00    +0.062 C 
ATOM     41  O   UNL     1       7.398   4.596  15.593  0.00  0.00    -0.377 OA
ATOM     42  C   UNL     1       6.221   3.826  15.306  0.00  0.00    +0.062 C 
ATOM     43  C   UNL     1       4.924   4.580  15.610  0.00  0.00    +0.044 C 
ATOM     44  H   UNL     1       6.127   5.820  18.497  0.00  0.00    +0.047 HD
ATOM     45  H   UNL     1       6.516   4.121  18.117  0.00  0.00    +0.047 HD
ATOM     46  H   UNL     1       6.905   6.495  16.207  0.00  0.00    +0.057 HD
ATOM     47  H   UNL     1       8.185   5.700  17.127  0.00  0.00    +0.057 HD
ATOM     48  H   UNL     1       6.260   3.555  14.247  0.00  0.00    +0.057 HD
ATOM     49  H   UNL     1       6.276   2.897  15.885  0.00  0.00    +0.057 HD
ATOM     50  H   UNL     1       4.064   3.987  15.284  0.00  0.00    +0.047 HD
ATOM     51  H   UNL     1       4.892   5.523  15.052  0.00  0.00    +0.047 HD
ENDBRANCH  35  38
ENDBRANCH   5  35
TORSDOF 5
ENDMDL
MODEL 22
REMARK VINA RESULT:    -7.995      2.365      3.144
REMARK INTER + INTRA:         -10.413
REMARK INTER:                  -9.679
REMARK INTRA:                  -0.733
REMARK UNBOUND:                -0.080
REMARK  Name = 
REMARK  5 active torsions:
REMARK  status: ('A' for Active; 'I' for Inactive)
REMARK    1  A    between atoms: C_2  and  C_15
REMARK    2  A    between atoms: N_3  and  C_4
REMARK    3  A    between atoms: C_4  and  C_5
REMARK    4  A    between atoms: C_19  and  S_20
REMARK    5  A    between atoms: S_20  and  N_23
REMARK                            x       y       z     vdW  Elec       q    Type
REMARK                         _______ _______ _______ _____ _____    ______ ____
ROOT
ATOM      1  C   UNL     1       0.897   9.211  19.390  0.00  0.00    +0.039 A 
ATOM      2  C   UNL     1       0.319   9.546  18.157  0.00  0.00    -0.050 A 
ATOM      3  C   UNL     1      -0.576  10.616  18.059  0.00  0.00    -0.059 A 
ATOM      4  C   UNL     1      -0.890  11.367  19.190  0.00  0.00    -0.035 A 
ATOM      5  C   UNL     1      -0.291  11.048  20.412  0.00  0.00    +0.106 A 
ATOM      6  C   UNL     1       0.598   9.973  20.524  0.00  0.00    -0.023 A 
ATOM      7  H   UNL     1       0.560   8.966  17.268  0.00  0.00    +0.063 HD
ATOM      8  H   UNL     1      -1.028  10.858  17.100  0.00  0.00    +0.062 HD
ATOM      9  H   UNL     1      -1.594  12.194  19.110  0.00  0.00    +0.064 HD
ATOM     10  H   UNL     1       1.062   9.762  21.484  0.00  0.00    +0.064 HD
ENDROOT
BRANCH   1  12
ATOM     11  O   UNL     1       2.022   7.462  20.491  0.00  0.00    -0.270 OA
ATOM     12  C   UNL     1       1.843   8.064  19.440  0.00  0.00    +0.244 C 
ATOM     13  N   UNL     1       2.492   7.750  18.264  0.00  0.00    -0.308 N 
ATOM     14  H   UNL     1       2.472   8.416  17.502  0.00  0.00    +0.149 HD
BRANCH  13  15
ATOM     15  C   UNL     1       3.537   6.740  18.220  0.00  0.00    +0.052 C 
ATOM     16  H   UNL     1       4.408   7.205  17.744  0.00  0.00    +0.050 HD
ATOM     17  H   UNL     1       3.837   6.517  19.251  0.00  0.00    +0.050 HD
BRANCH  15  18
ATOM     18  C   UNL     1       3.151   5.429  17.508  0.00  0.00    +0.149 C 
ATOM     19  C   UNL     1       4.243   4.362  17.542  0.00  0.00    +0.128 C 
ATOM     20  O   UNL     1       4.549   3.962  18.881  0.00  0.00    -0.485 OA
ATOM     21  C   UNL     1       3.402   3.678  19.577  0.00  0.00    +0.162 A 
ATOM     22  C   UNL     1       3.542   2.921  20.738  0.00  0.00    -0.016 A 
ATOM     23  C   UNL     1       2.414   2.586  21.489  0.00  0.00    -0.058 A 
ATOM     24  C   UNL     1       1.150   3.012  21.080  0.00  0.00    -0.058 A 
ATOM     25  C   UNL     1       1.013   3.783  19.924  0.00  0.00    -0.016 A 
ATOM     26  C   UNL     1       2.139   4.127  19.180  0.00  0.00    +0.163 A 
ATOM     27  O   UNL     1       1.929   4.916  18.079  0.00  0.00    -0.480 OA
ATOM     28  H   UNL     1       2.924   5.643  16.458  0.00  0.00    +0.078 HD
ATOM     29  H   UNL     1       3.934   3.470  16.981  0.00  0.00    +0.073 HD
ATOM     30  H   UNL     1       5.167   4.728  17.083  0.00  0.00    +0.073 HD
ATOM     31  H   UNL     1       4.526   2.585  21.052  0.00  0.00    +0.066 HD
ATOM     32  H   UNL     1       2.521   1.990  22.392  0.00  0.00    +0.062 HD
ATOM     33  H   UNL     1       0.271   2.748  21.662  0.00  0.00    +0.062 HD
ATOM     34  H   UNL     1       0.030   4.124  19.610  0.00  0.00    +0.066 HD
ENDBRANCH  15  18
ENDBRANCH  13  15
ENDBRANCH   1  12
BRANCH   5  35
ATOM     35  S   UNL     1      -0.665  11.994  21.865  0.00  0.00    +0.061 S 
ATOM     36  O   UNL     1       0.214  13.143  21.857  0.00  0.00    -0.153 OA
ATOM     37  O   UNL     1      -0.725  11.101  23.002  0.00  0.00    -0.153 OA
BRANCH  35  38
ATOM     38  N   UNL     1      -2.252  12.538  21.553  0.00  0.00    -0.172 NA
ATOM     39  C   UNL     1      -3.235  12.319  22.668  0.00  0.00    +0.044 C 
ATOM     40  C   UNL     1      -4.450  13.239  22.501  0.00  0.00    +0.062 C 
ATOM     41  O   UNL     1      -4.113  14.630  22.577  0.00  0.00    -0.377 OA
ATOM     42  C   UNL     1      -2.788  14.920  22.105  0.00  0.00    +0.062 C 
ATOM     43  C   UNL     1      -2.311  13.945  21.025  0.00  0.00    +0.044 C 
ATOM     44  H   UNL     1      -3.567  11.277  22.646  0.00  0.00    +0.047 HD
ATOM     45  H   UNL     1      -2.763  12.525  23.634  0.00  0.00    +0.047 HD
ATOM     46  H   UNL     1      -4.940  13.062  21.536  0.00  0.00    +0.057 HD
ATOM     47  H   UNL     1      -5.187  13.037  23.283  0.00  0.00    +0.057 HD
ATOM     48  H   UNL     1      -2.799  15.941  21.713  0.00  0.00    +0.057 HD
ATOM     49  H   UNL     1      -2.113  14.906  22.968  0.00  0.00    +0.057 HD
ATOM     50  H   UNL     1      -1.342  14.267  20.635  0.00  0.00    +0.047 HD
ATOM     51  H   UNL     1      -3.011  13.941  20.180  0.00  0.00    +0.047 HD
ENDBRANCH  35  38
ENDBRANCH   5  35
TORSDOF 5
ENDMDL
MODEL 23
REMARK VINA RESULT:    -7.989      2.735      4.392
REMARK INTER + INTRA:         -10.405
REMARK INTER:                  -9.677
REMARK INTRA:                  -0.727
REMARK UNBOUND:                -0.080
REMARK  Name = 
REMARK  5 active torsions:
REMARK  status: ('A' for Active; 'I' for Inactive)
REMARK    1  A    between atoms: C_2  and  C_15
REMARK    2  A    between atoms: N_3  and  C_4
REMARK    3  A    between atoms: C_4  and  C_5
REMARK    4  A    between atoms: C_19  and  S_20
REMARK    5  A    between atoms: S_20  and  N_23
REMARK                            x       y       z     vdW  Elec       q    Type
REMARK                         _______ _______ _______ _____ _____    ______ ____
ROOT
ATOM      1  C   UNL     1       2.044   6.828  19.578  0.00  0.00    +0.039 A 
ATOM      2  C   UNL     1       2.696   7.013  18.351  0.00  0.00    -0.050 A 
ATOM      3  C   UNL     1       2.664   8.254  17.709  0.00  0.00    -0.059 A 
ATOM      4  C   UNL     1       1.992   9.324  18.296  0.00  0.00    -0.035 A 
ATOM      5  C   UNL     1       1.367   9.145  19.534  0.00  0.00    +0.106 A 
ATOM      6  C   UNL     1       1.383   7.904  20.180  0.00  0.00    -0.023 A 
ATOM      7  H   UNL     1       3.225   6.182  17.886  0.00  0.00    +0.063 HD
ATOM      8  H   UNL     1       3.162   8.382  16.751  0.00  0.00    +0.062 HD
ATOM      9  H   UNL     1       1.964  10.287  17.789  0.00  0.00    +0.064 HD
ATOM     10  H   UNL     1       0.904   7.801  21.150  0.00  0.00    +0.064 HD
ENDROOT
BRANCH   1  12
ATOM     11  O   UNL     1       2.014   5.383  21.436  0.00  0.00    -0.270 OA
ATOM     12  C   UNL     1       2.108   5.487  20.219  0.00  0.00    +0.244 C 
ATOM     13  N   UNL     1       2.291   4.410  19.377  0.00  0.00    -0.308 N 
ATOM     14  H   UNL     1       2.584   4.580  18.423  0.00  0.00    +0.149 HD
BRANCH  13  15
ATOM     15  C   UNL     1       2.505   3.069  19.895  0.00  0.00    +0.052 C 
ATOM     16  H   UNL     1       2.465   3.139  20.988  0.00  0.00    +0.050 HD
ATOM     17  H   UNL     1       1.649   2.450  19.599  0.00  0.00    +0.050 HD
BRANCH  15  18
ATOM     18  C   UNL     1       3.809   2.389  19.431  0.00  0.00    +0.149 C 
ATOM     19  C   UNL     1       3.778   1.920  17.978  0.00  0.00    +0.128 C 
ATOM     20  O   UNL     1       3.607   3.015  17.073  0.00  0.00    -0.485 OA
ATOM     21  C   UNL     1       4.485   4.027  17.366  0.00  0.00    +0.162 A 
ATOM     22  C   UNL     1       4.709   4.973  16.368  0.00  0.00    -0.016 A 
ATOM     23  C   UNL     1       5.599   6.024  16.594  0.00  0.00    -0.058 A 
ATOM     24  C   UNL     1       6.260   6.130  17.819  0.00  0.00    -0.058 A 
ATOM     25  C   UNL     1       6.023   5.189  18.824  0.00  0.00    -0.016 A 
ATOM     26  C   UNL     1       5.126   4.146  18.602  0.00  0.00    +0.163 A 
ATOM     27  O   UNL     1       4.919   3.284  19.648  0.00  0.00    -0.480 OA
ATOM     28  H   UNL     1       4.001   1.513  20.061  0.00  0.00    +0.078 HD
ATOM     29  H   UNL     1       4.710   1.402  17.716  0.00  0.00    +0.073 HD
ATOM     30  H   UNL     1       2.958   1.215  17.808  0.00  0.00    +0.073 HD
ATOM     31  H   UNL     1       4.199   4.887  15.413  0.00  0.00    +0.066 HD
ATOM     32  H   UNL     1       5.780   6.759  15.814  0.00  0.00    +0.062 HD
ATOM     33  H   UNL     1       6.956   6.946  17.994  0.00  0.00    +0.062 HD
ATOM     34  H   UNL     1       6.529   5.276  19.781  0.00  0.00    +0.066 HD
ENDBRANCH  15  18
ENDBRANCH  13  15
ENDBRANCH   1  12
BRANCH   5  35
ATOM     35  S   UNL     1       0.513  10.493  20.308  0.00  0.00    +0.061 S 
ATOM     36  O   UNL     1       0.825  10.434  21.720  0.00  0.00    -0.153 OA
ATOM     37  O   UNL     1      -0.856  10.509  19.840  0.00  0.00    -0.153 OA
BRANCH  35  38
ATOM     38  N   UNL     1       1.299  11.857  19.647  0.00  0.00    -0.172 NA
ATOM     39  C   UNL     1       0.470  12.678  18.701  0.00  0.00    +0.044 C 
ATOM     40  C   UNL     1       1.061  14.084  18.551  0.00  0.00    +0.062 C 
ATOM     41  O   UNL     1       1.059  14.825  19.778  0.00  0.00    -0.377 OA
ATOM     42  C   UNL     1       1.190  13.995  20.943  0.00  0.00    +0.062 C 
ATOM     43  C   UNL     1       1.983  12.713  20.677  0.00  0.00    +0.044 C 
ATOM     44  H   UNL     1       0.459  12.186  17.724  0.00  0.00    +0.047 HD
ATOM     45  H   UNL     1      -0.557  12.760  19.072  0.00  0.00    +0.047 HD
ATOM     46  H   UNL     1       2.095  14.033  18.189  0.00  0.00    +0.057 HD
ATOM     47  H   UNL     1       0.486  14.659  17.820  0.00  0.00    +0.057 HD
ATOM     48  H   UNL     1       1.686  14.593  21.713  0.00  0.00    +0.057 HD
ATOM     49  H   UNL     1       0.183  13.762  21.305  0.00  0.00    +0.057 HD
ATOM     50  H   UNL     1       2.134  12.168  21.614  0.00  0.00    +0.047 HD
ATOM     51  H   UNL     1       2.978  12.954  20.283  0.00  0.00    +0.047 HD
ENDBRANCH  35  38
ENDBRANCH   5  35
TORSDOF 5
ENDMDL
MODEL 24
REMARK VINA RESULT:    -7.950      2.454      4.067
REMARK INTER + INTRA:         -10.355
REMARK INTER:                  -9.653
REMARK INTRA:                  -0.701
REMARK UNBOUND:                -0.080
REMARK  Name = 
REMARK  5 active torsions:
REMARK  status: ('A' for Active; 'I' for Inactive)
REMARK    1  A    between atoms: C_2  and  C_15
REMARK    2  A    between atoms: N_3  and  C_4
REMARK    3  A    between atoms: C_4  and  C_5
REMARK    4  A    between atoms: C_19  and  S_20
REMARK    5  A    between atoms: S_20  and  N_23
REMARK                            x       y       z     vdW  Elec       q    Type
REMARK                         _______ _______ _______ _____ _____    ______ ____
ROOT
ATOM      1  C   UNL     1       1.225   8.724  20.380  0.00  0.00    +0.039 A 
ATOM      2  C   UNL     1       1.230   8.469  21.758  0.00  0.00    -0.050 A 
ATOM      3  C   UNL     1       0.553   9.317  22.640  0.00  0.00    -0.059 A 
ATOM      4  C   UNL     1      -0.145  10.418  22.150  0.00  0.00    -0.035 A 
ATOM      5  C   UNL     1      -0.172  10.654  20.772  0.00  0.00    +0.106 A 
ATOM      6  C   UNL     1       0.511   9.819  19.880  0.00  0.00    -0.023 A 
ATOM      7  H   UNL     1       1.772   7.609  22.150  0.00  0.00    +0.063 HD
ATOM      8  H   UNL     1       0.575   9.116  23.709  0.00  0.00    +0.062 HD
ATOM      9  H   UNL     1      -0.665  11.080  22.841  0.00  0.00    +0.064 HD
ATOM     10  H   UNL     1       0.456  10.018  18.814  0.00  0.00    +0.064 HD
ENDROOT
BRANCH   1  12
ATOM     11  O   UNL     1       2.454   8.203  18.441  0.00  0.00    -0.270 OA
ATOM     12  C   UNL     1       1.961   7.792  19.485  0.00  0.00    +0.244 C 
ATOM     13  N   UNL     1       2.032   6.476  19.891  0.00  0.00    -0.308 N 
ATOM     14  H   UNL     1       1.421   6.160  20.634  0.00  0.00    +0.149 HD
BRANCH  13  15
ATOM     15  C   UNL     1       2.605   5.447  19.038  0.00  0.00    +0.052 C 
ATOM     16  H   UNL     1       1.797   4.749  18.794  0.00  0.00    +0.050 HD
ATOM     17  H   UNL     1       2.898   5.916  18.091  0.00  0.00    +0.050 HD
BRANCH  15  18
ATOM     18  C   UNL     1       3.817   4.704  19.633  0.00  0.00    +0.149 C 
ATOM     19  C   UNL     1       4.003   3.289  19.089  0.00  0.00    +0.128 C 
ATOM     20  O   UNL     1       4.247   3.294  17.679  0.00  0.00    -0.485 OA
ATOM     21  C   UNL     1       5.225   4.201  17.359  0.00  0.00    +0.162 A 
ATOM     22  C   UNL     1       5.837   4.053  16.116  0.00  0.00    -0.016 A 
ATOM     23  C   UNL     1       6.849   4.934  15.731  0.00  0.00    -0.058 A 
ATOM     24  C   UNL     1       7.243   5.964  16.587  0.00  0.00    -0.058 A 
ATOM     25  C   UNL     1       6.618   6.120  17.826  0.00  0.00    -0.016 A 
ATOM     26  C   UNL     1       5.601   5.247  18.206  0.00  0.00    +0.163 A 
ATOM     27  O   UNL     1       5.011   5.486  19.420  0.00  0.00    -0.480 OA
ATOM     28  H   UNL     1       3.696   4.631  20.720  0.00  0.00    +0.078 HD
ATOM     29  H   UNL     1       4.849   2.791  19.580  0.00  0.00    +0.073 HD
ATOM     30  H   UNL     1       3.116   2.676  19.272  0.00  0.00    +0.073 HD
ATOM     31  H   UNL     1       5.534   3.247  15.453  0.00  0.00    +0.066 HD
ATOM     32  H   UNL     1       7.332   4.816  14.764  0.00  0.00    +0.062 HD
ATOM     33  H   UNL     1       8.033   6.648  16.289  0.00  0.00    +0.062 HD
ATOM     34  H   UNL     1       6.917   6.927  18.488  0.00  0.00    +0.066 HD
ENDBRANCH  15  18
ENDBRANCH  13  15
ENDBRANCH   1  12
BRANCH   5  35
ATOM     35  S   UNL     1      -1.062  12.043  20.120  0.00  0.00    +0.061 S 
ATOM     36  O   UNL     1      -2.141  11.512  19.316  0.00  0.00    -0.153 OA
ATOM     37  O   UNL     1      -0.114  12.991  19.574  0.00  0.00    -0.153 OA
BRANCH  35  38
ATOM     38  N   UNL     1      -1.738  12.741  21.522  0.00  0.00    -0.172 NA
ATOM     39  C   UNL     1      -1.236  14.116  21.860  0.00  0.00    +0.044 C 
ATOM     40  C   UNL     1      -2.211  14.827  22.804  0.00  0.00    +0.062 C 
ATOM     41  O   UNL     1      -3.501  15.042  22.217  0.00  0.00    -0.377 OA
ATOM     42  C   UNL     1      -3.865  14.033  21.262  0.00  0.00    +0.062 C 
ATOM     43  C   UNL     1      -3.240  12.669  21.564  0.00  0.00    +0.044 C 
ATOM     44  H   UNL     1      -0.262  14.024  22.351  0.00  0.00    +0.047 HD
ATOM     45  H   UNL     1      -1.123  14.712  20.949  0.00  0.00    +0.047 HD
ATOM     46  H   UNL     1      -2.352  14.248  23.725  0.00  0.00    +0.057 HD
ATOM     47  H   UNL     1      -1.815  15.805  23.090  0.00  0.00    +0.057 HD
ATOM     48  H   UNL     1      -4.956  13.958  21.269  0.00  0.00    +0.057 HD
ATOM     49  H   UNL     1      -3.566  14.387  20.269  0.00  0.00    +0.057 HD
ATOM     50  H   UNL     1      -3.624  11.920  20.866  0.00  0.00    +0.047 HD
ATOM     51  H   UNL     1      -3.517  12.338  22.573  0.00  0.00    +0.047 HD
ENDBRANCH  35  38
ENDBRANCH   5  35
TORSDOF 5
ENDMDL
MODEL 25
REMARK VINA RESULT:    -7.941      2.715      8.386
REMARK INTER + INTRA:         -10.343
REMARK INTER:                  -9.272
REMARK INTRA:                  -1.071
REMARK UNBOUND:                -0.080
REMARK  Name = 
REMARK  5 active torsions:
REMARK  status: ('A' for Active; 'I' for Inactive)
REMARK    1  A    between atoms: C_2  and  C_15
REMARK    2  A    between atoms: N_3  and  C_4
REMARK    3  A    between atoms: C_4  and  C_5
REMARK    4  A    between atoms: C_19  and  S_20
REMARK    5  A    between atoms: S_20  and  N_23
REMARK                            x       y       z     vdW  Elec       q    Type
REMARK                         _______ _______ _______ _____ _____    ______ ____
ROOT
ATOM      1  C   UNL     1       1.689   6.524  20.569  0.00  0.00    +0.039 A 
ATOM      2  C   UNL     1       0.753   5.494  20.739  0.00  0.00    -0.050 A 
ATOM      3  C   UNL     1       1.050   4.190  20.334  0.00  0.00    -0.059 A 
ATOM      4  C   UNL     1       2.290   3.902  19.769  0.00  0.00    -0.035 A 
ATOM      5  C   UNL     1       3.233   4.925  19.627  0.00  0.00    +0.106 A 
ATOM      6  C   UNL     1       2.942   6.237  20.018  0.00  0.00    -0.023 A 
ATOM      7  H   UNL     1      -0.219   5.710  21.182  0.00  0.00    +0.063 HD
ATOM      8  H   UNL     1       0.311   3.402  20.459  0.00  0.00    +0.062 HD
ATOM      9  H   UNL     1       2.515   2.886  19.448  0.00  0.00    +0.064 HD
ATOM     10  H   UNL     1       3.702   7.006  19.912  0.00  0.00    +0.064 HD
ENDROOT
BRANCH   1  12
ATOM     11  O   UNL     1       1.948   8.432  21.923  0.00  0.00    -0.270 OA
ATOM     12  C   UNL     1       1.323   7.895  21.017  0.00  0.00    +0.244 C 
ATOM     13  N   UNL     1       0.258   8.488  20.373  0.00  0.00    -0.308 N 
ATOM     14  H   UNL     1      -0.349   7.915  19.801  0.00  0.00    +0.149 HD
BRANCH  13  15
ATOM     15  C   UNL     1      -0.279   9.767  20.813  0.00  0.00    +0.052 C 
ATOM     16  H   UNL     1      -1.359   9.634  20.933  0.00  0.00    +0.050 HD
ATOM     17  H   UNL     1       0.115   9.973  21.815  0.00  0.00    +0.050 HD
BRANCH  15  18
ATOM     18  C   UNL     1       0.034  10.960  19.888  0.00  0.00    +0.149 C 
ATOM     19  C   UNL     1       0.656  10.559  18.552  0.00  0.00    +0.128 C 
ATOM     20  O   UNL     1      -0.227   9.736  17.784  0.00  0.00    -0.485 OA
ATOM     21  C   UNL     1      -1.480  10.289  17.728  0.00  0.00    +0.162 A 
ATOM     22  C   UNL     1      -2.327   9.826  16.723  0.00  0.00    -0.016 A 
ATOM     23  C   UNL     1      -3.613  10.354  16.601  0.00  0.00    -0.058 A 
ATOM     24  C   UNL     1      -4.051  11.340  17.486  0.00  0.00    -0.058 A 
ATOM     25  C   UNL     1      -3.206  11.793  18.502  0.00  0.00    -0.016 A 
ATOM     26  C   UNL     1      -1.926  11.259  18.630  0.00  0.00    +0.163 A 
ATOM     27  O   UNL     1      -1.169  11.727  19.673  0.00  0.00    -0.480 OA
ATOM     28  H   UNL     1       0.733  11.634  20.394  0.00  0.00    +0.078 HD
ATOM     29  H   UNL     1       0.901  11.448  17.955  0.00  0.00    +0.073 HD
ATOM     30  H   UNL     1       1.587  10.003  18.701  0.00  0.00    +0.073 HD
ATOM     31  H   UNL     1      -1.983   9.062  16.031  0.00  0.00    +0.066 HD
ATOM     32  H   UNL     1      -4.273   9.998  15.814  0.00  0.00    +0.062 HD
ATOM     33  H   UNL     1      -5.051  11.754  17.389  0.00  0.00    +0.062 HD
ATOM     34  H   UNL     1      -3.550  12.553  19.197  0.00  0.00    +0.066 HD
ENDBRANCH  15  18
ENDBRANCH  13  15
ENDBRANCH   1  12
BRANCH   5  35
ATOM     35  S   UNL     1       4.823   4.583  18.919  0.00  0.00    +0.061 S 
ATOM     36  O   UNL     1       5.027   3.154  19.013  0.00  0.00    -0.153 OA
ATOM     37  O   UNL     1       5.786   5.517  19.460  0.00  0.00    -0.153 OA
BRANCH  35  38
ATOM     38  N   UNL     1       4.590   4.979  17.275  0.00  0.00    -0.172 NA
ATOM     39  C   UNL     1       5.226   6.264  16.829  0.00  0.00    +0.044 C 
ATOM     40  C   UNL     1       5.377   6.287  15.304  0.00  0.00    +0.062 C 
ATOM     41  O   UNL     1       6.245   5.259  14.813  0.00  0.00    -0.377 OA
ATOM     42  C   UNL     1       6.236   4.073  15.622  0.00  0.00    +0.062 C 
ATOM     43  C   UNL     1       4.900   3.846  16.336  0.00  0.00    +0.044 C 
ATOM     44  H   UNL     1       4.590   7.099  17.141  0.00  0.00    +0.047 HD
ATOM     45  H   UNL     1       6.214   6.376  17.287  0.00  0.00    +0.047 HD
ATOM     46  H   UNL     1       4.402   6.168  14.816  0.00  0.00    +0.057 HD
ATOM     47  H   UNL     1       5.789   7.247  14.980  0.00  0.00    +0.057 HD
ATOM     48  H   UNL     1       6.460   3.228  14.964  0.00  0.00    +0.057 HD
ATOM     49  H   UNL     1       7.055   4.152  16.346  0.00  0.00    +0.057 HD
ATOM     50  H   UNL     1       4.916   2.885  16.858  0.00  0.00    +0.047 HD
ATOM     51  H   UNL     1       4.082   3.801  15.607  0.00  0.00    +0.047 HD
ENDBRANCH  35  38
ENDBRANCH   5  35
TORSDOF 5
ENDMDL
MODEL 26
REMARK VINA RESULT:    -7.910      3.048      8.869
REMARK INTER + INTRA:         -10.303
REMARK INTER:                  -9.261
REMARK INTRA:                  -1.042
REMARK UNBOUND:                -0.080
REMARK  Name = 
REMARK  5 active torsions:
REMARK  status: ('A' for Active; 'I' for Inactive)
REMARK    1  A    between atoms: C_2  and  C_15
REMARK    2  A    between atoms: N_3  and  C_4
REMARK    3  A    between atoms: C_4  and  C_5
REMARK    4  A    between atoms: C_19  and  S_20
REMARK    5  A    between atoms: S_20  and  N_23
REMARK                            x       y       z     vdW  Elec       q    Type
REMARK                         _______ _______ _______ _____ _____    ______ ____
ROOT
ATOM      1  C   UNL     1       1.967   7.865  19.142  0.00  0.00    +0.039 A 
ATOM      2  C   UNL     1       1.461   7.673  20.435  0.00  0.00    -0.050 A 
ATOM      3  C   UNL     1       1.577   6.431  21.066  0.00  0.00    -0.059 A 
ATOM      4  C   UNL     1       2.211   5.375  20.415  0.00  0.00    -0.035 A 
ATOM      5  C   UNL     1       2.740   5.578  19.137  0.00  0.00    +0.106 A 
ATOM      6  C   UNL     1       2.621   6.814  18.491  0.00  0.00    -0.023 A 
ATOM      7  H   UNL     1       0.965   8.493  20.952  0.00  0.00    +0.063 HD
ATOM      8  H   UNL     1       1.168   6.290  22.064  0.00  0.00    +0.062 HD
ATOM      9  H   UNL     1       2.292   4.408  20.907  0.00  0.00    +0.064 HD
ATOM     10  H   UNL     1       3.059   6.945  17.505  0.00  0.00    +0.064 HD
ENDROOT
BRANCH   1  12
ATOM     11  O   UNL     1       2.213   9.396  17.371  0.00  0.00    -0.270 OA
ATOM     12  C   UNL     1       1.818   9.206  18.515  0.00  0.00    +0.244 C 
ATOM     13  N   UNL     1       1.241  10.188  19.293  0.00  0.00    -0.308 N 
ATOM     14  H   UNL     1       1.146  10.031  20.288  0.00  0.00    +0.149 HD
BRANCH  13  15
ATOM     15  C   UNL     1       1.165  11.568  18.841  0.00  0.00    +0.052 C 
ATOM     16  H   UNL     1       1.725  12.170  19.564  0.00  0.00    +0.050 HD
ATOM     17  H   UNL     1       1.712  11.645  17.893  0.00  0.00    +0.050 HD
BRANCH  15  18
ATOM     18  C   UNL     1      -0.263  12.117  18.650  0.00  0.00    +0.149 C 
ATOM     19  C   UNL     1      -1.356  11.191  19.179  0.00  0.00    +0.128 C 
ATOM     20  O   UNL     1      -1.239  10.987  20.591  0.00  0.00    -0.485 OA
ATOM     21  C   UNL     1      -1.090  12.184  21.242  0.00  0.00    +0.162 A 
ATOM     22  C   UNL     1      -1.348  12.191  22.612  0.00  0.00    -0.016 A 
ATOM     23  C   UNL     1      -1.228  13.378  23.335  0.00  0.00    -0.058 A 
ATOM     24  C   UNL     1      -0.844  14.555  22.690  0.00  0.00    -0.058 A 
ATOM     25  C   UNL     1      -0.572  14.543  21.321  0.00  0.00    -0.016 A 
ATOM     26  C   UNL     1      -0.682  13.356  20.600  0.00  0.00    +0.163 A 
ATOM     27  O   UNL     1      -0.363  13.417  19.268  0.00  0.00    -0.480 OA
ATOM     28  H   UNL     1      -0.447  12.277  17.582  0.00  0.00    +0.078 HD
ATOM     29  H   UNL     1      -2.351  11.607  18.975  0.00  0.00    +0.073 HD
ATOM     30  H   UNL     1      -1.311  10.210  18.695  0.00  0.00    +0.073 HD
ATOM     31  H   UNL     1      -1.652  11.276  23.112  0.00  0.00    +0.066 HD
ATOM     32  H   UNL     1      -1.435  13.386  24.403  0.00  0.00    +0.062 HD
ATOM     33  H   UNL     1      -0.754  15.480  23.253  0.00  0.00    +0.062 HD
ATOM     34  H   UNL     1      -0.264  15.457  20.819  0.00  0.00    +0.066 HD
ENDBRANCH  15  18
ENDBRANCH  13  15
ENDBRANCH   1  12
BRANCH   5  35
ATOM     35  S   UNL     1       3.562   4.254  18.290  0.00  0.00    +0.061 S 
ATOM     36  O   UNL     1       2.690   3.839  17.212  0.00  0.00    -0.153 OA
ATOM     37  O   UNL     1       4.051   3.306  19.267  0.00  0.00    -0.153 OA
BRANCH  35  38
ATOM     38  N   UNL     1       4.916   5.035  17.606  0.00  0.00    -0.172 NA
ATOM     39  C   UNL     1       6.236   4.705  18.244  0.00  0.00    +0.044 C 
ATOM     40  C   UNL     1       7.391   5.050  17.297  0.00  0.00    +0.062 C 
ATOM     41  O   UNL     1       7.368   4.283  16.086  0.00  0.00    -0.377 OA
ATOM     42  C   UNL     1       6.043   3.916  15.671  0.00  0.00    +0.062 C 
ATOM     43  C   UNL     1       4.978   4.927  16.107  0.00  0.00    +0.044 C 
ATOM     44  H   UNL     1       6.338   5.290  19.164  0.00  0.00    +0.047 HD
ATOM     45  H   UNL     1       6.281   3.639  18.490  0.00  0.00    +0.047 HD
ATOM     46  H   UNL     1       7.366   6.111  17.026  0.00  0.00    +0.057 HD
ATOM     47  H   UNL     1       8.350   4.859  17.787  0.00  0.00    +0.057 HD
ATOM     48  H   UNL     1       6.056   3.829  14.581  0.00  0.00    +0.057 HD
ATOM     49  H   UNL     1       5.826   2.922  16.078  0.00  0.00    +0.057 HD
ATOM     50  H   UNL     1       4.008   4.650  15.685  0.00  0.00    +0.047 HD
ATOM     51  H   UNL     1       5.221   5.925  15.724  0.00  0.00    +0.047 HD
ENDBRANCH  35  38
ENDBRANCH   5  35
TORSDOF 5
ENDMDL
MODEL 27
REMARK VINA RESULT:    -7.895      3.394      9.074
REMARK INTER + INTRA:         -10.284
REMARK INTER:                  -9.846
REMARK INTRA:                  -0.438
REMARK UNBOUND:                -0.080
REMARK  Name = 
REMARK  5 active torsions:
REMARK  status: ('A' for Active; 'I' for Inactive)
REMARK    1  A    between atoms: C_2  and  C_15
REMARK    2  A    between atoms: N_3  and  C_4
REMARK    3  A    between atoms: C_4  and  C_5
REMARK    4  A    between atoms: C_19  and  S_20
REMARK    5  A    between atoms: S_20  and  N_23
REMARK                            x       y       z     vdW  Elec       q    Type
REMARK                         _______ _______ _______ _____ _____    ______ ____
ROOT
ATOM      1  C   UNL     1       2.691   7.280  18.463  0.00  0.00    +0.039 A 
ATOM      2  C   UNL     1       2.577   6.481  19.609  0.00  0.00    -0.050 A 
ATOM      3  C   UNL     1       3.287   5.282  19.714  0.00  0.00    -0.059 A 
ATOM      4  C   UNL     1       4.127   4.878  18.678  0.00  0.00    -0.035 A 
ATOM      5  C   UNL     1       4.261   5.691  17.548  0.00  0.00    +0.106 A 
ATOM      6  C   UNL     1       3.547   6.888  17.428  0.00  0.00    -0.023 A 
ATOM      7  H   UNL     1       1.923   6.790  20.424  0.00  0.00    +0.063 HD
ATOM      8  H   UNL     1       3.180   4.664  20.602  0.00  0.00    +0.062 HD
ATOM      9  H   UNL     1       4.673   3.939  18.761  0.00  0.00    +0.064 HD
ATOM     10  H   UNL     1       3.686   7.507  16.546  0.00  0.00    +0.064 HD
ENDROOT
BRANCH   1  12
ATOM     11  O   UNL     1       1.951   9.242  17.395  0.00  0.00    -0.270 OA
ATOM     12  C   UNL     1       1.913   8.547  18.402  0.00  0.00    +0.244 C 
ATOM     13  N   UNL     1       1.186   8.877  19.526  0.00  0.00    -0.308 N 
ATOM     14  H   UNL     1       1.374   8.386  20.392  0.00  0.00    +0.149 HD
BRANCH  13  15
ATOM     15  C   UNL     1       0.498  10.153  19.638  0.00  0.00    +0.052 C 
ATOM     16  H   UNL     1       0.525  10.617  18.645  0.00  0.00    +0.050 HD
ATOM     17  H   UNL     1      -0.559   9.951  19.849  0.00  0.00    +0.050 HD
BRANCH  15  18
ATOM     18  C   UNL     1       1.058  11.107  20.711  0.00  0.00    +0.149 C 
ATOM     19  C   UNL     1       1.046  12.578  20.297  0.00  0.00    +0.128 C 
ATOM     20  O   UNL     1      -0.285  13.049  20.063  0.00  0.00    -0.485 OA
ATOM     21  C   UNL     1      -1.111  12.704  21.101  0.00  0.00    +0.162 A 
ATOM     22  C   UNL     1      -2.311  13.404  21.208  0.00  0.00    -0.016 A 
ATOM     23  C   UNL     1      -3.195  13.112  22.249  0.00  0.00    -0.058 A 
ATOM     24  C   UNL     1      -2.880  12.116  23.175  0.00  0.00    -0.058 A 
ATOM     25  C   UNL     1      -1.684  11.405  23.057  0.00  0.00    -0.016 A 
ATOM     26  C   UNL     1      -0.806  11.690  22.013  0.00  0.00    +0.163 A 
ATOM     27  O   UNL     1       0.329  10.925  21.942  0.00  0.00    -0.480 OA
ATOM     28  H   UNL     1       2.095  10.831  20.932  0.00  0.00    +0.078 HD
ATOM     29  H   UNL     1       1.498  13.205  21.077  0.00  0.00    +0.073 HD
ATOM     30  H   UNL     1       1.623  12.735  19.381  0.00  0.00    +0.073 HD
ATOM     31  H   UNL     1      -2.552  14.182  20.490  0.00  0.00    +0.066 HD
ATOM     32  H   UNL     1      -4.128  13.662  22.338  0.00  0.00    +0.062 HD
ATOM     33  H   UNL     1      -3.567  11.891  23.987  0.00  0.00    +0.062 HD
ATOM     34  H   UNL     1      -1.443  10.624  23.772  0.00  0.00    +0.066 HD
ENDBRANCH  15  18
ENDBRANCH  13  15
ENDBRANCH   1  12
BRANCH   5  35
ATOM     35  S   UNL     1       5.332   5.205  16.221  0.00  0.00    +0.061 S 
ATOM     36  O   UNL     1       4.929   5.962  15.055  0.00  0.00    -0.153 OA
ATOM     37  O   UNL     1       5.411   3.761  16.188  0.00  0.00    -0.153 OA
BRANCH  35  38
ATOM     38  N   UNL     1       6.850   5.792  16.735  0.00  0.00    -0.172 NA
ATOM     39  C   UNL     1       6.839   7.178  17.313  0.00  0.00    +0.044 C 
ATOM     40  C   UNL     1       8.094   7.417  18.159  0.00  0.00    +0.062 C 
ATOM     41  O   UNL     1       8.176   6.547  19.295  0.00  0.00    -0.377 OA
ATOM     42  C   UNL     1       7.560   5.268  19.077  0.00  0.00    +0.062 C 
ATOM     43  C   UNL     1       7.601   4.827  17.611  0.00  0.00    +0.044 C 
ATOM     44  H   UNL     1       6.815   7.902  16.492  0.00  0.00    +0.047 HD
ATOM     45  H   UNL     1       5.953   7.319  17.941  0.00  0.00    +0.047 HD
ATOM     46  H   UNL     1       9.000   7.274  17.558  0.00  0.00    +0.057 HD
ATOM     47  H   UNL     1       8.108   8.445  18.532  0.00  0.00    +0.057 HD
ATOM     48  H   UNL     1       8.086   4.543  19.704  0.00  0.00    +0.057 HD
ATOM     49  H   UNL     1       6.527   5.326  19.437  0.00  0.00    +0.057 HD
ATOM     50  H   UNL     1       7.206   3.811  17.518  0.00  0.00    +0.047 HD
ATOM     51  H   UNL     1       8.635   4.804  17.249  0.00  0.00    +0.047 HD
ENDBRANCH  35  38
ENDBRANCH   5  35
TORSDOF 5
ENDMDL
MODEL 28
REMARK VINA RESULT:    -7.852      3.021      8.770
REMARK INTER + INTRA:         -10.227
REMARK INTER:                  -9.360
REMARK INTRA:                  -0.867
REMARK UNBOUND:                -0.080
REMARK  Name = 
REMARK  5 active torsions:
REMARK  status: ('A' for Active; 'I' for Inactive)
REMARK    1  A    between atoms: C_2  and  C_15
REMARK    2  A    between atoms: N_3  and  C_4
REMARK    3  A    between atoms: C_4  and  C_5
REMARK    4  A    between atoms: C_19  and  S_20
REMARK    5  A    between atoms: S_20  and  N_23
REMARK                            x       y       z     vdW  Elec       q    Type
REMARK                         _______ _______ _______ _____ _____    ______ ____
ROOT
ATOM      1  C   UNL     1       2.051   5.968  20.159  0.00  0.00    +0.039 A 
ATOM      2  C   UNL     1       1.745   5.127  21.239  0.00  0.00    -0.050 A 
ATOM      3  C   UNL     1       1.996   3.754  21.164  0.00  0.00    -0.059 A 
ATOM      4  C   UNL     1       2.568   3.213  20.015  0.00  0.00    -0.035 A 
ATOM      5  C   UNL     1       2.899   4.058  18.951  0.00  0.00    +0.106 A 
ATOM      6  C   UNL     1       2.642   5.432  19.010  0.00  0.00    -0.023 A 
ATOM      7  H   UNL     1       1.299   5.542  22.142  0.00  0.00    +0.063 HD
ATOM      8  H   UNL     1       1.742   3.110  22.003  0.00  0.00    +0.062 HD
ATOM      9  H   UNL     1       2.756   2.142  19.958  0.00  0.00    +0.064 HD
ATOM     10  H   UNL     1       2.927   6.065  18.175  0.00  0.00    +0.064 HD
ENDROOT
BRANCH   1  12
ATOM     11  O   UNL     1       1.908   8.165  19.328  0.00  0.00    -0.270 OA
ATOM     12  C   UNL     1       1.764   7.422  20.290  0.00  0.00    +0.244 C 
ATOM     13  N   UNL     1       1.353   7.858  21.532  0.00  0.00    -0.308 N 
ATOM     14  H   UNL     1       1.470   7.245  22.329  0.00  0.00    +0.149 HD
BRANCH  13  15
ATOM     15  C   UNL     1       1.174   9.273  21.819  0.00  0.00    +0.052 C 
ATOM     16  H   UNL     1       1.784   9.498  22.701  0.00  0.00    +0.050 HD
ATOM     17  H   UNL     1       1.611   9.845  20.992  0.00  0.00    +0.050 HD
BRANCH  15  18
ATOM     18  C   UNL     1      -0.287   9.717  22.028  0.00  0.00    +0.149 C 
ATOM     19  C   UNL     1      -0.430  11.145  22.553  0.00  0.00    +0.128 C 
ATOM     20  O   UNL     1       0.104  12.101  21.631  0.00  0.00    -0.485 OA
ATOM     21  C   UNL     1      -0.367  11.870  20.365  0.00  0.00    +0.162 A 
ATOM     22  C   UNL     1      -0.256  12.917  19.452  0.00  0.00    -0.016 A 
ATOM     23  C   UNL     1      -0.726  12.754  18.148  0.00  0.00    -0.058 A 
ATOM     24  C   UNL     1      -1.302  11.543  17.758  0.00  0.00    -0.058 A 
ATOM     25  C   UNL     1      -1.399  10.490  18.670  0.00  0.00    -0.016 A 
ATOM     26  C   UNL     1      -0.920  10.649  19.969  0.00  0.00    +0.163 A 
ATOM     27  O   UNL     1      -1.018   9.559  20.795  0.00  0.00    -0.480 OA
ATOM     28  H   UNL     1      -0.767   9.047  22.750  0.00  0.00    +0.078 HD
ATOM     29  H   UNL     1      -1.485  11.392  22.728  0.00  0.00    +0.073 HD
ATOM     30  H   UNL     1       0.094  11.270  23.505  0.00  0.00    +0.073 HD
ATOM     31  H   UNL     1       0.187  13.860  19.758  0.00  0.00    +0.066 HD
ATOM     32  H   UNL     1      -0.646  13.572  17.436  0.00  0.00    +0.062 HD
ATOM     33  H   UNL     1      -1.672  11.418  16.744  0.00  0.00    +0.062 HD
ATOM     34  H   UNL     1      -1.838   9.545  18.364  0.00  0.00    +0.066 HD
ENDBRANCH  15  18
ENDBRANCH  13  15
ENDBRANCH   1  12
BRANCH   5  35
ATOM     35  S   UNL     1       3.637   3.396  17.480  0.00  0.00    +0.061 S 
ATOM     36  O   UNL     1       2.628   3.444  16.444  0.00  0.00    -0.153 OA
ATOM     37  O   UNL     1       4.314   2.161  17.812  0.00  0.00    -0.153 OA
BRANCH  35  38
ATOM     38  N   UNL     1       4.833   4.556  17.111  0.00  0.00    -0.172 NA
ATOM     39  C   UNL     1       6.107   4.436  17.900  0.00  0.00    +0.044 C 
ATOM     40  C   UNL     1       7.248   5.172  17.189  0.00  0.00    +0.062 C 
ATOM     41  O   UNL     1       7.559   4.614  15.906  0.00  0.00    -0.377 OA
ATOM     42  C   UNL     1       6.423   4.028  15.252  0.00  0.00    +0.062 C 
ATOM     43  C   UNL     1       5.100   4.695  15.638  0.00  0.00    +0.044 C 
ATOM     44  H   UNL     1       5.952   4.881  18.888  0.00  0.00    +0.047 HD
ATOM     45  H   UNL     1       6.380   3.383  18.019  0.00  0.00    +0.047 HD
ATOM     46  H   UNL     1       6.999   6.230  17.047  0.00  0.00    +0.057 HD
ATOM     47  H   UNL     1       8.159   5.128  17.794  0.00  0.00    +0.057 HD
ATOM     48  H   UNL     1       6.588   4.114  14.174  0.00  0.00    +0.057 HD
ATOM     49  H   UNL     1       6.407   2.961  15.497  0.00  0.00    +0.057 HD
ATOM     50  H   UNL     1       4.284   4.276  15.042  0.00  0.00    +0.047 HD
ATOM     51  H   UNL     1       5.137   5.769  15.419  0.00  0.00    +0.047 HD
ENDBRANCH  35  38
ENDBRANCH   5  35
TORSDOF 5
ENDMDL
MODEL 29
REMARK VINA RESULT:    -7.730      2.237      3.286
REMARK INTER + INTRA:         -10.070
REMARK INTER:                  -9.460
REMARK INTRA:                  -0.609
REMARK UNBOUND:                -0.080
REMARK  Name = 
REMARK  5 active torsions:
REMARK  status: ('A' for Active; 'I' for Inactive)
REMARK    1  A    between atoms: C_2  and  C_15
REMARK    2  A    between atoms: N_3  and  C_4
REMARK    3  A    between atoms: C_4  and  C_5
REMARK    4  A    between atoms: C_19  and  S_20
REMARK    5  A    between atoms: S_20  and  N_23
REMARK                            x       y       z     vdW  Elec       q    Type
REMARK                         _______ _______ _______ _____ _____    ______ ____
ROOT
ATOM      1  C   UNL     1       0.708   9.005  20.981  0.00  0.00    +0.039 A 
ATOM      2  C   UNL     1       0.299   9.025  22.321  0.00  0.00    -0.050 A 
ATOM      3  C   UNL     1      -0.555  10.027  22.790  0.00  0.00    -0.059 A 
ATOM      4  C   UNL     1      -1.019  11.010  21.918  0.00  0.00    -0.035 A 
ATOM      5  C   UNL     1      -0.632  10.972  20.574  0.00  0.00    +0.106 A 
ATOM      6  C   UNL     1       0.232   9.979  20.097  0.00  0.00    -0.023 A 
ATOM      7  H   UNL     1       0.655   8.259  23.010  0.00  0.00    +0.063 HD
ATOM      8  H   UNL     1      -0.855  10.040  23.835  0.00  0.00    +0.062 HD
ATOM      9  H   UNL     1      -1.678  11.794  22.288  0.00  0.00    +0.064 HD
ATOM     10  H   UNL     1       0.499   9.966  19.044  0.00  0.00    +0.064 HD
ENDROOT
BRANCH   1  12
ATOM     11  O   UNL     1       1.965   7.044  21.321  0.00  0.00    -0.270 OA
ATOM     12  C   UNL     1       1.618   7.917  20.534  0.00  0.00    +0.244 C 
ATOM     13  N   UNL     1       2.041   7.968  19.222  0.00  0.00    -0.308 N 
ATOM     14  H   UNL     1       1.905   8.822  18.698  0.00  0.00    +0.149 HD
BRANCH  13  15
ATOM     15  C   UNL     1       3.036   7.040  18.709  0.00  0.00    +0.052 C 
ATOM     16  H   UNL     1       3.744   7.629  18.116  0.00  0.00    +0.050 HD
ATOM     17  H   UNL     1       3.606   6.647  19.560  0.00  0.00    +0.050 HD
BRANCH  15  18
ATOM     18  C   UNL     1       2.472   5.863  17.889  0.00  0.00    +0.149 C 
ATOM     19  C   UNL     1       3.525   4.838  17.473  0.00  0.00    +0.128 C 
ATOM     20  O   UNL     1       4.136   4.218  18.609  0.00  0.00    -0.485 OA
ATOM     21  C   UNL     1       3.184   3.784  19.495  0.00  0.00    +0.162 A 
ATOM     22  C   UNL     1       3.587   2.840  20.438  0.00  0.00    -0.016 A 
ATOM     23  C   UNL     1       2.666   2.347  21.363  0.00  0.00    -0.058 A 
ATOM     24  C   UNL     1       1.347   2.802  21.349  0.00  0.00    -0.058 A 
ATOM     25  C   UNL     1       0.949   3.760  20.414  0.00  0.00    -0.016 A 
ATOM     26  C   UNL     1       1.870   4.260  19.496  0.00  0.00    +0.163 A 
ATOM     27  O   UNL     1       1.414   5.224  18.634  0.00  0.00    -0.480 OA
ATOM     28  H   UNL     1       2.004   6.251  16.977  0.00  0.00    +0.078 HD
ATOM     29  H   UNL     1       3.077   4.049  16.853  0.00  0.00    +0.073 HD
ATOM     30  H   UNL     1       4.317   5.304  16.880  0.00  0.00    +0.073 HD
ATOM     31  H   UNL     1       4.612   2.482  20.444  0.00  0.00    +0.066 HD
ATOM     32  H   UNL     1       2.977   1.605  22.095  0.00  0.00    +0.062 HD
ATOM     33  H   UNL     1       0.629   2.415  22.067  0.00  0.00    +0.062 HD
ATOM     34  H   UNL     1      -0.075   4.122  20.408  0.00  0.00    +0.066 HD
ENDBRANCH  15  18
ENDBRANCH  13  15
ENDBRANCH   1  12
BRANCH   5  35
ATOM     35  S   UNL     1      -1.215  12.205  19.441  0.00  0.00    +0.061 S 
ATOM     36  O   UNL     1      -2.453  12.724  19.984  0.00  0.00    -0.153 OA
ATOM     37  O   UNL     1      -1.149  11.674  18.097  0.00  0.00    -0.153 OA
BRANCH  35  38
ATOM     38  N   UNL     1      -0.026  13.422  19.573  0.00  0.00    -0.172 NA
ATOM     39  C   UNL     1       0.684  13.483  20.895  0.00  0.00    +0.044 C 
ATOM     40  C   UNL     1       2.008  14.243  20.758  0.00  0.00    +0.062 C 
ATOM     41  O   UNL     1       2.934  13.598  19.874  0.00  0.00    -0.377 OA
ATOM     42  C   UNL     1       2.294  12.860  18.821  0.00  0.00    +0.062 C 
ATOM     43  C   UNL     1       0.938  13.447  18.419  0.00  0.00    +0.044 C 
ATOM     44  H   UNL     1       0.044  14.002  21.615  0.00  0.00    +0.047 HD
ATOM     45  H   UNL     1       0.889  12.472  21.261  0.00  0.00    +0.047 HD
ATOM     46  H   UNL     1       1.836  15.259  20.384  0.00  0.00    +0.057 HD
ATOM     47  H   UNL     1       2.494  14.332  21.734  0.00  0.00    +0.057 HD
ATOM     48  H   UNL     1       2.974  12.860  17.965  0.00  0.00    +0.057 HD
ATOM     49  H   UNL     1       2.185  11.822  19.155  0.00  0.00    +0.057 HD
ATOM     50  H   UNL     1       0.541  12.907  17.554  0.00  0.00    +0.047 HD
ATOM     51  H   UNL     1       1.051  14.496  18.118  0.00  0.00    +0.047 HD
ENDBRANCH  35  38
ENDBRANCH   5  35
TORSDOF 5
ENDMDL
MODEL 30
REMARK VINA RESULT:    -7.717      3.372      8.954
REMARK INTER + INTRA:         -10.053
REMARK INTER:                  -9.367
REMARK INTRA:                  -0.686
REMARK UNBOUND:                -0.080
REMARK  Name = 
REMARK  5 active torsions:
REMARK  status: ('A' for Active; 'I' for Inactive)
REMARK    1  A    between atoms: C_2  and  C_15
REMARK    2  A    between atoms: N_3  and  C_4
REMARK    3  A    between atoms: C_4  and  C_5
REMARK    4  A    between atoms: C_19  and  S_20
REMARK    5  A    between atoms: S_20  and  N_23
REMARK                            x       y       z     vdW  Elec       q    Type
REMARK                         _______ _______ _______ _____ _____    ______ ____
ROOT
ATOM      1  C   UNL     1       1.904   5.852  20.041  0.00  0.00    +0.039 A 
ATOM      2  C   UNL     1       0.935   5.100  20.719  0.00  0.00    -0.050 A 
ATOM      3  C   UNL     1       0.973   3.703  20.695  0.00  0.00    -0.059 A 
ATOM      4  C   UNL     1       1.990   3.046  20.004  0.00  0.00    -0.035 A 
ATOM      5  C   UNL     1       2.972   3.799  19.353  0.00  0.00    +0.106 A 
ATOM      6  C   UNL     1       2.937   5.198  19.361  0.00  0.00    -0.023 A 
ATOM      7  H   UNL     1       0.137   5.605  21.263  0.00  0.00    +0.063 HD
ATOM      8  H   UNL     1       0.208   3.130  21.213  0.00  0.00    +0.062 HD
ATOM      9  H   UNL     1       2.012   1.958  19.981  0.00  0.00    +0.064 HD
ATOM     10  H   UNL     1       3.725   5.754  18.861  0.00  0.00    +0.064 HD
ENDROOT
BRANCH   1  12
ATOM     11  O   UNL     1       2.408   8.018  19.270  0.00  0.00    -0.270 OA
ATOM     12  C   UNL     1       1.817   7.336  20.098  0.00  0.00    +0.244 C 
ATOM     13  N   UNL     1       1.065   7.869  21.124  0.00  0.00    -0.308 N 
ATOM     14  H   UNL     1       0.796   7.271  21.894  0.00  0.00    +0.149 HD
BRANCH  13  15
ATOM     15  C   UNL     1       1.017   9.302  21.364  0.00  0.00    +0.052 C 
ATOM     16  H   UNL     1       0.841   9.439  22.437  0.00  0.00    +0.050 HD
ATOM     17  H   UNL     1       2.013   9.714  21.164  0.00  0.00    +0.050 HD
BRANCH  15  18
ATOM     18  C   UNL     1      -0.027  10.070  20.530  0.00  0.00    +0.149 C 
ATOM     19  C   UNL     1      -0.662  11.248  21.266  0.00  0.00    +0.128 C 
ATOM     20  O   UNL     1       0.311  12.238  21.616  0.00  0.00    -0.485 OA
ATOM     21  C   UNL     1       1.096  12.550  20.536  0.00  0.00    +0.162 A 
ATOM     22  C   UNL     1       1.813  13.742  20.603  0.00  0.00    -0.016 A 
ATOM     23  C   UNL     1       2.624  14.127  19.534  0.00  0.00    -0.058 A 
ATOM     24  C   UNL     1       2.720  13.315  18.402  0.00  0.00    -0.058 A 
ATOM     25  C   UNL     1       2.012  12.113  18.343  0.00  0.00    -0.016 A 
ATOM     26  C   UNL     1       1.211  11.724  19.414  0.00  0.00    +0.163 A 
ATOM     27  O   UNL     1       0.577  10.514  19.297  0.00  0.00    -0.480 OA
ATOM     28  H   UNL     1      -0.831   9.385  20.240  0.00  0.00    +0.078 HD
ATOM     29  H   UNL     1      -1.429  11.729  20.644  0.00  0.00    +0.073 HD
ATOM     30  H   UNL     1      -1.151  10.920  22.188  0.00  0.00    +0.073 HD
ATOM     31  H   UNL     1       1.733  14.376  21.482  0.00  0.00    +0.066 HD
ATOM     32  H   UNL     1       3.179  15.060  19.582  0.00  0.00    +0.062 HD
ATOM     33  H   UNL     1       3.348  13.617  17.568  0.00  0.00    +0.062 HD
ATOM     34  H   UNL     1       2.094  11.476  17.466  0.00  0.00    +0.066 HD
ENDBRANCH  15  18
ENDBRANCH  13  15
ENDBRANCH   1  12
BRANCH   5  35
ATOM     35  S   UNL     1       4.283   2.988  18.474  0.00  0.00    +0.061 S 
ATOM     36  O   UNL     1       3.661   2.116  17.501  0.00  0.00    -0.153 OA
ATOM     37  O   UNL     1       5.243   2.482  19.431  0.00  0.00    -0.153 OA
BRANCH  35  38
ATOM     38  N   UNL     1       5.021   4.278  17.636  0.00  0.00    -0.172 NA
ATOM     39  C   UNL     1       6.445   4.561  18.021  0.00  0.00    +0.044 C 
ATOM     40  C   UNL     1       7.147   5.370  16.925  0.00  0.00    +0.062 C 
ATOM     41  O   UNL     1       7.237   4.664  15.681  0.00  0.00    -0.377 OA
ATOM     42  C   UNL     1       6.148   3.753  15.464  0.00  0.00    +0.062 C 
ATOM     43  C   UNL     1       4.850   4.200  16.144  0.00  0.00    +0.044 C 
ATOM     44  H   UNL     1       6.450   5.137  18.952  0.00  0.00    +0.047 HD
ATOM     45  H   UNL     1       6.988   3.623  18.176  0.00  0.00    +0.047 HD
ATOM     46  H   UNL     1       6.619   6.313  16.740  0.00  0.00    +0.057 HD
ATOM     47  H   UNL     1       8.165   5.620  17.234  0.00  0.00    +0.057 HD
ATOM     48  H   UNL     1       6.000   3.674  14.384  0.00  0.00    +0.057 HD
ATOM     49  H   UNL     1       6.457   2.766  15.827  0.00  0.00    +0.057 HD
ATOM     50  H   UNL     1       4.035   3.525  15.869  0.00  0.00    +0.047 HD
ATOM     51  H   UNL     1       4.566   5.202  15.801  0.00  0.00    +0.047 HD
ENDBRANCH  35  38
ENDBRANCH   5  35
TORSDOF 5
ENDMDL
MODEL 31
REMARK VINA RESULT:    -7.683      2.478      4.297
REMARK INTER + INTRA:         -10.009
REMARK INTER:                  -9.513
REMARK INTRA:                  -0.496
REMARK UNBOUND:                -0.080
REMARK  Name = 
REMARK  5 active torsions:
REMARK  status: ('A' for Active; 'I' for Inactive)
REMARK    1  A    between atoms: C_2  and  C_15
REMARK    2  A    between atoms: N_3  and  C_4
REMARK    3  A    between atoms: C_4  and  C_5
REMARK    4  A    between atoms: C_19  and  S_20
REMARK    5  A    between atoms: S_20  and  N_23
REMARK                            x       y       z     vdW  Elec       q    Type
REMARK                         _______ _______ _______ _____ _____    ______ ____
ROOT
ATOM      1  C   UNL     1       2.059   7.063  19.340  0.00  0.00    +0.039 A 
ATOM      2  C   UNL     1       2.816   7.070  18.161  0.00  0.00    -0.050 A 
ATOM      3  C   UNL     1       2.929   8.234  17.395  0.00  0.00    -0.059 A 
ATOM      4  C   UNL     1       2.296   9.404  17.810  0.00  0.00    -0.035 A 
ATOM      5  C   UNL     1       1.565   9.402  19.002  0.00  0.00    +0.106 A 
ATOM      6  C   UNL     1       1.436   8.240  19.771  0.00  0.00    -0.023 A 
ATOM      7  H   UNL     1       3.315   6.160  17.830  0.00  0.00    +0.063 HD
ATOM      8  H   UNL     1       3.508   8.223  16.474  0.00  0.00    +0.062 HD
ATOM      9  H   UNL     1       2.380  10.306  17.206  0.00  0.00    +0.064 HD
ATOM     10  H   UNL     1       0.877   8.275  20.701  0.00  0.00    +0.064 HD
ENDROOT
BRANCH   1  12
ATOM     11  O   UNL     1       1.736   5.831  21.320  0.00  0.00    -0.270 OA
ATOM     12  C   UNL     1       1.971   5.798  20.118  0.00  0.00    +0.244 C 
ATOM     13  N   UNL     1       2.182   4.629  19.418  0.00  0.00    -0.308 N 
ATOM     14  H   UNL     1       2.589   4.680  18.492  0.00  0.00    +0.149 HD
BRANCH  13  15
ATOM     15  C   UNL     1       2.256   3.343  20.092  0.00  0.00    +0.052 C 
ATOM     16  H   UNL     1       2.141   3.538  21.164  0.00  0.00    +0.050 HD
ATOM     17  H   UNL     1       1.381   2.752  19.795  0.00  0.00    +0.050 HD
BRANCH  15  18
ATOM     18  C   UNL     1       3.536   2.530  19.811  0.00  0.00    +0.149 C 
ATOM     19  C   UNL     1       3.517   1.787  18.477  0.00  0.00    +0.128 C 
ATOM     20  O   UNL     1       3.419   2.690  17.371  0.00  0.00    -0.485 OA
ATOM     21  C   UNL     1       4.337   3.701  17.488  0.00  0.00    +0.162 A 
ATOM     22  C   UNL     1       4.628   4.423  16.333  0.00  0.00    -0.016 A 
ATOM     23  C   UNL     1       5.563   5.459  16.378  0.00  0.00    -0.058 A 
ATOM     24  C   UNL     1       6.199   5.775  17.579  0.00  0.00    -0.058 A 
ATOM     25  C   UNL     1       5.895   5.061  18.740  0.00  0.00    -0.016 A 
ATOM     26  C   UNL     1       4.955   4.033  18.697  0.00  0.00    +0.163 A 
ATOM     27  O   UNL     1       4.683   3.403  19.884  0.00  0.00    -0.480 OA
ATOM     28  H   UNL     1       3.673   1.789  20.606  0.00  0.00    +0.078 HD
ATOM     29  H   UNL     1       4.429   1.189  18.351  0.00  0.00    +0.073 HD
ATOM     30  H   UNL     1       2.668   1.098  18.422  0.00  0.00    +0.073 HD
ATOM     31  H   UNL     1       4.137   4.172  15.397  0.00  0.00    +0.066 HD
ATOM     32  H   UNL     1       5.796   6.018  15.475  0.00  0.00    +0.062 HD
ATOM     33  H   UNL     1       6.929   6.579  17.613  0.00  0.00    +0.062 HD
ATOM     34  H   UNL     1       6.383   5.313  19.677  0.00  0.00    +0.066 HD
ENDBRANCH  15  18
ENDBRANCH  13  15
ENDBRANCH   1  12
BRANCH   5  35
ATOM     35  S   UNL     1       0.759  10.880  19.558  0.00  0.00    +0.061 S 
ATOM     36  O   UNL     1      -0.049  11.359  18.456  0.00  0.00    -0.153 OA
ATOM     37  O   UNL     1       1.736  11.733  20.199  0.00  0.00    -0.153 OA
BRANCH  35  38
ATOM     38  N   UNL     1      -0.290  10.297  20.771  0.00  0.00    -0.172 NA
ATOM     39  C   UNL     1       0.356  10.021  22.099  0.00  0.00    +0.044 C 
ATOM     40  C   UNL     1      -0.698   9.976  23.210  0.00  0.00    +0.062 C 
ATOM     41  O   UNL     1      -1.379  11.225  23.386  0.00  0.00    -0.377 OA
ATOM     42  C   UNL     1      -1.491  11.986  22.174  0.00  0.00    +0.062 C 
ATOM     43  C   UNL     1      -1.547  11.110  20.919  0.00  0.00    +0.044 C 
ATOM     44  H   UNL     1       0.868   9.055  22.047  0.00  0.00    +0.047 HD
ATOM     45  H   UNL     1       1.088  10.802  22.332  0.00  0.00    +0.047 HD
ATOM     46  H   UNL     1      -1.451   9.207  22.999  0.00  0.00    +0.057 HD
ATOM     47  H   UNL     1      -0.230   9.721  24.164  0.00  0.00    +0.057 HD
ATOM     48  H   UNL     1      -2.399  12.591  22.252  0.00  0.00    +0.057 HD
ATOM     49  H   UNL     1      -0.640  12.675  22.129  0.00  0.00    +0.057 HD
ATOM     50  H   UNL     1      -1.728  11.732  20.038  0.00  0.00    +0.047 HD
ATOM     51  H   UNL     1      -2.381  10.400  20.987  0.00  0.00    +0.047 HD
ENDBRANCH  35  38
ENDBRANCH   5  35
TORSDOF 5
ENDMDL
MODEL 32
REMARK VINA RESULT:    -7.676      2.521      4.266
REMARK INTER + INTRA:         -10.000
REMARK INTER:                  -9.206
REMARK INTRA:                  -0.793
REMARK UNBOUND:                -0.080
REMARK  Name = 
REMARK  5 active torsions:
REMARK  status: ('A' for Active; 'I' for Inactive)
REMARK    1  A    between atoms: C_2  and  C_15
REMARK    2  A    between atoms: N_3  and  C_4
REMARK    3  A    between atoms: C_4  and  C_5
REMARK    4  A    between atoms: C_19  and  S_20
REMARK    5  A    between atoms: S_20  and  N_23
REMARK                            x       y       z     vdW  Elec       q    Type
REMARK                         _______ _______ _______ _____ _____    ______ ____
ROOT
ATOM      1  C   UNL     1       1.450   9.123  19.685  0.00  0.00    +0.039 A 
ATOM      2  C   UNL     1       1.959   9.297  18.391  0.00  0.00    -0.050 A 
ATOM      3  C   UNL     1       1.846  10.531  17.743  0.00  0.00    -0.059 A 
ATOM      4  C   UNL     1       1.235  11.603  18.390  0.00  0.00    -0.035 A 
ATOM      5  C   UNL     1       0.754  11.434  19.692  0.00  0.00    +0.106 A 
ATOM      6  C   UNL     1       0.852  10.201  20.346  0.00  0.00    -0.023 A 
ATOM      7  H   UNL     1       2.439   8.465  17.878  0.00  0.00    +0.063 HD
ATOM      8  H   UNL     1       2.232  10.651  16.733  0.00  0.00    +0.062 HD
ATOM      9  H   UNL     1       1.142  12.560  17.879  0.00  0.00    +0.064 HD
ATOM     10  H   UNL     1       0.486  10.106  21.364  0.00  0.00    +0.064 HD
ENDROOT
BRANCH   1  12
ATOM     11  O   UNL     1       1.065   7.569  21.411  0.00  0.00    -0.270 OA
ATOM     12  C   UNL     1       1.597   7.790  20.329  0.00  0.00    +0.244 C 
ATOM     13  N   UNL     1       2.360   6.860  19.654  0.00  0.00    -0.308 N 
ATOM     14  H   UNL     1       2.948   7.172  18.892  0.00  0.00    +0.149 HD
BRANCH  13  15
ATOM     15  C   UNL     1       2.687   5.573  20.245  0.00  0.00    +0.052 C 
ATOM     16  H   UNL     1       3.409   5.765  21.047  0.00  0.00    +0.050 HD
ATOM     17  H   UNL     1       1.786   5.184  20.734  0.00  0.00    +0.050 HD
BRANCH  15  18
ATOM     18  C   UNL     1       3.224   4.517  19.258  0.00  0.00    +0.149 C 
ATOM     19  C   UNL     1       2.985   4.866  17.790  0.00  0.00    +0.128 C 
ATOM     20  O   UNL     1       3.656   6.074  17.419  0.00  0.00    -0.485 OA
ATOM     21  C   UNL     1       4.964   6.050  17.832  0.00  0.00    +0.162 A 
ATOM     22  C   UNL     1       5.832   6.955  17.224  0.00  0.00    -0.016 A 
ATOM     23  C   UNL     1       7.179   6.976  17.588  0.00  0.00    -0.058 A 
ATOM     24  C   UNL     1       7.654   6.096  18.563  0.00  0.00    -0.058 A 
ATOM     25  C   UNL     1       6.780   5.201  19.181  0.00  0.00    -0.016 A 
ATOM     26  C   UNL     1       5.433   5.186  18.825  0.00  0.00    +0.163 A 
ATOM     27  O   UNL     1       4.630   4.305  19.502  0.00  0.00    -0.480 OA
ATOM     28  H   UNL     1       2.736   3.557  19.457  0.00  0.00    +0.078 HD
ATOM     29  H   UNL     1       3.344   4.061  17.135  0.00  0.00    +0.073 HD
ATOM     30  H   UNL     1       1.919   4.999  17.585  0.00  0.00    +0.073 HD
ATOM     31  H   UNL     1       5.462   7.634  16.462  0.00  0.00    +0.066 HD
ATOM     32  H   UNL     1       7.859   7.677  17.110  0.00  0.00    +0.062 HD
ATOM     33  H   UNL     1       8.704   6.110  18.844  0.00  0.00    +0.062 HD
ATOM     34  H   UNL     1       7.147   4.523  19.947  0.00  0.00    +0.066 HD
ENDBRANCH  15  18
ENDBRANCH  13  15
ENDBRANCH   1  12
BRANCH   5  35
ATOM     35  S   UNL     1      -0.019  12.786  20.542  0.00  0.00    +0.061 S 
ATOM     36  O   UNL     1      -0.570  13.660  19.529  0.00  0.00    -0.153 OA
ATOM     37  O   UNL     1       0.891  13.284  21.551  0.00  0.00    -0.153 OA
BRANCH  35  38
ATOM     38  N   UNL     1      -1.315  12.024  21.348  0.00  0.00    -0.172 NA
ATOM     39  C   UNL     1      -1.295  12.139  22.846  0.00  0.00    +0.044 C 
ATOM     40  C   UNL     1      -2.688  11.866  23.424  0.00  0.00    +0.062 C 
ATOM     41  O   UNL     1      -3.667  12.821  22.996  0.00  0.00    -0.377 OA
ATOM     42  C   UNL     1      -3.408  13.354  21.689  0.00  0.00    +0.062 C 
ATOM     43  C   UNL     1      -2.663  12.372  20.779  0.00  0.00    +0.044 C 
ATOM     44  H   UNL     1      -0.589  11.405  23.246  0.00  0.00    +0.047 HD
ATOM     45  H   UNL     1      -0.975  13.143  23.143  0.00  0.00    +0.047 HD
ATOM     46  H   UNL     1      -3.039  10.868  23.134  0.00  0.00    +0.057 HD
ATOM     47  H   UNL     1      -2.655  11.897  24.517  0.00  0.00    +0.057 HD
ATOM     48  H   UNL     1      -4.373  13.618  21.248  0.00  0.00    +0.057 HD
ATOM     49  H   UNL     1      -2.837  14.281  21.810  0.00  0.00    +0.057 HD
ATOM     50  H   UNL     1      -2.577  12.791  19.772  0.00  0.00    +0.047 HD
ATOM     51  H   UNL     1      -3.225  11.435  20.690  0.00  0.00    +0.047 HD
ENDBRANCH  35  38
ENDBRANCH   5  35
TORSDOF 5
ENDMDL
MODEL 33
REMARK VINA RESULT:    -7.592      3.027      8.639
REMARK INTER + INTRA:          -9.892
REMARK INTER:                  -9.811
REMARK INTRA:                  -0.080
REMARK UNBOUND:                -0.080
REMARK  Name = 
REMARK  5 active torsions:
REMARK  status: ('A' for Active; 'I' for Inactive)
REMARK    1  A    between atoms: C_2  and  C_15
REMARK    2  A    between atoms: N_3  and  C_4
REMARK    3  A    between atoms: C_4  and  C_5
REMARK    4  A    between atoms: C_19  and  S_20
REMARK    5  A    between atoms: S_20  and  N_23
REMARK                            x       y       z     vdW  Elec       q    Type
REMARK                         _______ _______ _______ _____ _____    ______ ____
ROOT
ATOM      1  C   UNL     1       2.124   7.807  19.027  0.00  0.00    +0.039 A 
ATOM      2  C   UNL     1       1.640   7.334  20.255  0.00  0.00    -0.050 A 
ATOM      3  C   UNL     1       2.109   6.130  20.788  0.00  0.00    -0.059 A 
ATOM      4  C   UNL     1       3.077   5.396  20.104  0.00  0.00    -0.035 A 
ATOM      5  C   UNL     1       3.579   5.885  18.895  0.00  0.00    +0.106 A 
ATOM      6  C   UNL     1       3.109   7.084  18.346  0.00  0.00    -0.023 A 
ATOM      7  H   UNL     1       0.884   7.902  20.797  0.00  0.00    +0.063 HD
ATOM      8  H   UNL     1       1.716   5.766  21.734  0.00  0.00    +0.062 HD
ATOM      9  H   UNL     1       3.434   4.455  20.520  0.00  0.00    +0.064 HD
ATOM     10  H   UNL     1       3.532   7.446  17.414  0.00  0.00    +0.064 HD
ENDROOT
BRANCH   1  12
ATOM     11  O   UNL     1       2.076   9.595  17.497  0.00  0.00    -0.270 OA
ATOM     12  C   UNL     1       1.592   9.094  18.504  0.00  0.00    +0.244 C 
ATOM     13  N   UNL     1       0.562   9.669  19.219  0.00  0.00    -0.308 N 
ATOM     14  H   UNL     1       0.363   9.328  20.151  0.00  0.00    +0.149 HD
BRANCH  13  15
ATOM     15  C   UNL     1       0.051  10.989  18.885  0.00  0.00    +0.052 C 
ATOM     16  H   UNL     1       0.310  11.175  17.837  0.00  0.00    +0.050 HD
ATOM     17  H   UNL     1      -1.044  10.950  18.926  0.00  0.00    +0.050 HD
BRANCH  15  18
ATOM     18  C   UNL     1       0.552  12.132  19.790  0.00  0.00    +0.149 C 
ATOM     19  C   UNL     1      -0.086  13.486  19.487  0.00  0.00    +0.128 C 
ATOM     20  O   UNL     1      -1.502  13.461  19.697  0.00  0.00    -0.485 OA
ATOM     21  C   UNL     1      -1.801  12.908  20.916  0.00  0.00    +0.162 A 
ATOM     22  C   UNL     1      -3.073  13.161  21.425  0.00  0.00    -0.016 A 
ATOM     23  C   UNL     1      -3.441  12.638  22.666  0.00  0.00    -0.058 A 
ATOM     24  C   UNL     1      -2.538  11.861  23.393  0.00  0.00    -0.058 A 
ATOM     25  C   UNL     1      -1.269  11.596  22.874  0.00  0.00    -0.016 A 
ATOM     26  C   UNL     1      -0.905  12.109  21.631  0.00  0.00    +0.163 A 
ATOM     27  O   UNL     1       0.343  11.776  21.172  0.00  0.00    -0.480 OA
ATOM     28  H   UNL     1       1.636  12.238  19.668  0.00  0.00    +0.078 HD
ATOM     29  H   UNL     1       0.341  14.270  20.126  0.00  0.00    +0.073 HD
ATOM     30  H   UNL     1       0.092  13.783  18.449  0.00  0.00    +0.073 HD
ATOM     31  H   UNL     1      -3.773  13.771  20.861  0.00  0.00    +0.066 HD
ATOM     32  H   UNL     1      -4.431  12.840  23.068  0.00  0.00    +0.062 HD
ATOM     33  H   UNL     1      -2.823  11.457  24.361  0.00  0.00    +0.062 HD
ATOM     34  H   UNL     1      -0.569  10.982  23.434  0.00  0.00    +0.066 HD
ENDBRANCH  15  18
ENDBRANCH  13  15
ENDBRANCH   1  12
BRANCH   5  35
ATOM     35  S   UNL     1       4.819   4.976  18.010  0.00  0.00    +0.061 S 
ATOM     36  O   UNL     1       5.931   4.788  18.917  0.00  0.00    -0.153 OA
ATOM     37  O   UNL     1       5.005   5.584  16.709  0.00  0.00    -0.153 OA
BRANCH  35  38
ATOM     38  N   UNL     1       4.068   3.463  17.769  0.00  0.00    -0.172 NA
ATOM     39  C   UNL     1       3.979   2.590  18.988  0.00  0.00    +0.044 C 
ATOM     40  C   UNL     1       2.904   1.515  18.801  0.00  0.00    +0.062 C 
ATOM     41  O   UNL     1       1.588   2.061  18.645  0.00  0.00    -0.377 OA
ATOM     42  C   UNL     1       1.580   3.353  18.017  0.00  0.00    +0.062 C 
ATOM     43  C   UNL     1       2.750   3.555  17.050  0.00  0.00    +0.044 C 
ATOM     44  H   UNL     1       4.948   2.107  19.147  0.00  0.00    +0.047 HD
ATOM     45  H   UNL     1       3.731   3.194  19.868  0.00  0.00    +0.047 HD
ATOM     46  H   UNL     1       3.120   0.898  17.921  0.00  0.00    +0.057 HD
ATOM     47  H   UNL     1       2.881   0.849  19.668  0.00  0.00    +0.057 HD
ATOM     48  H   UNL     1       0.630   3.450  17.485  0.00  0.00    +0.057 HD
ATOM     49  H   UNL     1       1.593   4.112  18.807  0.00  0.00    +0.057 HD
ATOM     50  H   UNL     1       2.643   4.511  16.531  0.00  0.00    +0.047 HD
ATOM     51  H   UNL     1       2.749   2.772  16.282  0.00  0.00    +0.047 HD
ENDBRANCH  35  38
ENDBRANCH   5  35
TORSDOF 5
ENDMDL
