MODEL 1
REMARK VINA RESULT:    -9.627      0.000      0.000
REMARK INTER + INTRA:         -12.870
REMARK INTER:                 -12.021
REMARK INTRA:                  -0.848
REMARK UNBOUND:                -0.429
REMARK  Name = 
REMARK  5 active torsions:
REMARK  status: ('A' for Active; 'I' for Inactive)
REMARK    1  A    between atoms: C_2  and  C_20
REMARK    2  A    between atoms: N_3  and  C_4
REMARK    3  A    between atoms: C_8  and  C_9
REMARK    4  A    between atoms: C_24  and  C_25
REMARK    5  A    between atoms: C_25  and  N_26
REMARK                            x       y       z     vdW  Elec       q    Type
REMARK                         _______ _______ _______ _____ _____    ______ ____
ROOT
ATOM      1  O   UNL     1       2.248   8.278  17.723  0.00  0.00    -0.270 OA
ATOM      2  C   UNL     1       2.010   8.062  18.906  0.00  0.00    +0.248 C 
ATOM      3  N   UNL     1       1.364   8.913  19.783  0.00  0.00    -0.281 N 
ATOM      4  H   UNL     1       1.100   8.531  20.684  0.00  0.00    +0.155 HD
ENDROOT
BRANCH   3   5
ATOM      5  C   UNL     1       0.917  10.226  19.532  0.00  0.00    +0.034 A 
ATOM      6  C   UNL     1       1.643  11.178  18.814  0.00  0.00    -0.040 A 
ATOM      7  C   UNL     1       1.129  12.463  18.618  0.00  0.00    -0.059 A 
ATOM      8  C   UNL     1      -0.126  12.802  19.126  0.00  0.00    -0.051 A 
ATOM      9  C   UNL     1      -0.872  11.856  19.832  0.00  0.00    +0.021 A 
ATOM     10  C   UNL     1      -0.335  10.581  20.052  0.00  0.00    -0.030 A 
ATOM     11  H   UNL     1       2.630  10.957  18.410  0.00  0.00    +0.064 HD
ATOM     12  H   UNL     1       1.715  13.201  18.077  0.00  0.00    +0.062 HD
ATOM     13  H   UNL     1      -0.509  13.807  18.975  0.00  0.00    +0.062 HD
ATOM     14  H   UNL     1      -0.915   9.864  20.629  0.00  0.00    +0.064 HD
BRANCH   9  15
ATOM     15  C   UNL     1      -2.196  12.168  20.354  0.00  0.00    +0.164 A 
ATOM     16  N   UNL     1      -3.281  12.349  19.628  0.00  0.00    -0.129 NA
ATOM     17  N   UNL     1      -4.312  12.694  20.464  0.00  0.00    -0.134 NA
ATOM     18  C   UNL     1      -3.844  12.740  21.688  0.00  0.00    +0.134 A 
ATOM     19  N   UNL     1      -2.512  12.417  21.669  0.00  0.00    -0.311 N 
ATOM     20  C   UNL     1      -1.629  12.452  22.809  0.00  0.00    +0.026 C 
ATOM     21  C   UNL     1      -1.524  13.838  23.452  0.00  0.00    -0.035 C 
ATOM     22  C   UNL     1      -2.736  14.224  24.301  0.00  0.00    -0.051 C 
ATOM     23  C   UNL     1      -4.040  14.420  23.525  0.00  0.00    -0.046 C 
ATOM     24  C   UNL     1      -4.593  13.136  22.908  0.00  0.00    +0.007 C 
ATOM     25  H   UNL     1      -1.989  11.705  23.529  0.00  0.00    +0.049 HD
ATOM     26  H   UNL     1      -0.628  12.139  22.489  0.00  0.00    +0.049 HD
ATOM     27  H   UNL     1      -0.644  13.844  24.113  0.00  0.00    +0.028 HD
ATOM     28  H   UNL     1      -1.349  14.607  22.684  0.00  0.00    +0.028 HD
ATOM     29  H   UNL     1      -2.884  13.487  25.100  0.00  0.00    +0.027 HD
ATOM     30  H   UNL     1      -2.505  15.170  24.806  0.00  0.00    +0.027 HD
ATOM     31  H   UNL     1      -3.902  15.190  22.756  0.00  0.00    +0.027 HD
ATOM     32  H   UNL     1      -4.787  14.807  24.230  0.00  0.00    +0.027 HD
ATOM     33  H   UNL     1      -5.640  13.311  22.623  0.00  0.00    +0.034 HD
ATOM     34  H   UNL     1      -4.595  12.314  23.637  0.00  0.00    +0.034 HD
ENDBRANCH   9  15
ENDBRANCH   3   5
BRANCH   2  35
ATOM     35  C   UNL     1       2.356   6.724  19.477  0.00  0.00    +0.037 A 
ATOM     36  C   UNL     1       1.439   5.979  20.230  0.00  0.00    -0.050 A 
ATOM     37  C   UNL     1       1.780   4.697  20.671  0.00  0.00    -0.061 A 
ATOM     38  C   UNL     1       3.037   4.165  20.382  0.00  0.00    -0.057 A 
ATOM     39  C   UNL     1       3.988   4.918  19.675  0.00  0.00    -0.029 A 
ATOM     40  C   UNL     1       3.633   6.202  19.225  0.00  0.00    -0.045 A 
ATOM     41  H   UNL     1       0.463   6.381  20.488  0.00  0.00    +0.063 HD
ATOM     42  H   UNL     1       1.063   4.106  21.239  0.00  0.00    +0.062 HD
ATOM     43  H   UNL     1       3.262   3.153  20.710  0.00  0.00    +0.062 HD
ATOM     44  H   UNL     1       4.348   6.799  18.658  0.00  0.00    +0.063 HD
BRANCH  39  45
ATOM     45  C   UNL     1       5.350   4.352  19.338  0.00  0.00    +0.048 C 
ATOM     46  H   UNL     1       6.110   4.928  19.877  0.00  0.00    +0.052 HD
ATOM     47  H   UNL     1       5.418   3.310  19.676  0.00  0.00    +0.052 HD
BRANCH  45  48
ATOM     48  N   UNL     1       5.644   4.377  17.920  0.00  0.00    -0.230 N 
ATOM     49  C   UNL     1       6.744   4.978  17.375  0.00  0.00    +0.254 C 
ATOM     50  O   UNL     1       7.636   5.590  17.925  0.00  0.00    -0.270 OA
ATOM     51  C   UNL     1       6.666   4.764  15.930  0.00  0.00    +0.049 A 
ATOM     52  C   UNL     1       7.518   5.167  14.919  0.00  0.00    -0.049 A 
ATOM     53  C   UNL     1       7.175   4.803  13.614  0.00  0.00    -0.061 A 
ATOM     54  C   UNL     1       6.003   4.063  13.353  0.00  0.00    -0.061 A 
ATOM     55  C   UNL     1       5.155   3.670  14.397  0.00  0.00    -0.049 A 
ATOM     56  C   UNL     1       5.518   4.037  15.678  0.00  0.00    +0.049 A 
ATOM     57  C   UNL     1       4.867   3.780  16.963  0.00  0.00    +0.254 C 
ATOM     58  O   UNL     1       3.845   3.135  17.089  0.00  0.00    -0.270 OA
ATOM     59  H   UNL     1       8.416   5.737  15.138  0.00  0.00    +0.063 HD
ATOM     60  H   UNL     1       7.820   5.096  12.786  0.00  0.00    +0.062 HD
ATOM     61  H   UNL     1       5.755   3.795  12.330  0.00  0.00    +0.062 HD
ATOM     62  H   UNL     1       4.249   3.103  14.213  0.00  0.00    +0.063 HD
ENDBRANCH  45  48
ENDBRANCH  39  45
ENDBRANCH   2  35
TORSDOF 5
ENDMDL
MODEL 2
REMARK VINA RESULT:    -9.607      2.583     10.747
REMARK INTER + INTRA:         -12.844
REMARK INTER:                 -12.537
REMARK INTRA:                  -0.307
REMARK UNBOUND:                -0.429
REMARK  Name = 
REMARK  5 active torsions:
REMARK  status: ('A' for Active; 'I' for Inactive)
REMARK    1  A    between atoms: C_2  and  C_20
REMARK    2  A    between atoms: N_3  and  C_4
REMARK    3  A    between atoms: C_8  and  C_9
REMARK    4  A    between atoms: C_24  and  C_25
REMARK    5  A    between atoms: C_25  and  N_26
REMARK                            x       y       z     vdW  Elec       q    Type
REMARK                         _______ _______ _______ _____ _____    ______ ____
ROOT
ATOM      1  O   UNL     1       1.980   8.133  19.570  0.00  0.00    -0.270 OA
ATOM      2  C   UNL     1       1.377   7.795  20.582  0.00  0.00    +0.248 C 
ATOM      3  N   UNL     1       1.372   6.535  21.153  0.00  0.00    -0.281 N 
ATOM      4  H   UNL     1       0.956   6.449  22.073  0.00  0.00    +0.155 HD
ENDROOT
BRANCH   3   5
ATOM      5  C   UNL     1       1.987   5.367  20.659  0.00  0.00    +0.034 A 
ATOM      6  C   UNL     1       1.418   4.093  20.724  0.00  0.00    -0.040 A 
ATOM      7  C   UNL     1       2.103   2.985  20.218  0.00  0.00    -0.059 A 
ATOM      8  C   UNL     1       3.357   3.144  19.626  0.00  0.00    -0.051 A 
ATOM      9  C   UNL     1       3.931   4.413  19.539  0.00  0.00    +0.021 A 
ATOM     10  C   UNL     1       3.254   5.514  20.079  0.00  0.00    -0.030 A 
ATOM     11  H   UNL     1       0.447   3.925  21.187  0.00  0.00    +0.064 HD
ATOM     12  H   UNL     1       1.658   1.996  20.295  0.00  0.00    +0.062 HD
ATOM     13  H   UNL     1       3.881   2.272  19.246  0.00  0.00    +0.062 HD
ATOM     14  H   UNL     1       3.727   6.492  20.030  0.00  0.00    +0.064 HD
BRANCH   9  15
ATOM     15  C   UNL     1       5.227   4.618  18.905  0.00  0.00    +0.164 A 
ATOM     16  N   UNL     1       6.225   5.314  19.413  0.00  0.00    -0.129 NA
ATOM     17  N   UNL     1       7.248   5.340  18.499  0.00  0.00    -0.134 NA
ATOM     18  C   UNL     1       6.859   4.678  17.436  0.00  0.00    +0.134 A 
ATOM     19  N   UNL     1       5.590   4.205  17.645  0.00  0.00    -0.311 N 
ATOM     20  C   UNL     1       4.786   3.512  16.666  0.00  0.00    +0.026 C 
ATOM     21  C   UNL     1       4.524   4.337  15.403  0.00  0.00    -0.035 C 
ATOM     22  C   UNL     1       5.720   4.419  14.454  0.00  0.00    -0.051 C 
ATOM     23  C   UNL     1       6.928   5.187  14.993  0.00  0.00    -0.046 C 
ATOM     24  C   UNL     1       7.620   4.506  16.173  0.00  0.00    +0.007 C 
ATOM     25  H   UNL     1       5.297   2.569  16.428  0.00  0.00    +0.049 HD
ATOM     26  H   UNL     1       3.823   3.253  17.121  0.00  0.00    +0.049 HD
ATOM     27  H   UNL     1       3.698   3.864  14.851  0.00  0.00    +0.028 HD
ATOM     28  H   UNL     1       4.190   5.351  15.668  0.00  0.00    +0.028 HD
ATOM     29  H   UNL     1       6.025   3.411  14.147  0.00  0.00    +0.027 HD
ATOM     30  H   UNL     1       5.388   4.923  13.538  0.00  0.00    +0.027 HD
ATOM     31  H   UNL     1       6.631   6.210  15.257  0.00  0.00    +0.027 HD
ATOM     32  H   UNL     1       7.656   5.271  14.175  0.00  0.00    +0.027 HD
ATOM     33  H   UNL     1       8.610   4.965  16.307  0.00  0.00    +0.034 HD
ATOM     34  H   UNL     1       7.789   3.439  15.973  0.00  0.00    +0.034 HD
ENDBRANCH   9  15
ENDBRANCH   3   5
BRANCH   2  35
ATOM     35  C   UNL     1       0.630   8.833  21.356  0.00  0.00    +0.037 A 
ATOM     36  C   UNL     1       0.367   8.692  22.724  0.00  0.00    -0.050 A 
ATOM     37  C   UNL     1      -0.261   9.727  23.423  0.00  0.00    -0.061 A 
ATOM     38  C   UNL     1      -0.645  10.891  22.758  0.00  0.00    -0.057 A 
ATOM     39  C   UNL     1      -0.439  11.029  21.376  0.00  0.00    -0.029 A 
ATOM     40  C   UNL     1       0.203   9.987  20.683  0.00  0.00    -0.045 A 
ATOM     41  H   UNL     1       0.635   7.784  23.260  0.00  0.00    +0.063 HD
ATOM     42  H   UNL     1      -0.448   9.631  24.491  0.00  0.00    +0.062 HD
ATOM     43  H   UNL     1      -1.103  11.693  23.333  0.00  0.00    +0.062 HD
ATOM     44  H   UNL     1       0.391  10.077  19.613  0.00  0.00    +0.063 HD
BRANCH  39  45
ATOM     45  C   UNL     1      -0.834  12.290  20.640  0.00  0.00    +0.048 C 
ATOM     46  H   UNL     1      -1.298  12.979  21.355  0.00  0.00    +0.052 HD
ATOM     47  H   UNL     1       0.057  12.783  20.233  0.00  0.00    +0.052 HD
BRANCH  45  48
ATOM     48  N   UNL     1      -1.748  12.049  19.542  0.00  0.00    -0.230 N 
ATOM     49  C   UNL     1      -1.363  11.611  18.306  0.00  0.00    +0.254 C 
ATOM     50  O   UNL     1      -0.248  11.364  17.892  0.00  0.00    -0.270 OA
ATOM     51  C   UNL     1      -2.580  11.489  17.506  0.00  0.00    +0.049 A 
ATOM     52  C   UNL     1      -2.752  11.092  16.194  0.00  0.00    -0.049 A 
ATOM     53  C   UNL     1      -4.060  11.072  15.699  0.00  0.00    -0.061 A 
ATOM     54  C   UNL     1      -5.147  11.451  16.514  0.00  0.00    -0.061 A 
ATOM     55  C   UNL     1      -4.944  11.852  17.841  0.00  0.00    -0.049 A 
ATOM     56  C   UNL     1      -3.644  11.858  18.308  0.00  0.00    +0.049 A 
ATOM     57  C   UNL     1      -3.105  12.209  19.623  0.00  0.00    +0.254 C 
ATOM     58  O   UNL     1      -3.789  12.548  20.568  0.00  0.00    -0.270 OA
ATOM     59  H   UNL     1      -1.904  10.805  15.580  0.00  0.00    +0.063 HD
ATOM     60  H   UNL     1      -4.242  10.762  14.671  0.00  0.00    +0.062 HD
ATOM     61  H   UNL     1      -6.154  11.432  16.107  0.00  0.00    +0.062 HD
ATOM     62  H   UNL     1      -5.769  12.148  18.480  0.00  0.00    +0.063 HD
ENDBRANCH  45  48
ENDBRANCH  39  45
ENDBRANCH   2  35
TORSDOF 5
ENDMDL
MODEL 3
REMARK VINA RESULT:    -9.590      2.590     10.782
REMARK INTER + INTRA:         -12.821
REMARK INTER:                 -12.507
REMARK INTRA:                  -0.314
REMARK UNBOUND:                -0.429
REMARK  Name = 
REMARK  5 active torsions:
REMARK  status: ('A' for Active; 'I' for Inactive)
REMARK    1  A    between atoms: C_2  and  C_20
REMARK    2  A    between atoms: N_3  and  C_4
REMARK    3  A    between atoms: C_8  and  C_9
REMARK    4  A    between atoms: C_24  and  C_25
REMARK    5  A    between atoms: C_25  and  N_26
REMARK                            x       y       z     vdW  Elec       q    Type
REMARK                         _______ _______ _______ _____ _____    ______ ____
ROOT
ATOM      1  O   UNL     1       1.988   8.123  19.606  0.00  0.00    -0.270 OA
ATOM      2  C   UNL     1       1.365   7.778  20.604  0.00  0.00    +0.248 C 
ATOM      3  N   UNL     1       1.329   6.508  21.151  0.00  0.00    -0.281 N 
ATOM      4  H   UNL     1       0.899   6.413  22.064  0.00  0.00    +0.155 HD
ENDROOT
BRANCH   3   5
ATOM      5  C   UNL     1       1.927   5.338  20.641  0.00  0.00    +0.034 A 
ATOM      6  C   UNL     1       1.333   4.074  20.677  0.00  0.00    -0.040 A 
ATOM      7  C   UNL     1       2.001   2.962  20.157  0.00  0.00    -0.059 A 
ATOM      8  C   UNL     1       3.264   3.107  19.581  0.00  0.00    -0.051 A 
ATOM      9  C   UNL     1       3.864   4.367  19.524  0.00  0.00    +0.021 A 
ATOM     10  C   UNL     1       3.202   5.470  20.077  0.00  0.00    -0.030 A 
ATOM     11  H   UNL     1       0.353   3.916  21.125  0.00  0.00    +0.064 HD
ATOM     12  H   UNL     1       1.536   1.980  20.211  0.00  0.00    +0.062 HD
ATOM     13  H   UNL     1       3.776   2.233  19.190  0.00  0.00    +0.062 HD
ATOM     14  H   UNL     1       3.695   6.440  20.052  0.00  0.00    +0.064 HD
BRANCH   9  15
ATOM     15  C   UNL     1       5.170   4.558  18.908  0.00  0.00    +0.164 A 
ATOM     16  N   UNL     1       6.175   5.227  19.439  0.00  0.00    -0.129 NA
ATOM     17  N   UNL     1       7.209   5.249  18.536  0.00  0.00    -0.134 NA
ATOM     18  C   UNL     1       6.819   4.613  17.458  0.00  0.00    +0.134 A 
ATOM     19  N   UNL     1       5.539   4.160  17.644  0.00  0.00    -0.311 N 
ATOM     20  C   UNL     1       4.734   3.499  16.646  0.00  0.00    +0.026 C 
ATOM     21  C   UNL     1       4.501   4.350  15.394  0.00  0.00    -0.035 C 
ATOM     22  C   UNL     1       5.709   4.426  14.459  0.00  0.00    -0.051 C 
ATOM     23  C   UNL     1       6.925   5.162  15.024  0.00  0.00    -0.046 C 
ATOM     24  C   UNL     1       7.591   4.448  16.200  0.00  0.00    +0.007 C 
ATOM     25  H   UNL     1       5.230   2.551  16.397  0.00  0.00    +0.049 HD
ATOM     26  H   UNL     1       3.761   3.251  17.086  0.00  0.00    +0.049 HD
ATOM     27  H   UNL     1       3.673   3.903  14.825  0.00  0.00    +0.028 HD
ATOM     28  H   UNL     1       4.183   5.366  15.672  0.00  0.00    +0.028 HD
ATOM     29  H   UNL     1       5.999   3.418  14.138  0.00  0.00    +0.027 HD
ATOM     30  H   UNL     1       5.397   4.952  13.549  0.00  0.00    +0.027 HD
ATOM     31  H   UNL     1       6.644   6.185  15.303  0.00  0.00    +0.027 HD
ATOM     32  H   UNL     1       7.664   5.246  14.216  0.00  0.00    +0.027 HD
ATOM     33  H   UNL     1       8.588   4.885  16.352  0.00  0.00    +0.034 HD
ATOM     34  H   UNL     1       7.743   3.381  15.983  0.00  0.00    +0.034 HD
ENDBRANCH   9  15
ENDBRANCH   3   5
BRANCH   2  35
ATOM     35  C   UNL     1       0.630   8.815  21.389  0.00  0.00    +0.037 A 
ATOM     36  C   UNL     1       0.397   8.680  22.763  0.00  0.00    -0.050 A 
ATOM     37  C   UNL     1      -0.221   9.715  23.471  0.00  0.00    -0.061 A 
ATOM     38  C   UNL     1      -0.626  10.874  22.809  0.00  0.00    -0.057 A 
ATOM     39  C   UNL     1      -0.451  11.006  21.422  0.00  0.00    -0.029 A 
ATOM     40  C   UNL     1       0.182   9.965  20.720  0.00  0.00    -0.045 A 
ATOM     41  H   UNL     1       0.682   7.776  23.297  0.00  0.00    +0.063 HD
ATOM     42  H   UNL     1      -0.385   9.623  24.543  0.00  0.00    +0.062 HD
ATOM     43  H   UNL     1      -1.075  11.676  23.390  0.00  0.00    +0.062 HD
ATOM     44  H   UNL     1       0.347  10.051  19.646  0.00  0.00    +0.063 HD
BRANCH  39  45
ATOM     45  C   UNL     1      -0.868  12.262  20.689  0.00  0.00    +0.048 C 
ATOM     46  H   UNL     1      -1.352  12.937  21.404  0.00  0.00    +0.052 HD
ATOM     47  H   UNL     1       0.015  12.775  20.290  0.00  0.00    +0.052 HD
BRANCH  45  48
ATOM     48  N   UNL     1      -1.769  12.006  19.584  0.00  0.00    -0.230 N 
ATOM     49  C   UNL     1      -3.124  12.172  19.644  0.00  0.00    +0.254 C 
ATOM     50  O   UNL     1      -3.813  12.527  20.579  0.00  0.00    -0.270 OA
ATOM     51  C   UNL     1      -3.649  11.819  18.326  0.00  0.00    +0.049 A 
ATOM     52  C   UNL     1      -4.947  11.809  17.854  0.00  0.00    -0.049 A 
ATOM     53  C   UNL     1      -5.140  11.422  16.524  0.00  0.00    -0.061 A 
ATOM     54  C   UNL     1      -4.046  11.054  15.713  0.00  0.00    -0.061 A 
ATOM     55  C   UNL     1      -2.739  11.071  16.217  0.00  0.00    -0.049 A 
ATOM     56  C   UNL     1      -2.576  11.461  17.532  0.00  0.00    +0.049 A 
ATOM     57  C   UNL     1      -1.364  11.593  18.343  0.00  0.00    +0.254 C 
ATOM     58  O   UNL     1      -0.242  11.381  17.927  0.00  0.00    -0.270 OA
ATOM     59  H   UNL     1      -5.778  12.094  18.493  0.00  0.00    +0.063 HD
ATOM     60  H   UNL     1      -6.147  11.403  16.109  0.00  0.00    +0.062 HD
ATOM     61  H   UNL     1      -4.220  10.753  14.683  0.00  0.00    +0.062 HD
ATOM     62  H   UNL     1      -1.889  10.789  15.608  0.00  0.00    +0.063 HD
ENDBRANCH  45  48
ENDBRANCH  39  45
ENDBRANCH   2  35
TORSDOF 5
ENDMDL
MODEL 4
REMARK VINA RESULT:    -9.580      0.062      1.439
REMARK INTER + INTRA:         -12.809
REMARK INTER:                 -12.023
REMARK INTRA:                  -0.786
REMARK UNBOUND:                -0.429
REMARK  Name = 
REMARK  5 active torsions:
REMARK  status: ('A' for Active; 'I' for Inactive)
REMARK    1  A    between atoms: C_2  and  C_20
REMARK    2  A    between atoms: N_3  and  C_4
REMARK    3  A    between atoms: C_8  and  C_9
REMARK    4  A    between atoms: C_24  and  C_25
REMARK    5  A    between atoms: C_25  and  N_26
REMARK                            x       y       z     vdW  Elec       q    Type
REMARK                         _______ _______ _______ _____ _____    ______ ____
ROOT
ATOM      1  O   UNL     1       2.293   8.337  17.717  0.00  0.00    -0.270 OA
ATOM      2  C   UNL     1       2.008   8.094  18.884  0.00  0.00    +0.248 C 
ATOM      3  N   UNL     1       1.309   8.918  19.748  0.00  0.00    -0.281 N 
ATOM      4  H   UNL     1       1.014   8.516  20.630  0.00  0.00    +0.155 HD
ENDROOT
BRANCH   3   5
ATOM      5  C   UNL     1       0.850  10.228  19.500  0.00  0.00    +0.034 A 
ATOM      6  C   UNL     1       1.558  11.182  18.765  0.00  0.00    -0.040 A 
ATOM      7  C   UNL     1       1.033  12.463  18.575  0.00  0.00    -0.059 A 
ATOM      8  C   UNL     1      -0.214  12.797  19.105  0.00  0.00    -0.051 A 
ATOM      9  C   UNL     1      -0.941  11.849  19.829  0.00  0.00    +0.021 A 
ATOM     10  C   UNL     1      -0.393  10.578  20.043  0.00  0.00    -0.030 A 
ATOM     11  H   UNL     1       2.538  10.965  18.344  0.00  0.00    +0.064 HD
ATOM     12  H   UNL     1       1.605  13.202  18.020  0.00  0.00    +0.062 HD
ATOM     13  H   UNL     1      -0.605  13.799  18.959  0.00  0.00    +0.062 HD
ATOM     14  H   UNL     1      -0.958   9.860  20.634  0.00  0.00    +0.064 HD
BRANCH   9  15
ATOM     15  C   UNL     1      -2.257  12.156  20.375  0.00  0.00    +0.164 A 
ATOM     16  N   UNL     1      -3.357  12.321  19.669  0.00  0.00    -0.129 NA
ATOM     17  N   UNL     1      -4.375  12.666  20.523  0.00  0.00    -0.134 NA
ATOM     18  C   UNL     1      -3.882  12.729  21.737  0.00  0.00    +0.134 A 
ATOM     19  N   UNL     1      -2.548  12.416  21.693  0.00  0.00    -0.311 N 
ATOM     20  C   UNL     1      -1.642  12.470  22.815  0.00  0.00    +0.026 C 
ATOM     21  C   UNL     1      -1.536  13.863  23.441  0.00  0.00    -0.035 C 
ATOM     22  C   UNL     1      -2.733  14.248  24.311  0.00  0.00    -0.051 C 
ATOM     23  C   UNL     1      -4.054  14.425  23.560  0.00  0.00    -0.046 C 
ATOM     24  C   UNL     1      -4.609  13.130  22.968  0.00  0.00    +0.007 C 
ATOM     25  H   UNL     1      -1.981  11.727  23.550  0.00  0.00    +0.049 HD
ATOM     26  H   UNL     1      -0.646  12.161  22.477  0.00  0.00    +0.049 HD
ATOM     27  H   UNL     1      -0.643  13.882  24.084  0.00  0.00    +0.028 HD
ATOM     28  H   UNL     1      -1.382  14.625  22.663  0.00  0.00    +0.028 HD
ATOM     29  H   UNL     1      -2.858  13.518  25.120  0.00  0.00    +0.027 HD
ATOM     30  H   UNL     1      -2.499  15.201  24.802  0.00  0.00    +0.027 HD
ATOM     31  H   UNL     1      -3.938  15.188  22.780  0.00  0.00    +0.027 HD
ATOM     32  H   UNL     1      -4.790  14.814  24.277  0.00  0.00    +0.027 HD
ATOM     33  H   UNL     1      -5.663  13.294  22.703  0.00  0.00    +0.034 HD
ATOM     34  H   UNL     1      -4.590  12.316  23.705  0.00  0.00    +0.034 HD
ENDBRANCH   9  15
ENDBRANCH   3   5
BRANCH   2  35
ATOM     35  C   UNL     1       2.352   6.753  19.446  0.00  0.00    +0.037 A 
ATOM     36  C   UNL     1       1.431   5.998  20.182  0.00  0.00    -0.050 A 
ATOM     37  C   UNL     1       1.771   4.712  20.615  0.00  0.00    -0.061 A 
ATOM     38  C   UNL     1       3.033   4.188  20.334  0.00  0.00    -0.057 A 
ATOM     39  C   UNL     1       3.989   4.951  19.645  0.00  0.00    -0.029 A 
ATOM     40  C   UNL     1       3.634   6.237  19.203  0.00  0.00    -0.045 A 
ATOM     41  H   UNL     1       0.450   6.393  20.434  0.00  0.00    +0.063 HD
ATOM     42  H   UNL     1       1.051   4.113  21.169  0.00  0.00    +0.062 HD
ATOM     43  H   UNL     1       3.259   3.173  20.655  0.00  0.00    +0.062 HD
ATOM     44  H   UNL     1       4.353   6.843  18.650  0.00  0.00    +0.063 HD
BRANCH  39  45
ATOM     45  C   UNL     1       5.356   4.393  19.317  0.00  0.00    +0.048 C 
ATOM     46  H   UNL     1       6.111   4.989  19.841  0.00  0.00    +0.052 HD
ATOM     47  H   UNL     1       5.437   3.359  19.677  0.00  0.00    +0.052 HD
BRANCH  45  48
ATOM     48  N   UNL     1       5.647   4.390  17.898  0.00  0.00    -0.230 N 
ATOM     49  C   UNL     1       4.859   3.790  16.955  0.00  0.00    +0.254 C 
ATOM     50  O   UNL     1       3.830   3.162  17.100  0.00  0.00    -0.270 OA
ATOM     51  C   UNL     1       5.498   4.029  15.661  0.00  0.00    +0.049 A 
ATOM     52  C   UNL     1       5.120   3.638  14.391  0.00  0.00    -0.049 A 
ATOM     53  C   UNL     1       5.946   4.026  13.332  0.00  0.00    -0.061 A 
ATOM     54  C   UNL     1       7.116   4.779  13.565  0.00  0.00    -0.061 A 
ATOM     55  C   UNL     1       7.477   5.160  14.864  0.00  0.00    -0.049 A 
ATOM     56  C   UNL     1       6.643   4.769  15.892  0.00  0.00    +0.049 A 
ATOM     57  C   UNL     1       6.730   5.009  17.334  0.00  0.00    +0.254 C 
ATOM     58  O   UNL     1       7.610   5.659  17.861  0.00  0.00    -0.270 OA
ATOM     59  H   UNL     1       4.217   3.057  14.230  0.00  0.00    +0.063 HD
ATOM     60  H   UNL     1       5.684   3.743  12.313  0.00  0.00    +0.062 HD
ATOM     61  H   UNL     1       7.744   5.066  12.727  0.00  0.00    +0.062 HD
ATOM     62  H   UNL     1       8.375   5.737  15.060  0.00  0.00    +0.063 HD
ENDBRANCH  45  48
ENDBRANCH  39  45
ENDBRANCH   2  35
TORSDOF 5
ENDMDL
MODEL 5
REMARK VINA RESULT:    -9.458      2.686     10.386
REMARK INTER + INTRA:         -12.652
REMARK INTER:                 -11.911
REMARK INTRA:                  -0.741
REMARK UNBOUND:                -0.429
REMARK  Name = 
REMARK  5 active torsions:
REMARK  status: ('A' for Active; 'I' for Inactive)
REMARK    1  A    between atoms: C_2  and  C_20
REMARK    2  A    between atoms: N_3  and  C_4
REMARK    3  A    between atoms: C_8  and  C_9
REMARK    4  A    between atoms: C_24  and  C_25
REMARK    5  A    between atoms: C_25  and  N_26
REMARK                            x       y       z     vdW  Elec       q    Type
REMARK                         _______ _______ _______ _____ _____    ______ ____
ROOT
ATOM      1  O   UNL     1       1.817   8.405  19.307  0.00  0.00    -0.270 OA
ATOM      2  C   UNL     1       1.266   8.145  20.371  0.00  0.00    +0.248 C 
ATOM      3  N   UNL     1       1.285   6.930  21.030  0.00  0.00    -0.281 N 
ATOM      4  H   UNL     1       0.918   6.914  21.975  0.00  0.00    +0.155 HD
ENDROOT
BRANCH   3   5
ATOM      5  C   UNL     1       1.867   5.724  20.590  0.00  0.00    +0.034 A 
ATOM      6  C   UNL     1       1.240   4.478  20.663  0.00  0.00    -0.040 A 
ATOM      7  C   UNL     1       1.894   3.328  20.211  0.00  0.00    -0.059 A 
ATOM      8  C   UNL     1       3.175   3.417  19.665  0.00  0.00    -0.051 A 
ATOM      9  C   UNL     1       3.808   4.658  19.570  0.00  0.00    +0.021 A 
ATOM     10  C   UNL     1       3.160   5.800  20.056  0.00  0.00    -0.030 A 
ATOM     11  H   UNL     1       0.246   4.364  21.091  0.00  0.00    +0.064 HD
ATOM     12  H   UNL     1       1.403   2.361  20.295  0.00  0.00    +0.062 HD
ATOM     13  H   UNL     1       3.675   2.514  19.328  0.00  0.00    +0.062 HD
ATOM     14  H   UNL     1       3.678   6.756  20.002  0.00  0.00    +0.064 HD
BRANCH   9  15
ATOM     15  C   UNL     1       5.135   4.791  18.983  0.00  0.00    +0.164 A 
ATOM     16  N   UNL     1       6.138   5.467  19.507  0.00  0.00    -0.129 NA
ATOM     17  N   UNL     1       7.197   5.420  18.635  0.00  0.00    -0.134 NA
ATOM     18  C   UNL     1       6.825   4.734  17.581  0.00  0.00    +0.134 A 
ATOM     19  N   UNL     1       5.531   4.317  17.754  0.00  0.00    -0.311 N 
ATOM     20  C   UNL     1       4.741   3.619  16.769  0.00  0.00    +0.026 C 
ATOM     21  C   UNL     1       4.561   4.405  15.468  0.00  0.00    -0.035 C 
ATOM     22  C   UNL     1       5.796   4.407  14.566  0.00  0.00    -0.051 C 
ATOM     23  C   UNL     1       7.011   5.149  15.126  0.00  0.00    -0.046 C 
ATOM     24  C   UNL     1       7.629   4.486  16.357  0.00  0.00    +0.007 C 
ATOM     25  H   UNL     1       5.223   2.649  16.586  0.00  0.00    +0.049 HD
ATOM     26  H   UNL     1       3.751   3.414  17.193  0.00  0.00    +0.049 HD
ATOM     27  H   UNL     1       3.740   3.944  14.900  0.00  0.00    +0.028 HD
ATOM     28  H   UNL     1       4.257   5.441  15.682  0.00  0.00    +0.028 HD
ATOM     29  H   UNL     1       6.074   3.377  14.308  0.00  0.00    +0.027 HD
ATOM     30  H   UNL     1       5.521   4.889  13.620  0.00  0.00    +0.027 HD
ATOM     31  H   UNL     1       6.744   6.191  15.342  0.00  0.00    +0.027 HD
ATOM     32  H   UNL     1       7.774   5.175  14.336  0.00  0.00    +0.027 HD
ATOM     33  H   UNL     1       8.630   4.912  16.515  0.00  0.00    +0.034 HD
ATOM     34  H   UNL     1       7.764   3.407  16.202  0.00  0.00    +0.034 HD
ENDBRANCH   9  15
ENDBRANCH   3   5
BRANCH   2  35
ATOM     35  C   UNL     1       0.567   9.243  21.107  0.00  0.00    +0.037 A 
ATOM     36  C   UNL     1       0.062   9.063  22.400  0.00  0.00    -0.050 A 
ATOM     37  C   UNL     1      -0.510  10.144  23.081  0.00  0.00    -0.061 A 
ATOM     38  C   UNL     1      -0.595  11.393  22.467  0.00  0.00    -0.057 A 
ATOM     39  C   UNL     1      -0.144  11.579  21.151  0.00  0.00    -0.029 A 
ATOM     40  C   UNL     1       0.439  10.491  20.478  0.00  0.00    -0.045 A 
ATOM     41  H   UNL     1       0.096   8.094  22.890  0.00  0.00    +0.063 HD
ATOM     42  H   UNL     1      -0.884  10.015  24.094  0.00  0.00    +0.062 HD
ATOM     43  H   UNL     1      -1.015  12.223  23.032  0.00  0.00    +0.062 HD
ATOM     44  H   UNL     1       0.815  10.613  19.462  0.00  0.00    +0.063 HD
BRANCH  39  45
ATOM     45  C   UNL     1      -0.214  12.931  20.475  0.00  0.00    +0.048 C 
ATOM     46  H   UNL     1      -0.859  12.846  19.593  0.00  0.00    +0.052 HD
ATOM     47  H   UNL     1      -0.668  13.666  21.152  0.00  0.00    +0.052 HD
BRANCH  45  48
ATOM     48  N   UNL     1       1.083  13.438  20.077  0.00  0.00    -0.230 N 
ATOM     49  C   UNL     1       1.926  14.123  20.906  0.00  0.00    +0.254 C 
ATOM     50  O   UNL     1       1.769  14.444  22.066  0.00  0.00    -0.270 OA
ATOM     51  C   UNL     1       3.119  14.441  20.122  0.00  0.00    +0.049 A 
ATOM     52  C   UNL     1       4.268  15.122  20.477  0.00  0.00    -0.049 A 
ATOM     53  C   UNL     1       5.253  15.267  19.495  0.00  0.00    -0.061 A 
ATOM     54  C   UNL     1       5.065  14.742  18.199  0.00  0.00    -0.061 A 
ATOM     55  C   UNL     1       3.889  14.058  17.865  0.00  0.00    -0.049 A 
ATOM     56  C   UNL     1       2.934  13.924  18.854  0.00  0.00    +0.049 A 
ATOM     57  C   UNL     1       1.624  13.269  18.831  0.00  0.00    +0.254 C 
ATOM     58  O   UNL     1       1.174  12.685  17.865  0.00  0.00    -0.270 OA
ATOM     59  H   UNL     1       4.395  15.521  21.479  0.00  0.00    +0.063 HD
ATOM     60  H   UNL     1       6.176  15.793  19.733  0.00  0.00    +0.062 HD
ATOM     61  H   UNL     1       5.842  14.870  17.452  0.00  0.00    +0.062 HD
ATOM     62  H   UNL     1       3.728  13.650  16.873  0.00  0.00    +0.063 HD
ENDBRANCH  45  48
ENDBRANCH  39  45
ENDBRANCH   2  35
TORSDOF 5
ENDMDL
MODEL 6
REMARK VINA RESULT:    -9.448      2.682     10.424
REMARK INTER + INTRA:         -12.638
REMARK INTER:                 -11.880
REMARK INTRA:                  -0.758
REMARK UNBOUND:                -0.429
REMARK  Name = 
REMARK  5 active torsions:
REMARK  status: ('A' for Active; 'I' for Inactive)
REMARK    1  A    between atoms: C_2  and  C_20
REMARK    2  A    between atoms: N_3  and  C_4
REMARK    3  A    between atoms: C_8  and  C_9
REMARK    4  A    between atoms: C_24  and  C_25
REMARK    5  A    between atoms: C_25  and  N_26
REMARK                            x       y       z     vdW  Elec       q    Type
REMARK                         _______ _______ _______ _____ _____    ______ ____
ROOT
ATOM      1  O   UNL     1       1.813   8.417  19.311  0.00  0.00    -0.270 OA
ATOM      2  C   UNL     1       1.252   8.161  20.370  0.00  0.00    +0.248 C 
ATOM      3  N   UNL     1       1.268   6.950  21.038  0.00  0.00    -0.281 N 
ATOM      4  H   UNL     1       0.890   6.939  21.978  0.00  0.00    +0.155 HD
ENDROOT
BRANCH   3   5
ATOM      5  C   UNL     1       1.859   5.744  20.611  0.00  0.00    +0.034 A 
ATOM      6  C   UNL     1       1.245   4.493  20.706  0.00  0.00    -0.040 A 
ATOM      7  C   UNL     1       1.908   3.343  20.267  0.00  0.00    -0.059 A 
ATOM      8  C   UNL     1       3.186   3.437  19.713  0.00  0.00    -0.051 A 
ATOM      9  C   UNL     1       3.806   4.683  19.597  0.00  0.00    +0.021 A 
ATOM     10  C   UNL     1       3.149   5.825  20.070  0.00  0.00    -0.030 A 
ATOM     11  H   UNL     1       0.254   4.376  21.140  0.00  0.00    +0.064 HD
ATOM     12  H   UNL     1       1.427   2.373  20.367  0.00  0.00    +0.062 HD
ATOM     13  H   UNL     1       3.693   2.534  19.386  0.00  0.00    +0.062 HD
ATOM     14  H   UNL     1       3.657   6.785  20.000  0.00  0.00    +0.064 HD
BRANCH   9  15
ATOM     15  C   UNL     1       5.129   4.820  19.002  0.00  0.00    +0.164 A 
ATOM     16  N   UNL     1       6.132   5.502  19.517  0.00  0.00    -0.129 NA
ATOM     17  N   UNL     1       7.186   5.458  18.639  0.00  0.00    -0.134 NA
ATOM     18  C   UNL     1       6.810   4.768  17.589  0.00  0.00    +0.134 A 
ATOM     19  N   UNL     1       5.519   4.345  17.772  0.00  0.00    -0.311 N 
ATOM     20  C   UNL     1       4.726   3.640  16.793  0.00  0.00    +0.026 C 
ATOM     21  C   UNL     1       4.535   4.423  15.491  0.00  0.00    -0.035 C 
ATOM     22  C   UNL     1       5.764   4.428  14.581  0.00  0.00    -0.051 C 
ATOM     23  C   UNL     1       6.979   5.177  15.132  0.00  0.00    -0.046 C 
ATOM     24  C   UNL     1       7.607   4.520  16.361  0.00  0.00    +0.007 C 
ATOM     25  H   UNL     1       5.211   2.673  16.610  0.00  0.00    +0.049 HD
ATOM     26  H   UNL     1       3.740   3.432  17.224  0.00  0.00    +0.049 HD
ATOM     27  H   UNL     1       3.712   3.957  14.929  0.00  0.00    +0.028 HD
ATOM     28  H   UNL     1       4.227   5.458  15.704  0.00  0.00    +0.028 HD
ATOM     29  H   UNL     1       6.044   3.399  14.324  0.00  0.00    +0.027 HD
ATOM     30  H   UNL     1       5.480   4.906  13.636  0.00  0.00    +0.027 HD
ATOM     31  H   UNL     1       6.708   6.218  15.347  0.00  0.00    +0.027 HD
ATOM     32  H   UNL     1       7.736   5.204  14.337  0.00  0.00    +0.027 HD
ATOM     33  H   UNL     1       8.607   4.951  16.512  0.00  0.00    +0.034 HD
ATOM     34  H   UNL     1       7.746   3.441  16.208  0.00  0.00    +0.034 HD
ENDBRANCH   9  15
ENDBRANCH   3   5
BRANCH   2  35
ATOM     35  C   UNL     1       0.540   9.261  21.091  0.00  0.00    +0.037 A 
ATOM     36  C   UNL     1       0.005   9.082  22.373  0.00  0.00    -0.050 A 
ATOM     37  C   UNL     1      -0.578  10.164  23.041  0.00  0.00    -0.061 A 
ATOM     38  C   UNL     1      -0.645  11.414  22.427  0.00  0.00    -0.057 A 
ATOM     39  C   UNL     1      -0.163  11.600  21.122  0.00  0.00    -0.029 A 
ATOM     40  C   UNL     1       0.432  10.510  20.462  0.00  0.00    -0.045 A 
ATOM     41  H   UNL     1       0.024   8.112  22.862  0.00  0.00    +0.063 HD
ATOM     42  H   UNL     1      -0.977  10.035  24.046  0.00  0.00    +0.062 HD
ATOM     43  H   UNL     1      -1.075  12.245  22.983  0.00  0.00    +0.062 HD
ATOM     44  H   UNL     1       0.831  10.632  19.454  0.00  0.00    +0.063 HD
BRANCH  39  45
ATOM     45  C   UNL     1      -0.212  12.952  20.447  0.00  0.00    +0.048 C 
ATOM     46  H   UNL     1      -0.852  12.876  19.560  0.00  0.00    +0.052 HD
ATOM     47  H   UNL     1      -0.663  13.693  21.120  0.00  0.00    +0.052 HD
BRANCH  45  48
ATOM     48  N   UNL     1       1.093  13.445  20.058  0.00  0.00    -0.230 N 
ATOM     49  C   UNL     1       1.624  13.304  18.806  0.00  0.00    +0.254 C 
ATOM     50  O   UNL     1       1.153  12.759  17.829  0.00  0.00    -0.270 OA
ATOM     51  C   UNL     1       2.939  13.944  18.834  0.00  0.00    +0.049 A 
ATOM     52  C   UNL     1       3.888  14.081  17.839  0.00  0.00    -0.049 A 
ATOM     53  C   UNL     1       5.066  14.757  18.171  0.00  0.00    -0.061 A 
ATOM     54  C   UNL     1       5.266  15.267  19.470  0.00  0.00    -0.061 A 
ATOM     55  C   UNL     1       4.288  15.112  20.461  0.00  0.00    -0.049 A 
ATOM     56  C   UNL     1       3.131  14.445  20.107  0.00  0.00    +0.049 A 
ATOM     57  C   UNL     1       1.935  14.131  20.891  0.00  0.00    +0.254 C 
ATOM     58  O   UNL     1       1.776  14.463  22.049  0.00  0.00    -0.270 OA
ATOM     59  H   UNL     1       3.718  13.681  16.844  0.00  0.00    +0.063 HD
ATOM     60  H   UNL     1       5.841  14.891  17.416  0.00  0.00    +0.062 HD
ATOM     61  H   UNL     1       6.191  15.786  19.706  0.00  0.00    +0.062 HD
ATOM     62  H   UNL     1       4.428  15.496  21.466  0.00  0.00    +0.063 HD
ENDBRANCH  45  48
ENDBRANCH  39  45
ENDBRANCH   2  35
TORSDOF 5
ENDMDL
MODEL 7
REMARK VINA RESULT:    -9.148      2.154     11.693
REMARK INTER + INTRA:         -12.251
REMARK INTER:                 -11.532
REMARK INTRA:                  -0.719
REMARK UNBOUND:                -0.429
REMARK  Name = 
REMARK  5 active torsions:
REMARK  status: ('A' for Active; 'I' for Inactive)
REMARK    1  A    between atoms: C_2  and  C_20
REMARK    2  A    between atoms: N_3  and  C_4
REMARK    3  A    between atoms: C_8  and  C_9
REMARK    4  A    between atoms: C_24  and  C_25
REMARK    5  A    between atoms: C_25  and  N_26
REMARK                            x       y       z     vdW  Elec       q    Type
REMARK                         _______ _______ _______ _____ _____    ______ ____
ROOT
ATOM      1  O   UNL     1       2.473   8.501  18.011  0.00  0.00    -0.270 OA
ATOM      2  C   UNL     1       1.615   8.537  18.885  0.00  0.00    +0.248 C 
ATOM      3  N   UNL     1       1.420   7.600  19.884  0.00  0.00    -0.281 N 
ATOM      4  H   UNL     1       0.774   7.847  20.625  0.00  0.00    +0.155 HD
ENDROOT
BRANCH   3   5
ATOM      5  C   UNL     1       2.104   6.381  20.061  0.00  0.00    +0.034 A 
ATOM      6  C   UNL     1       1.602   5.298  20.787  0.00  0.00    -0.040 A 
ATOM      7  C   UNL     1       2.353   4.127  20.922  0.00  0.00    -0.059 A 
ATOM      8  C   UNL     1       3.606   4.022  20.317  0.00  0.00    -0.051 A 
ATOM      9  C   UNL     1       4.115   5.090  19.576  0.00  0.00    +0.021 A 
ATOM     10  C   UNL     1       3.371   6.272  19.473  0.00  0.00    -0.030 A 
ATOM     11  H   UNL     1       0.634   5.342  21.281  0.00  0.00    +0.064 HD
ATOM     12  H   UNL     1       1.959   3.300  21.508  0.00  0.00    +0.062 HD
ATOM     13  H   UNL     1       4.183   3.110  20.440  0.00  0.00    +0.062 HD
ATOM     14  H   UNL     1       3.793   7.107  18.917  0.00  0.00    +0.064 HD
BRANCH   9  15
ATOM     15  C   UNL     1       5.409   5.006  18.912  0.00  0.00    +0.164 A 
ATOM     16  N   UNL     1       6.532   5.531  19.357  0.00  0.00    -0.129 NA
ATOM     17  N   UNL     1       7.517   5.304  18.429  0.00  0.00    -0.134 NA
ATOM     18  C   UNL     1       6.983   4.663  17.418  0.00  0.00    +0.134 A 
ATOM     19  N   UNL     1       5.653   4.452  17.676  0.00  0.00    -0.311 N 
ATOM     20  C   UNL     1       4.708   3.863  16.758  0.00  0.00    +0.026 C 
ATOM     21  C   UNL     1       4.572   4.642  15.447  0.00  0.00    -0.035 C 
ATOM     22  C   UNL     1       5.736   4.436  14.477  0.00  0.00    -0.051 C 
ATOM     23  C   UNL     1       7.081   4.994  14.946  0.00  0.00    -0.046 C 
ATOM     24  C   UNL     1       7.664   4.270  16.159  0.00  0.00    +0.007 C 
ATOM     25  H   UNL     1       5.026   2.828  16.577  0.00  0.00    +0.049 HD
ATOM     26  H   UNL     1       3.726   3.821  17.243  0.00  0.00    +0.049 HD
ATOM     27  H   UNL     1       3.657   4.300  14.939  0.00  0.00    +0.028 HD
ATOM     28  H   UNL     1       4.442   5.716  15.647  0.00  0.00    +0.028 HD
ATOM     29  H   UNL     1       5.838   3.371  14.234  0.00  0.00    +0.027 HD
ATOM     30  H   UNL     1       5.481   4.935  13.534  0.00  0.00    +0.027 HD
ATOM     31  H   UNL     1       6.989   6.069  15.145  0.00  0.00    +0.027 HD
ATOM     32  H   UNL     1       7.790   4.886  14.113  0.00  0.00    +0.027 HD
ATOM     33  H   UNL     1       8.726   4.540  16.247  0.00  0.00    +0.034 HD
ATOM     34  H   UNL     1       7.624   3.180  16.028  0.00  0.00    +0.034 HD
ENDBRANCH   9  15
ENDBRANCH   3   5
BRANCH   2  35
ATOM     35  C   UNL     1       0.726   9.735  18.973  0.00  0.00    +0.037 A 
ATOM     36  C   UNL     1      -0.247  10.010  18.004  0.00  0.00    -0.050 A 
ATOM     37  C   UNL     1      -1.111  11.097  18.173  0.00  0.00    -0.061 A 
ATOM     38  C   UNL     1      -0.994  11.919  19.293  0.00  0.00    -0.057 A 
ATOM     39  C   UNL     1       0.011  11.693  20.247  0.00  0.00    -0.029 A 
ATOM     40  C   UNL     1       0.868  10.592  20.075  0.00  0.00    -0.045 A 
ATOM     41  H   UNL     1      -0.342   9.397  17.111  0.00  0.00    +0.063 HD
ATOM     42  H   UNL     1      -1.883  11.301  17.433  0.00  0.00    +0.062 HD
ATOM     43  H   UNL     1      -1.700  12.738  19.414  0.00  0.00    +0.062 HD
ATOM     44  H   UNL     1       1.644  10.383  20.812  0.00  0.00    +0.063 HD
BRANCH  39  45
ATOM     45  C   UNL     1       0.143  12.565  21.476  0.00  0.00    +0.048 C 
ATOM     46  H   UNL     1       0.825  12.075  22.179  0.00  0.00    +0.052 HD
ATOM     47  H   UNL     1       0.581  13.533  21.204  0.00  0.00    +0.052 HD
BRANCH  45  48
ATOM     48  N   UNL     1      -1.122  12.821  22.133  0.00  0.00    -0.230 N 
ATOM     49  C   UNL     1      -1.868  13.952  21.947  0.00  0.00    +0.254 C 
ATOM     50  O   UNL     1      -1.635  14.920  21.253  0.00  0.00    -0.270 OA
ATOM     51  C   UNL     1      -3.062  13.808  22.778  0.00  0.00    +0.049 A 
ATOM     52  C   UNL     1      -4.133  14.662  22.961  0.00  0.00    -0.049 A 
ATOM     53  C   UNL     1      -5.144  14.241  23.831  0.00  0.00    -0.061 A 
ATOM     54  C   UNL     1      -5.058  12.998  24.492  0.00  0.00    -0.061 A 
ATOM     55  C   UNL     1      -3.959  12.152  24.291  0.00  0.00    -0.049 A 
ATOM     56  C   UNL     1      -2.977  12.589  23.423  0.00  0.00    +0.049 A 
ATOM     57  C   UNL     1      -1.730  11.950  22.997  0.00  0.00    +0.254 C 
ATOM     58  O   UNL     1      -1.373  10.848  23.362  0.00  0.00    -0.270 OA
ATOM     59  H   UNL     1      -4.183  15.616  22.445  0.00  0.00    +0.063 HD
ATOM     60  H   UNL     1      -6.009  14.882  24.002  0.00  0.00    +0.062 HD
ATOM     61  H   UNL     1      -5.853  12.694  25.166  0.00  0.00    +0.062 HD
ATOM     62  H   UNL     1      -3.877  11.195  24.793  0.00  0.00    +0.063 HD
ENDBRANCH  45  48
ENDBRANCH  39  45
ENDBRANCH   2  35
TORSDOF 5
ENDMDL
MODEL 8
REMARK VINA RESULT:    -9.145      2.042      3.673
REMARK INTER + INTRA:         -12.246
REMARK INTER:                 -11.691
REMARK INTRA:                  -0.555
REMARK UNBOUND:                -0.429
REMARK  Name = 
REMARK  5 active torsions:
REMARK  status: ('A' for Active; 'I' for Inactive)
REMARK    1  A    between atoms: C_2  and  C_20
REMARK    2  A    between atoms: N_3  and  C_4
REMARK    3  A    between atoms: C_8  and  C_9
REMARK    4  A    between atoms: C_24  and  C_25
REMARK    5  A    between atoms: C_25  and  N_26
REMARK                            x       y       z     vdW  Elec       q    Type
REMARK                         _______ _______ _______ _____ _____    ______ ____
ROOT
ATOM      1  O   UNL     1       2.153   8.080  19.956  0.00  0.00    -0.270 OA
ATOM      2  C   UNL     1       1.459   7.308  20.607  0.00  0.00    +0.248 C 
ATOM      3  N   UNL     1       0.411   7.649  21.442  0.00  0.00    -0.281 N 
ATOM      4  H   UNL     1      -0.167   6.891  21.786  0.00  0.00    +0.155 HD
ENDROOT
BRANCH   3   5
ATOM      5  C   UNL     1      -0.029   8.944  21.780  0.00  0.00    +0.034 A 
ATOM      6  C   UNL     1      -0.562   9.292  23.024  0.00  0.00    -0.040 A 
ATOM      7  C   UNL     1      -0.983  10.601  23.273  0.00  0.00    -0.059 A 
ATOM      8  C   UNL     1      -0.860  11.579  22.285  0.00  0.00    -0.051 A 
ATOM      9  C   UNL     1      -0.315  11.251  21.042  0.00  0.00    +0.021 A 
ATOM     10  C   UNL     1       0.074   9.929  20.789  0.00  0.00    -0.030 A 
ATOM     11  H   UNL     1      -0.683   8.558  23.818  0.00  0.00    +0.064 HD
ATOM     12  H   UNL     1      -1.416  10.853  24.238  0.00  0.00    +0.062 HD
ATOM     13  H   UNL     1      -1.202  12.590  22.489  0.00  0.00    +0.062 HD
ATOM     14  H   UNL     1       0.470   9.682  19.806  0.00  0.00    +0.064 HD
BRANCH   9  15
ATOM     15  C   UNL     1      -0.149  12.252  19.997  0.00  0.00    +0.164 A 
ATOM     16  N   UNL     1      -0.683  12.195  18.793  0.00  0.00    -0.129 NA
ATOM     17  N   UNL     1      -0.246  13.277  18.071  0.00  0.00    -0.134 NA
ATOM     18  C   UNL     1       0.565  13.972  18.832  0.00  0.00    +0.134 A 
ATOM     19  N   UNL     1       0.658  13.363  20.057  0.00  0.00    -0.311 N 
ATOM     20  C   UNL     1       1.529  13.778  21.130  0.00  0.00    +0.026 C 
ATOM     21  C   UNL     1       3.012  13.762  20.748  0.00  0.00    -0.035 C 
ATOM     22  C   UNL     1       3.440  14.935  19.865  0.00  0.00    -0.051 C 
ATOM     23  C   UNL     1       2.832  14.950  18.461  0.00  0.00    -0.046 C 
ATOM     24  C   UNL     1       1.323  15.188  18.441  0.00  0.00    +0.007 C 
ATOM     25  H   UNL     1       1.210  14.779  21.447  0.00  0.00    +0.049 HD
ATOM     26  H   UNL     1       1.381  13.105  21.983  0.00  0.00    +0.049 HD
ATOM     27  H   UNL     1       3.605  13.813  21.673  0.00  0.00    +0.028 HD
ATOM     28  H   UNL     1       3.273  12.813  20.256  0.00  0.00    +0.028 HD
ATOM     29  H   UNL     1       3.228  15.883  20.374  0.00  0.00    +0.027 HD
ATOM     30  H   UNL     1       4.530  14.892  19.754  0.00  0.00    +0.027 HD
ATOM     31  H   UNL     1       3.083  14.019  17.938  0.00  0.00    +0.027 HD
ATOM     32  H   UNL     1       3.312  15.765  17.904  0.00  0.00    +0.027 HD
ATOM     33  H   UNL     1       1.028  15.458  17.418  0.00  0.00    +0.034 HD
ATOM     34  H   UNL     1       1.045  16.033  19.086  0.00  0.00    +0.034 HD
ENDBRANCH   9  15
ENDBRANCH   3   5
BRANCH   2  35
ATOM     35  C   UNL     1       1.675   5.837  20.447  0.00  0.00    +0.037 A 
ATOM     36  C   UNL     1       0.609   4.928  20.433  0.00  0.00    -0.050 A 
ATOM     37  C   UNL     1       0.854   3.572  20.196  0.00  0.00    -0.061 A 
ATOM     38  C   UNL     1       2.157   3.118  19.994  0.00  0.00    -0.057 A 
ATOM     39  C   UNL     1       3.243   4.006  20.058  0.00  0.00    -0.029 A 
ATOM     40  C   UNL     1       2.987   5.369  20.285  0.00  0.00    -0.045 A 
ATOM     41  H   UNL     1      -0.412   5.254  20.611  0.00  0.00    +0.063 HD
ATOM     42  H   UNL     1       0.027   2.865  20.163  0.00  0.00    +0.062 HD
ATOM     43  H   UNL     1       2.314   2.063  19.780  0.00  0.00    +0.062 HD
ATOM     44  H   UNL     1       3.812   6.081  20.322  0.00  0.00    +0.063 HD
BRANCH  39  45
ATOM     45  C   UNL     1       4.662   3.534  19.825  0.00  0.00    +0.048 C 
ATOM     46  H   UNL     1       5.312   4.004  20.572  0.00  0.00    +0.052 HD
ATOM     47  H   UNL     1       4.725   2.448  19.964  0.00  0.00    +0.052 HD
BRANCH  45  48
ATOM     48  N   UNL     1       5.154   3.840  18.498  0.00  0.00    -0.230 N 
ATOM     49  C   UNL     1       4.648   3.300  17.349  0.00  0.00    +0.254 C 
ATOM     50  O   UNL     1       3.751   2.494  17.210  0.00  0.00    -0.270 OA
ATOM     51  C   UNL     1       5.413   3.874  16.243  0.00  0.00    +0.049 A 
ATOM     52  C   UNL     1       5.311   3.665  14.881  0.00  0.00    -0.049 A 
ATOM     53  C   UNL     1       6.193   4.373  14.059  0.00  0.00    -0.061 A 
ATOM     54  C   UNL     1       7.146   5.254  14.610  0.00  0.00    -0.061 A 
ATOM     55  C   UNL     1       7.230   5.447  15.995  0.00  0.00    -0.049 A 
ATOM     56  C   UNL     1       6.344   4.740  16.785  0.00  0.00    +0.049 A 
ATOM     57  C   UNL     1       6.168   4.723  18.239  0.00  0.00    +0.254 C 
ATOM     58  O   UNL     1       6.816   5.403  19.009  0.00  0.00    -0.270 OA
ATOM     59  H   UNL     1       4.572   2.981  14.473  0.00  0.00    +0.063 HD
ATOM     60  H   UNL     1       6.146   4.240  12.978  0.00  0.00    +0.062 HD
ATOM     61  H   UNL     1       7.824   5.790  13.952  0.00  0.00    +0.062 HD
ATOM     62  H   UNL     1       7.958   6.119  16.435  0.00  0.00    +0.063 HD
ENDBRANCH  45  48
ENDBRANCH  39  45
ENDBRANCH   2  35
TORSDOF 5
ENDMDL
MODEL 9
REMARK VINA RESULT:    -9.056      2.002      3.365
REMARK INTER + INTRA:         -12.131
REMARK INTER:                 -12.162
REMARK INTRA:                   0.031
REMARK UNBOUND:                -0.429
REMARK  Name = 
REMARK  5 active torsions:
REMARK  status: ('A' for Active; 'I' for Inactive)
REMARK    1  A    between atoms: C_2  and  C_20
REMARK    2  A    between atoms: N_3  and  C_4
REMARK    3  A    between atoms: C_8  and  C_9
REMARK    4  A    between atoms: C_24  and  C_25
REMARK    5  A    between atoms: C_25  and  N_26
REMARK                            x       y       z     vdW  Elec       q    Type
REMARK                         _______ _______ _______ _____ _____    ______ ____
ROOT
ATOM      1  O   UNL     1       1.988   8.112  19.592  0.00  0.00    -0.270 OA
ATOM      2  C   UNL     1       1.509   7.341  20.415  0.00  0.00    +0.248 C 
ATOM      3  N   UNL     1       0.610   7.661  21.415  0.00  0.00    -0.281 N 
ATOM      4  H   UNL     1       0.184   6.889  21.915  0.00  0.00    +0.155 HD
ENDROOT
BRANCH   3   5
ATOM      5  C   UNL     1       0.119   8.940  21.750  0.00  0.00    +0.034 A 
ATOM      6  C   UNL     1      -0.462   9.260  22.979  0.00  0.00    -0.040 A 
ATOM      7  C   UNL     1      -0.932  10.553  23.225  0.00  0.00    -0.059 A 
ATOM      8  C   UNL     1      -0.811  11.542  22.248  0.00  0.00    -0.051 A 
ATOM      9  C   UNL     1      -0.219  11.241  21.020  0.00  0.00    +0.021 A 
ATOM     10  C   UNL     1       0.220   9.935  20.769  0.00  0.00    -0.030 A 
ATOM     11  H   UNL     1      -0.583   8.516  23.764  0.00  0.00    +0.064 HD
ATOM     12  H   UNL     1      -1.402  10.783  24.178  0.00  0.00    +0.062 HD
ATOM     13  H   UNL     1      -1.191  12.540  22.449  0.00  0.00    +0.062 HD
ATOM     14  H   UNL     1       0.652   9.708  19.797  0.00  0.00    +0.064 HD
BRANCH   9  15
ATOM     15  C   UNL     1      -0.054  12.256  19.987  0.00  0.00    +0.164 A 
ATOM     16  N   UNL     1      -0.590  12.215  18.783  0.00  0.00    -0.129 NA
ATOM     17  N   UNL     1      -0.153  13.306  18.075  0.00  0.00    -0.134 NA
ATOM     18  C   UNL     1       0.660  13.990  18.843  0.00  0.00    +0.134 A 
ATOM     19  N   UNL     1       0.754  13.366  20.060  0.00  0.00    -0.311 N 
ATOM     20  C   UNL     1       1.628  13.765  21.137  0.00  0.00    +0.026 C 
ATOM     21  C   UNL     1       3.110  13.753  20.751  0.00  0.00    -0.035 C 
ATOM     22  C   UNL     1       3.537  14.937  19.882  0.00  0.00    -0.051 C 
ATOM     23  C   UNL     1       2.927  14.970  18.480  0.00  0.00    -0.046 C 
ATOM     24  C   UNL     1       1.418  15.210  18.466  0.00  0.00    +0.007 C 
ATOM     25  H   UNL     1       1.310  14.763  21.467  0.00  0.00    +0.049 HD
ATOM     26  H   UNL     1       1.481  13.082  21.981  0.00  0.00    +0.049 HD
ATOM     27  H   UNL     1       3.705  13.791  21.675  0.00  0.00    +0.028 HD
ATOM     28  H   UNL     1       3.369  12.810  20.246  0.00  0.00    +0.028 HD
ATOM     29  H   UNL     1       3.327  15.879  20.404  0.00  0.00    +0.027 HD
ATOM     30  H   UNL     1       4.628  14.894  19.769  0.00  0.00    +0.027 HD
ATOM     31  H   UNL     1       3.176  14.046  17.944  0.00  0.00    +0.027 HD
ATOM     32  H   UNL     1       3.406  15.792  17.933  0.00  0.00    +0.027 HD
ATOM     33  H   UNL     1       1.121  15.494  17.447  0.00  0.00    +0.034 HD
ATOM     34  H   UNL     1       1.142  16.047  19.122  0.00  0.00    +0.034 HD
ENDBRANCH   9  15
ENDBRANCH   3   5
BRANCH   2  35
ATOM     35  C   UNL     1       1.832   5.885  20.310  0.00  0.00    +0.037 A 
ATOM     36  C   UNL     1       0.842   4.898  20.395  0.00  0.00    -0.050 A 
ATOM     37  C   UNL     1       1.181   3.554  20.207  0.00  0.00    -0.061 A 
ATOM     38  C   UNL     1       2.504   3.192  19.956  0.00  0.00    -0.057 A 
ATOM     39  C   UNL     1       3.519   4.162  19.922  0.00  0.00    -0.029 A 
ATOM     40  C   UNL     1       3.168   5.512  20.100  0.00  0.00    -0.045 A 
ATOM     41  H   UNL     1      -0.192   5.153  20.613  0.00  0.00    +0.063 HD
ATOM     42  H   UNL     1       0.412   2.785  20.250  0.00  0.00    +0.062 HD
ATOM     43  H   UNL     1       2.733   2.143  19.782  0.00  0.00    +0.062 HD
ATOM     44  H   UNL     1       3.934   6.286  20.060  0.00  0.00    +0.063 HD
BRANCH  39  45
ATOM     45  C   UNL     1       4.957   3.790  19.635  0.00  0.00    +0.048 C 
ATOM     46  H   UNL     1       5.606   4.379  20.292  0.00  0.00    +0.052 HD
ATOM     47  H   UNL     1       5.123   2.730  19.863  0.00  0.00    +0.052 HD
BRANCH  45  48
ATOM     48  N   UNL     1       5.339   4.011  18.255  0.00  0.00    -0.230 N 
ATOM     49  C   UNL     1       6.491   4.638  17.870  0.00  0.00    +0.254 C 
ATOM     50  O   UNL     1       7.367   5.124  18.556  0.00  0.00    -0.270 OA
ATOM     51  C   UNL     1       6.497   4.643  16.408  0.00  0.00    +0.049 A 
ATOM     52  C   UNL     1       7.424   5.153  15.519  0.00  0.00    -0.049 A 
ATOM     53  C   UNL     1       7.152   5.000  14.156  0.00  0.00    -0.061 A 
ATOM     54  C   UNL     1       5.974   4.358  13.721  0.00  0.00    -0.061 A 
ATOM     55  C   UNL     1       5.049   3.852  14.644  0.00  0.00    -0.049 A 
ATOM     56  C   UNL     1       5.344   4.011  15.984  0.00  0.00    +0.049 A 
ATOM     57  C   UNL     1       4.604   3.595  17.178  0.00  0.00    +0.254 C 
ATOM     58  O   UNL     1       3.556   2.983  17.147  0.00  0.00    -0.270 OA
ATOM     59  H   UNL     1       8.325   5.646  15.871  0.00  0.00    +0.063 HD
ATOM     60  H   UNL     1       7.857   5.385  13.419  0.00  0.00    +0.062 HD
ATOM     61  H   UNL     1       5.781   4.254  12.657  0.00  0.00    +0.062 HD
ATOM     62  H   UNL     1       4.138   3.357  14.326  0.00  0.00    +0.063 HD
ENDBRANCH  45  48
ENDBRANCH  39  45
ENDBRANCH   2  35
TORSDOF 5
ENDMDL
MODEL 10
REMARK VINA RESULT:    -9.007      1.749      2.869
REMARK INTER + INTRA:         -12.068
REMARK INTER:                 -10.936
REMARK INTRA:                  -1.131
REMARK UNBOUND:                -0.429
REMARK  Name = 
REMARK  5 active torsions:
REMARK  status: ('A' for Active; 'I' for Inactive)
REMARK    1  A    between atoms: C_2  and  C_20
REMARK    2  A    between atoms: N_3  and  C_4
REMARK    3  A    between atoms: C_8  and  C_9
REMARK    4  A    between atoms: C_24  and  C_25
REMARK    5  A    between atoms: C_25  and  N_26
REMARK                            x       y       z     vdW  Elec       q    Type
REMARK                         _______ _______ _______ _____ _____    ______ ____
ROOT
ATOM      1  O   UNL     1       1.497   7.764  21.474  0.00  0.00    -0.270 OA
ATOM      2  C   UNL     1       1.611   7.230  20.377  0.00  0.00    +0.248 C 
ATOM      3  N   UNL     1       1.693   7.872  19.155  0.00  0.00    -0.281 N 
ATOM      4  H   UNL     1       1.944   7.305  18.354  0.00  0.00    +0.155 HD
ENDROOT
BRANCH   3   5
ATOM      5  C   UNL     1       1.587   9.255  18.905  0.00  0.00    +0.034 A 
ATOM      6  C   UNL     1       2.485   9.982  18.120  0.00  0.00    -0.040 A 
ATOM      7  C   UNL     1       2.310  11.355  17.931  0.00  0.00    -0.059 A 
ATOM      8  C   UNL     1       1.224  12.012  18.512  0.00  0.00    -0.051 A 
ATOM      9  C   UNL     1       0.309  11.296  19.286  0.00  0.00    +0.021 A 
ATOM     10  C   UNL     1       0.510   9.926  19.499  0.00  0.00    -0.030 A 
ATOM     11  H   UNL     1       3.349   9.509  17.657  0.00  0.00    +0.064 HD
ATOM     12  H   UNL     1       3.029  11.913  17.335  0.00  0.00    +0.062 HD
ATOM     13  H   UNL     1       1.107  13.082  18.365  0.00  0.00    +0.062 HD
ATOM     14  H   UNL     1      -0.195   9.388  20.128  0.00  0.00    +0.064 HD
BRANCH   9  15
ATOM     15  C   UNL     1      -0.849  11.945  19.888  0.00  0.00    +0.164 A 
ATOM     16  N   UNL     1      -0.944  12.325  21.146  0.00  0.00    -0.129 NA
ATOM     17  N   UNL     1      -2.203  12.830  21.355  0.00  0.00    -0.134 NA
ATOM     18  C   UNL     1      -2.870  12.735  20.230  0.00  0.00    +0.134 A 
ATOM     19  N   UNL     1      -2.057  12.182  19.275  0.00  0.00    -0.311 N 
ATOM     20  C   UNL     1      -2.463  11.830  17.935  0.00  0.00    +0.026 C 
ATOM     21  C   UNL     1      -3.601  10.806  17.897  0.00  0.00    -0.035 C 
ATOM     22  C   UNL     1      -4.976  11.390  18.227  0.00  0.00    -0.051 C 
ATOM     23  C   UNL     1      -5.147  11.881  19.665  0.00  0.00    -0.046 C 
ATOM     24  C   UNL     1      -4.292  13.100  20.010  0.00  0.00    +0.007 C 
ATOM     25  H   UNL     1      -2.744  12.758  17.421  0.00  0.00    +0.049 HD
ATOM     26  H   UNL     1      -1.600  11.413  17.404  0.00  0.00    +0.049 HD
ATOM     27  H   UNL     1      -3.655  10.392  16.879  0.00  0.00    +0.028 HD
ATOM     28  H   UNL     1      -3.385   9.963  18.571  0.00  0.00    +0.028 HD
ATOM     29  H   UNL     1      -5.218  12.197  17.525  0.00  0.00    +0.027 HD
ATOM     30  H   UNL     1      -5.724  10.607  18.052  0.00  0.00    +0.027 HD
ATOM     31  H   UNL     1      -4.947  11.060  20.365  0.00  0.00    +0.027 HD
ATOM     32  H   UNL     1      -6.201  12.158  19.795  0.00  0.00    +0.027 HD
ATOM     33  H   UNL     1      -4.677  13.543  20.939  0.00  0.00    +0.034 HD
ATOM     34  H   UNL     1      -4.371  13.874  19.234  0.00  0.00    +0.034 HD
ENDBRANCH   9  15
ENDBRANCH   3   5
BRANCH   2  35
ATOM     35  C   UNL     1       1.767   5.744  20.312  0.00  0.00    +0.037 A 
ATOM     36  C   UNL     1       0.673   4.878  20.419  0.00  0.00    -0.050 A 
ATOM     37  C   UNL     1       0.858   3.500  20.267  0.00  0.00    -0.061 A 
ATOM     38  C   UNL     1       2.132   2.984  20.030  0.00  0.00    -0.057 A 
ATOM     39  C   UNL     1       3.249   3.833  19.974  0.00  0.00    -0.029 A 
ATOM     40  C   UNL     1       3.053   5.217  20.116  0.00  0.00    -0.045 A 
ATOM     41  H   UNL     1      -0.326   5.253  20.627  0.00  0.00    +0.063 HD
ATOM     42  H   UNL     1       0.007   2.824  20.328  0.00  0.00    +0.062 HD
ATOM     43  H   UNL     1       2.241   1.912  19.884  0.00  0.00    +0.062 HD
ATOM     44  H   UNL     1       3.902   5.899  20.058  0.00  0.00    +0.063 HD
BRANCH  39  45
ATOM     45  C   UNL     1       4.636   3.293  19.702  0.00  0.00    +0.048 C 
ATOM     46  H   UNL     1       5.315   3.670  20.475  0.00  0.00    +0.052 HD
ATOM     47  H   UNL     1       4.633   2.198  19.765  0.00  0.00    +0.052 HD
BRANCH  45  48
ATOM     48  N   UNL     1       5.145   3.659  18.396  0.00  0.00    -0.230 N 
ATOM     49  C   UNL     1       4.630   3.200  17.216  0.00  0.00    +0.254 C 
ATOM     50  O   UNL     1       3.711   2.429  17.027  0.00  0.00    -0.270 OA
ATOM     51  C   UNL     1       5.417   3.814  16.147  0.00  0.00    +0.049 A 
ATOM     52  C   UNL     1       5.317   3.685  14.775  0.00  0.00    -0.049 A 
ATOM     53  C   UNL     1       6.224   4.412  13.998  0.00  0.00    -0.061 A 
ATOM     54  C   UNL     1       7.198   5.233  14.603  0.00  0.00    -0.061 A 
ATOM     55  C   UNL     1       7.279   5.345  15.997  0.00  0.00    -0.049 A 
ATOM     56  C   UNL     1       6.369   4.620  16.742  0.00  0.00    +0.049 A 
ATOM     57  C   UNL     1       6.185   4.526  18.191  0.00  0.00    +0.254 C 
ATOM     58  O   UNL     1       6.848   5.143  19.001  0.00  0.00    -0.270 OA
ATOM     59  H   UNL     1       4.562   3.046  14.327  0.00  0.00    +0.063 HD
ATOM     60  H   UNL     1       6.179   4.343  12.912  0.00  0.00    +0.062 HD
ATOM     61  H   UNL     1       7.895   5.786  13.979  0.00  0.00    +0.062 HD
ATOM     62  H   UNL     1       8.024   5.969  16.477  0.00  0.00    +0.063 HD
ENDBRANCH  45  48
ENDBRANCH  39  45
ENDBRANCH   2  35
TORSDOF 5
ENDMDL
MODEL 11
REMARK VINA RESULT:    -9.006      1.715      2.460
REMARK INTER + INTRA:         -12.067
REMARK INTER:                 -10.917
REMARK INTRA:                  -1.149
REMARK UNBOUND:                -0.429
REMARK  Name = 
REMARK  5 active torsions:
REMARK  status: ('A' for Active; 'I' for Inactive)
REMARK    1  A    between atoms: C_2  and  C_20
REMARK    2  A    between atoms: N_3  and  C_4
REMARK    3  A    between atoms: C_8  and  C_9
REMARK    4  A    between atoms: C_24  and  C_25
REMARK    5  A    between atoms: C_25  and  N_26
REMARK                            x       y       z     vdW  Elec       q    Type
REMARK                         _______ _______ _______ _____ _____    ______ ____
ROOT
ATOM      1  O   UNL     1       1.486   7.777  21.497  0.00  0.00    -0.270 OA
ATOM      2  C   UNL     1       1.605   7.244  20.400  0.00  0.00    +0.248 C 
ATOM      3  N   UNL     1       1.686   7.886  19.178  0.00  0.00    -0.281 N 
ATOM      4  H   UNL     1       1.941   7.320  18.377  0.00  0.00    +0.155 HD
ENDROOT
BRANCH   3   5
ATOM      5  C   UNL     1       1.572   9.269  18.928  0.00  0.00    +0.034 A 
ATOM      6  C   UNL     1       2.450   9.995  18.120  0.00  0.00    -0.040 A 
ATOM      7  C   UNL     1       2.269  11.368  17.933  0.00  0.00    -0.059 A 
ATOM      8  C   UNL     1       1.196  12.024  18.538  0.00  0.00    -0.051 A 
ATOM      9  C   UNL     1       0.301  11.309  19.334  0.00  0.00    +0.021 A 
ATOM     10  C   UNL     1       0.508   9.940  19.545  0.00  0.00    -0.030 A 
ATOM     11  H   UNL     1       3.304   9.522  17.638  0.00  0.00    +0.064 HD
ATOM     12  H   UNL     1       2.974  11.925  17.319  0.00  0.00    +0.062 HD
ATOM     13  H   UNL     1       1.075  13.094  18.391  0.00  0.00    +0.062 HD
ATOM     14  H   UNL     1      -0.181   9.402  20.192  0.00  0.00    +0.064 HD
BRANCH   9  15
ATOM     15  C   UNL     1      -0.843  11.958  19.961  0.00  0.00    +0.164 A 
ATOM     16  N   UNL     1      -0.914  12.332  21.223  0.00  0.00    -0.129 NA
ATOM     17  N   UNL     1      -2.167  12.839  21.458  0.00  0.00    -0.134 NA
ATOM     18  C   UNL     1      -2.855  12.752  20.345  0.00  0.00    +0.134 A 
ATOM     19  N   UNL     1      -2.062  12.201  19.373  0.00  0.00    -0.311 N 
ATOM     20  C   UNL     1      -2.495  11.857  18.039  0.00  0.00    +0.026 C 
ATOM     21  C   UNL     1      -3.636  10.836  18.018  0.00  0.00    -0.035 C 
ATOM     22  C   UNL     1      -5.003  11.422  18.377  0.00  0.00    -0.051 C 
ATOM     23  C   UNL     1      -5.145  11.906  19.821  0.00  0.00    -0.046 C 
ATOM     24  C   UNL     1      -4.281  13.121  20.155  0.00  0.00    +0.007 C 
ATOM     25  H   UNL     1      -2.784  12.788  17.535  0.00  0.00    +0.049 HD
ATOM     26  H   UNL     1      -1.644  11.440  17.490  0.00  0.00    +0.049 HD
ATOM     27  H   UNL     1      -3.711  10.428  16.999  0.00  0.00    +0.028 HD
ATOM     28  H   UNL     1      -3.410   9.989  18.683  0.00  0.00    +0.028 HD
ATOM     29  H   UNL     1      -5.256  12.233  17.684  0.00  0.00    +0.027 HD
ATOM     30  H   UNL     1      -5.757  10.642  18.213  0.00  0.00    +0.027 HD
ATOM     31  H   UNL     1      -4.935  11.081  20.512  0.00  0.00    +0.027 HD
ATOM     32  H   UNL     1      -6.196  12.185  19.972  0.00  0.00    +0.027 HD
ATOM     33  H   UNL     1      -4.647  13.560  21.094  0.00  0.00    +0.034 HD
ATOM     34  H   UNL     1      -4.373  13.899  19.384  0.00  0.00    +0.034 HD
ENDBRANCH   9  15
ENDBRANCH   3   5
BRANCH   2  35
ATOM     35  C   UNL     1       1.770   5.759  20.336  0.00  0.00    +0.037 A 
ATOM     36  C   UNL     1       0.682   4.886  20.457  0.00  0.00    -0.050 A 
ATOM     37  C   UNL     1       0.874   3.509  20.306  0.00  0.00    -0.061 A 
ATOM     38  C   UNL     1       2.149   3.001  20.054  0.00  0.00    -0.057 A 
ATOM     39  C   UNL     1       3.260   3.856  19.983  0.00  0.00    -0.029 A 
ATOM     40  C   UNL     1       3.056   5.240  20.125  0.00  0.00    -0.045 A 
ATOM     41  H   UNL     1      -0.316   5.255  20.677  0.00  0.00    +0.063 HD
ATOM     42  H   UNL     1       0.028   2.827  20.378  0.00  0.00    +0.062 HD
ATOM     43  H   UNL     1       2.263   1.929  19.909  0.00  0.00    +0.062 HD
ATOM     44  H   UNL     1       3.900   5.927  20.056  0.00  0.00    +0.063 HD
BRANCH  39  45
ATOM     45  C   UNL     1       4.647   3.326  19.695  0.00  0.00    +0.048 C 
ATOM     46  H   UNL     1       5.331   3.703  20.464  0.00  0.00    +0.052 HD
ATOM     47  H   UNL     1       4.650   2.230  19.754  0.00  0.00    +0.052 HD
BRANCH  45  48
ATOM     48  N   UNL     1       5.141   3.700  18.386  0.00  0.00    -0.230 N 
ATOM     49  C   UNL     1       6.183   4.560  18.176  0.00  0.00    +0.254 C 
ATOM     50  O   UNL     1       6.856   5.163  18.987  0.00  0.00    -0.270 OA
ATOM     51  C   UNL     1       6.364   4.655  16.728  0.00  0.00    +0.049 A 
ATOM     52  C   UNL     1       7.270   5.387  15.986  0.00  0.00    -0.049 A 
ATOM     53  C   UNL     1       7.199   5.268  14.594  0.00  0.00    -0.061 A 
ATOM     54  C   UNL     1       6.234   4.437  13.988  0.00  0.00    -0.061 A 
ATOM     55  C   UNL     1       5.325   3.707  14.764  0.00  0.00    -0.049 A 
ATOM     56  C   UNL     1       5.418   3.838  16.136  0.00  0.00    +0.049 A 
ATOM     57  C   UNL     1       4.639   3.216  17.208  0.00  0.00    +0.254 C 
ATOM     58  O   UNL     1       3.745   2.415  17.020  0.00  0.00    -0.270 OA
ATOM     59  H   UNL     1       8.006   6.023  16.469  0.00  0.00    +0.063 HD
ATOM     60  H   UNL     1       7.897   5.825  13.970  0.00  0.00    +0.062 HD
ATOM     61  H   UNL     1       6.196   4.363  12.905  0.00  0.00    +0.062 HD
ATOM     62  H   UNL     1       4.575   3.066  14.313  0.00  0.00    +0.063 HD
ENDBRANCH  45  48
ENDBRANCH  39  45
ENDBRANCH   2  35
TORSDOF 5
ENDMDL
MODEL 12
REMARK VINA RESULT:    -8.926      1.888      3.083
REMARK INTER + INTRA:         -11.963
REMARK INTER:                 -10.869
REMARK INTRA:                  -1.094
REMARK UNBOUND:                -0.429
REMARK  Name = 
REMARK  5 active torsions:
REMARK  status: ('A' for Active; 'I' for Inactive)
REMARK    1  A    between atoms: C_2  and  C_20
REMARK    2  A    between atoms: N_3  and  C_4
REMARK    3  A    between atoms: C_8  and  C_9
REMARK    4  A    between atoms: C_24  and  C_25
REMARK    5  A    between atoms: C_25  and  N_26
REMARK                            x       y       z     vdW  Elec       q    Type
REMARK                         _______ _______ _______ _____ _____    ______ ____
ROOT
ATOM      1  O   UNL     1       2.352   8.258  18.527  0.00  0.00    -0.270 OA
ATOM      2  C   UNL     1       1.959   7.819  19.602  0.00  0.00    +0.248 C 
ATOM      3  N   UNL     1       1.233   8.509  20.555  0.00  0.00    -0.281 N 
ATOM      4  H   UNL     1       0.845   7.967  21.319  0.00  0.00    +0.155 HD
ENDROOT
BRANCH   3   5
ATOM      5  C   UNL     1       0.862   9.869  20.533  0.00  0.00    +0.034 A 
ATOM      6  C   UNL     1       1.688  10.914  20.951  0.00  0.00    -0.040 A 
ATOM      7  C   UNL     1       1.237  12.236  20.905  0.00  0.00    -0.059 A 
ATOM      8  C   UNL     1      -0.040  12.526  20.422  0.00  0.00    -0.051 A 
ATOM      9  C   UNL     1      -0.872  11.493  19.985  0.00  0.00    +0.021 A 
ATOM     10  C   UNL     1      -0.424  10.168  20.066  0.00  0.00    -0.030 A 
ATOM     11  H   UNL     1       2.687  10.730  21.343  0.00  0.00    +0.064 HD
ATOM     12  H   UNL     1       1.883  13.038  21.255  0.00  0.00    +0.062 HD
ATOM     13  H   UNL     1      -0.381  13.557  20.401  0.00  0.00    +0.062 HD
ATOM     14  H   UNL     1      -1.095   9.372  19.749  0.00  0.00    +0.064 HD
BRANCH   9  15
ATOM     15  C   UNL     1      -2.201  11.762  19.452  0.00  0.00    +0.164 A 
ATOM     16  N   UNL     1      -3.271  12.036  20.171  0.00  0.00    -0.129 NA
ATOM     17  N   UNL     1      -4.345  12.159  19.325  0.00  0.00    -0.134 NA
ATOM     18  C   UNL     1      -3.925  11.940  18.103  0.00  0.00    +0.134 A 
ATOM     19  N   UNL     1      -2.578  11.684  18.132  0.00  0.00    -0.311 N 
ATOM     20  C   UNL     1      -1.776  11.303  16.995  0.00  0.00    +0.026 C 
ATOM     21  C   UNL     1      -2.246  10.006  16.330  0.00  0.00    -0.035 C 
ATOM     22  C   UNL     1      -3.501  10.166  15.470  0.00  0.00    -0.051 C 
ATOM     23  C   UNL     1      -4.777  10.515  16.238  0.00  0.00    -0.046 C 
ATOM     24  C   UNL     1      -4.757  11.905  16.873  0.00  0.00    +0.007 C 
ATOM     25  H   UNL     1      -1.788  12.141  16.286  0.00  0.00    +0.049 HD
ATOM     26  H   UNL     1      -0.739  11.171  17.324  0.00  0.00    +0.049 HD
ATOM     27  H   UNL     1      -1.441   9.646  15.673  0.00  0.00    +0.028 HD
ATOM     28  H   UNL     1      -2.412   9.223  17.086  0.00  0.00    +0.028 HD
ATOM     29  H   UNL     1      -3.323  10.909  14.683  0.00  0.00    +0.027 HD
ATOM     30  H   UNL     1      -3.676   9.216  14.951  0.00  0.00    +0.027 HD
ATOM     31  H   UNL     1      -4.977   9.747  16.995  0.00  0.00    +0.027 HD
ATOM     32  H   UNL     1      -5.610  10.481  15.523  0.00  0.00    +0.027 HD
ATOM     33  H   UNL     1      -5.786  12.174  17.151  0.00  0.00    +0.034 HD
ATOM     34  H   UNL     1      -4.412  12.665  16.158  0.00  0.00    +0.034 HD
ENDBRANCH   9  15
ENDBRANCH   3   5
BRANCH   2  35
ATOM     35  C   UNL     1       2.187   6.376  19.917  0.00  0.00    +0.037 A 
ATOM     36  C   UNL     1       1.175   5.561  20.438  0.00  0.00    -0.050 A 
ATOM     37  C   UNL     1       1.412   4.197  20.638  0.00  0.00    -0.061 A 
ATOM     38  C   UNL     1       2.660   3.650  20.339  0.00  0.00    -0.057 A 
ATOM     39  C   UNL     1       3.704   4.462  19.867  0.00  0.00    -0.029 A 
ATOM     40  C   UNL     1       3.454   5.829  19.658  0.00  0.00    -0.045 A 
ATOM     41  H   UNL     1       0.202   5.968  20.701  0.00  0.00    +0.063 HD
ATOM     42  H   UNL     1       0.621   3.555  21.022  0.00  0.00    +0.062 HD
ATOM     43  H   UNL     1       2.806   2.581  20.473  0.00  0.00    +0.062 HD
ATOM     44  H   UNL     1       4.242   6.477  19.275  0.00  0.00    +0.063 HD
BRANCH  39  45
ATOM     45  C   UNL     1       5.058   3.883  19.522  0.00  0.00    +0.048 C 
ATOM     46  H   UNL     1       5.814   4.368  20.150  0.00  0.00    +0.052 HD
ATOM     47  H   UNL     1       5.077   2.809  19.746  0.00  0.00    +0.052 HD
BRANCH  45  48
ATOM     48  N   UNL     1       5.412   4.050  18.127  0.00  0.00    -0.230 N 
ATOM     49  C   UNL     1       6.561   4.650  17.694  0.00  0.00    +0.254 C 
ATOM     50  O   UNL     1       7.458   5.151  18.342  0.00  0.00    -0.270 OA
ATOM     51  C   UNL     1       6.535   4.602  16.233  0.00  0.00    +0.049 A 
ATOM     52  C   UNL     1       7.446   5.070  15.305  0.00  0.00    -0.049 A 
ATOM     53  C   UNL     1       7.142   4.871  13.955  0.00  0.00    -0.061 A 
ATOM     54  C   UNL     1       5.948   4.226  13.570  0.00  0.00    -0.061 A 
ATOM     55  C   UNL     1       5.039   3.763  14.531  0.00  0.00    -0.049 A 
ATOM     56  C   UNL     1       5.365   3.967  15.858  0.00  0.00    +0.049 A 
ATOM     57  C   UNL     1       4.649   3.603  17.082  0.00  0.00    +0.254 C 
ATOM     58  O   UNL     1       3.594   3.001  17.097  0.00  0.00    -0.270 OA
ATOM     59  H   UNL     1       8.360   5.566  15.619  0.00  0.00    +0.063 HD
ATOM     60  H   UNL     1       7.834   5.221  13.190  0.00  0.00    +0.062 HD
ATOM     61  H   UNL     1       5.731   4.086  12.515  0.00  0.00    +0.062 HD
ATOM     62  H   UNL     1       4.116   3.267  14.252  0.00  0.00    +0.063 HD
ENDBRANCH  45  48
ENDBRANCH  39  45
ENDBRANCH   2  35
TORSDOF 5
ENDMDL
MODEL 13
REMARK VINA RESULT:    -8.835      3.390     10.533
REMARK INTER + INTRA:         -11.846
REMARK INTER:                 -10.798
REMARK INTRA:                  -1.048
REMARK UNBOUND:                -0.429
REMARK  Name = 
REMARK  5 active torsions:
REMARK  status: ('A' for Active; 'I' for Inactive)
REMARK    1  A    between atoms: C_2  and  C_20
REMARK    2  A    between atoms: N_3  and  C_4
REMARK    3  A    between atoms: C_8  and  C_9
REMARK    4  A    between atoms: C_24  and  C_25
REMARK    5  A    between atoms: C_25  and  N_26
REMARK                            x       y       z     vdW  Elec       q    Type
REMARK                         _______ _______ _______ _____ _____    ______ ____
ROOT
ATOM      1  O   UNL     1       1.295   8.934  21.765  0.00  0.00    -0.270 OA
ATOM      2  C   UNL     1       1.195   9.029  20.548  0.00  0.00    +0.248 C 
ATOM      3  N   UNL     1       1.523   8.060  19.618  0.00  0.00    -0.281 N 
ATOM      4  H   UNL     1       1.237   8.226  18.660  0.00  0.00    +0.155 HD
ENDROOT
BRANCH   3   5
ATOM      5  C   UNL     1       2.107   6.800  19.862  0.00  0.00    +0.034 A 
ATOM      6  C   UNL     1       1.504   5.787  20.610  0.00  0.00    -0.040 A 
ATOM      7  C   UNL     1       2.159   4.569  20.812  0.00  0.00    -0.059 A 
ATOM      8  C   UNL     1       3.419   4.348  20.252  0.00  0.00    -0.051 A 
ATOM      9  C   UNL     1       4.028   5.345  19.489  0.00  0.00    +0.021 A 
ATOM     10  C   UNL     1       3.379   6.575  19.319  0.00  0.00    -0.030 A 
ATOM     11  H   UNL     1       0.527   5.923  21.071  0.00  0.00    +0.064 HD
ATOM     12  H   UNL     1       1.687   3.797  21.415  0.00  0.00    +0.062 HD
ATOM     13  H   UNL     1       3.920   3.401  20.427  0.00  0.00    +0.062 HD
ATOM     14  H   UNL     1       3.879   7.353  18.746  0.00  0.00    +0.064 HD
BRANCH   9  15
ATOM     15  C   UNL     1       5.331   5.139  18.871  0.00  0.00    +0.164 A 
ATOM     16  N   UNL     1       6.482   5.564  19.352  0.00  0.00    -0.129 NA
ATOM     17  N   UNL     1       7.473   5.242  18.460  0.00  0.00    -0.134 NA
ATOM     18  C   UNL     1       6.917   4.642  17.435  0.00  0.00    +0.134 A 
ATOM     19  N   UNL     1       5.566   4.555  17.648  0.00  0.00    -0.311 N 
ATOM     20  C   UNL     1       4.604   4.045  16.701  0.00  0.00    +0.026 C 
ATOM     21  C   UNL     1       4.583   4.821  15.381  0.00  0.00    -0.035 C 
ATOM     22  C   UNL     1       5.756   4.502  14.453  0.00  0.00    -0.051 C 
ATOM     23  C   UNL     1       7.130   4.941  14.965  0.00  0.00    -0.046 C 
ATOM     24  C   UNL     1       7.603   4.178  16.202  0.00  0.00    +0.007 C 
ATOM     25  H   UNL     1       4.832   2.984  16.537  0.00  0.00    +0.049 HD
ATOM     26  H   UNL     1       3.606   4.096  17.152  0.00  0.00    +0.049 HD
ATOM     27  H   UNL     1       3.659   4.559  14.844  0.00  0.00    +0.028 HD
ATOM     28  H   UNL     1       4.543   5.904  15.570  0.00  0.00    +0.028 HD
ATOM     29  H   UNL     1       5.769   3.430  14.220  0.00  0.00    +0.027 HD
ATOM     30  H   UNL     1       5.579   5.014  13.499  0.00  0.00    +0.027 HD
ATOM     31  H   UNL     1       7.128   6.022  15.155  0.00  0.00    +0.027 HD
ATOM     32  H   UNL     1       7.853   4.763  14.159  0.00  0.00    +0.027 HD
ATOM     33  H   UNL     1       8.681   4.353  16.326  0.00  0.00    +0.034 HD
ATOM     34  H   UNL     1       7.469   3.095  16.076  0.00  0.00    +0.034 HD
ENDBRANCH   9  15
ENDBRANCH   3   5
BRANCH   2  35
ATOM     35  C   UNL     1       0.583  10.265  19.970  0.00  0.00    +0.037 A 
ATOM     36  C   UNL     1      -0.471  10.209  19.049  0.00  0.00    -0.050 A 
ATOM     37  C   UNL     1      -1.067  11.392  18.600  0.00  0.00    -0.061 A 
ATOM     38  C   UNL     1      -0.602  12.627  19.052  0.00  0.00    -0.057 A 
ATOM     39  C   UNL     1       0.489  12.705  19.932  0.00  0.00    -0.029 A 
ATOM     40  C   UNL     1       1.074  11.511  20.387  0.00  0.00    -0.045 A 
ATOM     41  H   UNL     1      -0.835   9.260  18.664  0.00  0.00    +0.063 HD
ATOM     42  H   UNL     1      -1.900  11.354  17.901  0.00  0.00    +0.062 HD
ATOM     43  H   UNL     1      -1.106  13.529  18.711  0.00  0.00    +0.062 HD
ATOM     44  H   UNL     1       1.911  11.543  21.086  0.00  0.00    +0.063 HD
BRANCH  39  45
ATOM     45  C   UNL     1       0.996  14.035  20.445  0.00  0.00    +0.048 C 
ATOM     46  H   UNL     1       0.347  14.828  20.058  0.00  0.00    +0.052 HD
ATOM     47  H   UNL     1       0.939  14.062  21.540  0.00  0.00    +0.052 HD
BRANCH  45  48
ATOM     48  N   UNL     1       2.367  14.308  20.066  0.00  0.00    -0.230 N 
ATOM     49  C   UNL     1       2.814  14.340  18.775  0.00  0.00    +0.254 C 
ATOM     50  O   UNL     1       2.202  14.144  17.745  0.00  0.00    -0.270 OA
ATOM     51  C   UNL     1       4.240  14.657  18.833  0.00  0.00    +0.049 A 
ATOM     52  C   UNL     1       5.166  14.805  17.818  0.00  0.00    -0.049 A 
ATOM     53  C   UNL     1       6.477  15.118  18.190  0.00  0.00    -0.061 A 
ATOM     54  C   UNL     1       6.827  15.267  19.548  0.00  0.00    -0.061 A 
ATOM     55  C   UNL     1       5.869  15.109  20.558  0.00  0.00    -0.049 A 
ATOM     56  C   UNL     1       4.581  14.805  20.164  0.00  0.00    +0.049 A 
ATOM     57  C   UNL     1       3.368  14.589  20.956  0.00  0.00    +0.254 C 
ATOM     58  O   UNL     1       3.324  14.679  22.167  0.00  0.00    -0.270 OA
ATOM     59  H   UNL     1       4.879  14.685  16.777  0.00  0.00    +0.063 HD
ATOM     60  H   UNL     1       7.239  15.247  17.421  0.00  0.00    +0.062 HD
ATOM     61  H   UNL     1       7.853  15.506  19.814  0.00  0.00    +0.062 HD
ATOM     62  H   UNL     1       6.123  15.218  21.607  0.00  0.00    +0.063 HD
ENDBRANCH  45  48
ENDBRANCH  39  45
ENDBRANCH   2  35
TORSDOF 5
ENDMDL
MODEL 14
REMARK VINA RESULT:    -8.787      5.895     10.483
REMARK INTER + INTRA:         -11.784
REMARK INTER:                 -10.886
REMARK INTRA:                  -0.898
REMARK UNBOUND:                -0.429
REMARK  Name = 
REMARK  5 active torsions:
REMARK  status: ('A' for Active; 'I' for Inactive)
REMARK    1  A    between atoms: C_2  and  C_20
REMARK    2  A    between atoms: N_3  and  C_4
REMARK    3  A    between atoms: C_8  and  C_9
REMARK    4  A    between atoms: C_24  and  C_25
REMARK    5  A    between atoms: C_25  and  N_26
REMARK                            x       y       z     vdW  Elec       q    Type
REMARK                         _______ _______ _______ _____ _____    ______ ____
ROOT
ATOM      1  O   UNL     1       8.726   7.582  19.000  0.00  0.00    -0.270 OA
ATOM      2  C   UNL     1       8.180   8.391  18.260  0.00  0.00    +0.248 C 
ATOM      3  N   UNL     1       7.179   8.123  17.344  0.00  0.00    -0.281 N 
ATOM      4  H   UNL     1       6.719   8.920  16.920  0.00  0.00    +0.155 HD
ENDROOT
BRANCH   3   5
ATOM      5  C   UNL     1       6.634   6.866  17.014  0.00  0.00    +0.034 A 
ATOM      6  C   UNL     1       7.290   5.904  16.244  0.00  0.00    -0.040 A 
ATOM      7  C   UNL     1       6.672   4.685  15.955  0.00  0.00    -0.059 A 
ATOM      8  C   UNL     1       5.395   4.410  16.448  0.00  0.00    -0.051 A 
ATOM      9  C   UNL     1       4.732   5.356  17.233  0.00  0.00    +0.021 A 
ATOM     10  C   UNL     1       5.346   6.588  17.490  0.00  0.00    -0.030 A 
ATOM     11  H   UNL     1       8.282   6.083  15.833  0.00  0.00    +0.064 HD
ATOM     12  H   UNL     1       7.186   3.954  15.335  0.00  0.00    +0.062 HD
ATOM     13  H   UNL     1       4.922   3.463  16.206  0.00  0.00    +0.062 HD
ATOM     14  H   UNL     1       4.804   7.327  18.078  0.00  0.00    +0.064 HD
BRANCH   9  15
ATOM     15  C   UNL     1       3.410   5.092  17.784  0.00  0.00    +0.164 A 
ATOM     16  N   UNL     1       2.388   5.924  17.751  0.00  0.00    -0.129 NA
ATOM     17  N   UNL     1       1.340   5.355  18.429  0.00  0.00    -0.134 NA
ATOM     18  C   UNL     1       1.737   4.192  18.887  0.00  0.00    +0.134 A 
ATOM     19  N   UNL     1       3.037   3.983  18.506  0.00  0.00    -0.311 N 
ATOM     20  C   UNL     1       3.851   2.859  18.901  0.00  0.00    +0.026 C 
ATOM     21  C   UNL     1       4.030   2.744  20.418  0.00  0.00    -0.035 C 
ATOM     22  C   UNL     1       2.806   2.192  21.150  0.00  0.00    -0.051 C 
ATOM     23  C   UNL     1       1.571   3.095  21.124  0.00  0.00    -0.046 C 
ATOM     24  C   UNL     1       0.952   3.260  19.736  0.00  0.00    +0.007 C 
ATOM     25  H   UNL     1       3.390   1.954  18.484  0.00  0.00    +0.049 HD
ATOM     26  H   UNL     1       4.840   2.961  18.440  0.00  0.00    +0.049 HD
ATOM     27  H   UNL     1       4.867   2.056  20.613  0.00  0.00    +0.028 HD
ATOM     28  H   UNL     1       4.313   3.717  20.848  0.00  0.00    +0.028 HD
ATOM     29  H   UNL     1       2.552   1.200  20.758  0.00  0.00    +0.027 HD
ATOM     30  H   UNL     1       3.083   2.039  22.200  0.00  0.00    +0.027 HD
ATOM     31  H   UNL     1       1.816   4.073  21.556  0.00  0.00    +0.027 HD
ATOM     32  H   UNL     1       0.817   2.638  21.779  0.00  0.00    +0.027 HD
ATOM     33  H   UNL     1      -0.058   3.676  19.854  0.00  0.00    +0.034 HD
ATOM     34  H   UNL     1       0.840   2.290  19.233  0.00  0.00    +0.034 HD
ENDBRANCH   9  15
ENDBRANCH   3   5
BRANCH   2  35
ATOM     35  C   UNL     1       8.538   9.838  18.385  0.00  0.00    +0.037 A 
ATOM     36  C   UNL     1       8.347  10.743  17.335  0.00  0.00    -0.050 A 
ATOM     37  C   UNL     1       8.618  12.102  17.528  0.00  0.00    -0.061 A 
ATOM     38  C   UNL     1       9.098  12.554  18.757  0.00  0.00    -0.057 A 
ATOM     39  C   UNL     1       9.348  11.653  19.804  0.00  0.00    -0.029 A 
ATOM     40  C   UNL     1       9.062  10.291  19.606  0.00  0.00    -0.045 A 
ATOM     41  H   UNL     1       7.997  10.411  16.361  0.00  0.00    +0.063 HD
ATOM     42  H   UNL     1       8.450  12.813  16.721  0.00  0.00    +0.062 HD
ATOM     43  H   UNL     1       9.270  13.620  18.888  0.00  0.00    +0.062 HD
ATOM     44  H   UNL     1       9.230   9.574  20.410  0.00  0.00    +0.063 HD
BRANCH  39  45
ATOM     45  C   UNL     1       9.853  12.128  21.149  0.00  0.00    +0.048 C 
ATOM     46  H   UNL     1      10.306  11.277  21.671  0.00  0.00    +0.052 HD
ATOM     47  H   UNL     1      10.632  12.888  21.011  0.00  0.00    +0.052 HD
BRANCH  45  48
ATOM     48  N   UNL     1       8.815  12.704  21.978  0.00  0.00    -0.230 N 
ATOM     49  C   UNL     1       8.179  12.035  22.987  0.00  0.00    +0.254 C 
ATOM     50  O   UNL     1       8.329  10.890  23.363  0.00  0.00    -0.270 OA
ATOM     51  C   UNL     1       7.220  12.971  23.572  0.00  0.00    +0.049 A 
ATOM     52  C   UNL     1       6.326  12.802  24.612  0.00  0.00    -0.049 A 
ATOM     53  C   UNL     1       5.529  13.899  24.953  0.00  0.00    -0.061 A 
ATOM     54  C   UNL     1       5.638  15.118  24.251  0.00  0.00    -0.061 A 
ATOM     55  C   UNL     1       6.552  15.262  23.198  0.00  0.00    -0.049 A 
ATOM     56  C   UNL     1       7.331  14.165  22.885  0.00  0.00    +0.049 A 
ATOM     57  C   UNL     1       8.367  13.993  21.865  0.00  0.00    +0.254 C 
ATOM     58  O   UNL     1       8.728  14.872  21.109  0.00  0.00    -0.270 OA
ATOM     59  H   UNL     1       6.254  11.856  25.141  0.00  0.00    +0.063 HD
ATOM     60  H   UNL     1       4.813  13.812  25.769  0.00  0.00    +0.062 HD
ATOM     61  H   UNL     1       5.006  15.956  24.531  0.00  0.00    +0.062 HD
ATOM     62  H   UNL     1       6.646  16.191  22.648  0.00  0.00    +0.063 HD
ENDBRANCH  45  48
ENDBRANCH  39  45
ENDBRANCH   2  35
TORSDOF 5
ENDMDL
MODEL 15
REMARK VINA RESULT:    -8.744      3.301     10.434
REMARK INTER + INTRA:         -11.729
REMARK INTER:                 -10.681
REMARK INTRA:                  -1.048
REMARK UNBOUND:                -0.429
REMARK  Name = 
REMARK  5 active torsions:
REMARK  status: ('A' for Active; 'I' for Inactive)
REMARK    1  A    between atoms: C_2  and  C_20
REMARK    2  A    between atoms: N_3  and  C_4
REMARK    3  A    between atoms: C_8  and  C_9
REMARK    4  A    between atoms: C_24  and  C_25
REMARK    5  A    between atoms: C_25  and  N_26
REMARK                            x       y       z     vdW  Elec       q    Type
REMARK                         _______ _______ _______ _____ _____    ______ ____
ROOT
ATOM      1  O   UNL     1       1.539   8.928  21.872  0.00  0.00    -0.270 OA
ATOM      2  C   UNL     1       1.219   8.936  20.689  0.00  0.00    +0.248 C 
ATOM      3  N   UNL     1       1.366   7.895  19.790  0.00  0.00    -0.281 N 
ATOM      4  H   UNL     1       0.910   7.996  18.891  0.00  0.00    +0.155 HD
ENDROOT
BRANCH   3   5
ATOM      5  C   UNL     1       1.980   6.647  20.018  0.00  0.00    +0.034 A 
ATOM      6  C   UNL     1       1.393   5.603  20.736  0.00  0.00    -0.040 A 
ATOM      7  C   UNL     1       2.078   4.399  20.923  0.00  0.00    -0.059 A 
ATOM      8  C   UNL     1       3.351   4.222  20.378  0.00  0.00    -0.051 A 
ATOM      9  C   UNL     1       3.944   5.251  19.644  0.00  0.00    +0.021 A 
ATOM     10  C   UNL     1       3.265   6.466  19.490  0.00  0.00    -0.030 A 
ATOM     11  H   UNL     1       0.407   5.703  21.184  0.00  0.00    +0.064 HD
ATOM     12  H   UNL     1       1.618   3.602  21.503  0.00  0.00    +0.062 HD
ATOM     13  H   UNL     1       3.875   3.285  20.540  0.00  0.00    +0.062 HD
ATOM     14  H   UNL     1       3.753   7.269  18.941  0.00  0.00    +0.064 HD
BRANCH   9  15
ATOM     15  C   UNL     1       5.261   5.092  19.041  0.00  0.00    +0.164 A 
ATOM     16  N   UNL     1       6.396   5.512  19.563  0.00  0.00    -0.129 NA
ATOM     17  N   UNL     1       7.408   5.245  18.676  0.00  0.00    -0.134 NA
ATOM     18  C   UNL     1       6.880   4.684  17.614  0.00  0.00    +0.134 A 
ATOM     19  N   UNL     1       5.527   4.567  17.798  0.00  0.00    -0.311 N 
ATOM     20  C   UNL     1       4.590   4.087  16.812  0.00  0.00    +0.026 C 
ATOM     21  C   UNL     1       4.581   4.921  15.528  0.00  0.00    -0.035 C 
ATOM     22  C   UNL     1       5.775   4.662  14.608  0.00  0.00    -0.051 C 
ATOM     23  C   UNL     1       7.132   5.097  15.165  0.00  0.00    -0.046 C 
ATOM     24  C   UNL     1       7.595   4.286  16.375  0.00  0.00    +0.007 C 
ATOM     25  H   UNL     1       4.837   3.038  16.604  0.00  0.00    +0.049 HD
ATOM     26  H   UNL     1       3.583   4.103  17.246  0.00  0.00    +0.049 HD
ATOM     27  H   UNL     1       3.671   4.670  14.963  0.00  0.00    +0.028 HD
ATOM     28  H   UNL     1       4.521   5.994  15.765  0.00  0.00    +0.028 HD
ATOM     29  H   UNL     1       5.809   3.602  14.328  0.00  0.00    +0.027 HD
ATOM     30  H   UNL     1       5.607   5.214  13.675  0.00  0.00    +0.027 HD
ATOM     31  H   UNL     1       7.110   6.168  15.403  0.00  0.00    +0.027 HD
ATOM     32  H   UNL     1       7.873   4.966  14.365  0.00  0.00    +0.027 HD
ATOM     33  H   UNL     1       8.668   4.471  16.526  0.00  0.00    +0.034 HD
ATOM     34  H   UNL     1       7.480   3.208  16.198  0.00  0.00    +0.034 HD
ENDBRANCH   9  15
ENDBRANCH   3   5
BRANCH   2  35
ATOM     35  C   UNL     1       0.516  10.136  20.142  0.00  0.00    +0.037 A 
ATOM     36  C   UNL     1      -0.596  10.024  19.298  0.00  0.00    -0.050 A 
ATOM     37  C   UNL     1      -1.272  11.175  18.879  0.00  0.00    -0.061 A 
ATOM     38  C   UNL     1      -0.829  12.435  19.282  0.00  0.00    -0.057 A 
ATOM     39  C   UNL     1       0.316  12.570  20.084  0.00  0.00    -0.029 A 
ATOM     40  C   UNL     1       0.982  11.408  20.510  0.00  0.00    -0.045 A 
ATOM     41  H   UNL     1      -0.945   9.055  18.950  0.00  0.00    +0.063 HD
ATOM     42  H   UNL     1      -2.149  11.092  18.240  0.00  0.00    +0.062 HD
ATOM     43  H   UNL     1      -1.393  13.310  18.968  0.00  0.00    +0.062 HD
ATOM     44  H   UNL     1       1.862  11.485  21.148  0.00  0.00    +0.063 HD
BRANCH  39  45
ATOM     45  C   UNL     1       0.800  13.927  20.545  0.00  0.00    +0.048 C 
ATOM     46  H   UNL     1       0.120  14.691  20.154  0.00  0.00    +0.052 HD
ATOM     47  H   UNL     1       0.773  13.984  21.640  0.00  0.00    +0.052 HD
BRANCH  45  48
ATOM     48  N   UNL     1       2.153  14.225  20.120  0.00  0.00    -0.230 N 
ATOM     49  C   UNL     1       3.159  14.596  20.968  0.00  0.00    +0.254 C 
ATOM     50  O   UNL     1       3.128  14.760  22.171  0.00  0.00    -0.270 OA
ATOM     51  C   UNL     1       4.351  14.789  20.145  0.00  0.00    +0.049 A 
ATOM     52  C   UNL     1       5.632  15.169  20.500  0.00  0.00    -0.049 A 
ATOM     53  C   UNL     1       6.577  15.265  19.474  0.00  0.00    -0.061 A 
ATOM     54  C   UNL     1       6.222  14.991  18.137  0.00  0.00    -0.061 A 
ATOM     55  C   UNL     1       4.916  14.611  17.803  0.00  0.00    -0.049 A 
ATOM     56  C   UNL     1       4.002  14.518  18.836  0.00  0.00    +0.049 A 
ATOM     57  C   UNL     1       2.587  14.144  18.824  0.00  0.00    +0.254 C 
ATOM     58  O   UNL     1       1.980  13.815  17.825  0.00  0.00    -0.270 OA
ATOM     59  H   UNL     1       5.887  15.377  21.535  0.00  0.00    +0.063 HD
ATOM     60  H   UNL     1       7.599  15.558  19.710  0.00  0.00    +0.062 HD
ATOM     61  H   UNL     1       6.972  15.077  17.355  0.00  0.00    +0.062 HD
ATOM     62  H   UNL     1       4.627  14.399  16.780  0.00  0.00    +0.063 HD
ENDBRANCH  45  48
ENDBRANCH  39  45
ENDBRANCH   2  35
TORSDOF 5
ENDMDL
MODEL 16
REMARK VINA RESULT:    -8.692      2.674     10.430
REMARK INTER + INTRA:         -11.661
REMARK INTER:                 -11.493
REMARK INTRA:                  -0.168
REMARK UNBOUND:                -0.429
REMARK  Name = 
REMARK  5 active torsions:
REMARK  status: ('A' for Active; 'I' for Inactive)
REMARK    1  A    between atoms: C_2  and  C_20
REMARK    2  A    between atoms: N_3  and  C_4
REMARK    3  A    between atoms: C_8  and  C_9
REMARK    4  A    between atoms: C_24  and  C_25
REMARK    5  A    between atoms: C_25  and  N_26
REMARK                            x       y       z     vdW  Elec       q    Type
REMARK                         _______ _______ _______ _____ _____    ______ ____
ROOT
ATOM      1  O   UNL     1       2.267   7.912  19.757  0.00  0.00    -0.270 OA
ATOM      2  C   UNL     1       1.533   7.603  20.688  0.00  0.00    +0.248 C 
ATOM      3  N   UNL     1       1.390   6.342  21.239  0.00  0.00    -0.281 N 
ATOM      4  H   UNL     1       0.867   6.275  22.104  0.00  0.00    +0.155 HD
ENDROOT
BRANCH   3   5
ATOM      5  C   UNL     1       1.989   5.143  20.802  0.00  0.00    +0.034 A 
ATOM      6  C   UNL     1       1.975   3.949  21.527  0.00  0.00    -0.040 A 
ATOM      7  C   UNL     1       2.604   2.807  21.024  0.00  0.00    -0.059 A 
ATOM      8  C   UNL     1       3.238   2.844  19.781  0.00  0.00    -0.051 A 
ATOM      9  C   UNL     1       3.247   4.026  19.037  0.00  0.00    +0.021 A 
ATOM     10  C   UNL     1       2.644   5.175  19.564  0.00  0.00    -0.030 A 
ATOM     11  H   UNL     1       1.500   3.881  22.504  0.00  0.00    +0.064 HD
ATOM     12  H   UNL     1       2.604   1.891  21.609  0.00  0.00    +0.062 HD
ATOM     13  H   UNL     1       3.731   1.952  19.407  0.00  0.00    +0.062 HD
ATOM     14  H   UNL     1       2.684   6.096  18.986  0.00  0.00    +0.064 HD
BRANCH   9  15
ATOM     15  C   UNL     1       3.878   4.093  17.726  0.00  0.00    +0.164 A 
ATOM     16  N   UNL     1       3.807   3.163  16.794  0.00  0.00    -0.129 NA
ATOM     17  N   UNL     1       4.584   3.550  15.732  0.00  0.00    -0.134 NA
ATOM     18  C   UNL     1       5.138   4.700  16.032  0.00  0.00    +0.134 A 
ATOM     19  N   UNL     1       4.723   5.083  17.281  0.00  0.00    -0.311 N 
ATOM     20  C   UNL     1       5.193   6.245  17.996  0.00  0.00    +0.026 C 
ATOM     21  C   UNL     1       6.704   6.234  18.244  0.00  0.00    -0.035 C 
ATOM     22  C   UNL     1       7.540   6.580  17.010  0.00  0.00    -0.051 C 
ATOM     23  C   UNL     1       7.478   5.557  15.874  0.00  0.00    -0.046 C 
ATOM     24  C   UNL     1       6.108   5.459  15.202  0.00  0.00    +0.007 C 
ATOM     25  H   UNL     1       4.889   7.131  17.423  0.00  0.00    +0.049 HD
ATOM     26  H   UNL     1       4.681   6.293  18.964  0.00  0.00    +0.049 HD
ATOM     27  H   UNL     1       6.930   6.986  19.015  0.00  0.00    +0.028 HD
ATOM     28  H   UNL     1       7.023   5.261  18.647  0.00  0.00    +0.028 HD
ATOM     29  H   UNL     1       7.261   7.572  16.635  0.00  0.00    +0.027 HD
ATOM     30  H   UNL     1       8.587   6.662  17.326  0.00  0.00    +0.027 HD
ATOM     31  H   UNL     1       7.799   4.574  16.241  0.00  0.00    +0.027 HD
ATOM     32  H   UNL     1       8.207   5.866  15.114  0.00  0.00    +0.027 HD
ATOM     33  H   UNL     1       6.228   4.928  14.247  0.00  0.00    +0.034 HD
ATOM     34  H   UNL     1       5.710   6.455  14.965  0.00  0.00    +0.034 HD
ENDBRANCH   9  15
ENDBRANCH   3   5
BRANCH   2  35
ATOM     35  C   UNL     1       0.764   8.678  21.387  0.00  0.00    +0.037 A 
ATOM     36  C   UNL     1       0.405   8.576  22.736  0.00  0.00    -0.050 A 
ATOM     37  C   UNL     1      -0.241   9.644  23.368  0.00  0.00    -0.061 A 
ATOM     38  C   UNL     1      -0.547  10.801  22.652  0.00  0.00    -0.057 A 
ATOM     39  C   UNL     1      -0.244  10.900  21.285  0.00  0.00    -0.029 A 
ATOM     40  C   UNL     1       0.415   9.827  20.661  0.00  0.00    -0.045 A 
ATOM     41  H   UNL     1       0.611   7.675  23.309  0.00  0.00    +0.063 HD
ATOM     42  H   UNL     1      -0.503   9.578  24.422  0.00  0.00    +0.062 HD
ATOM     43  H   UNL     1      -1.020  11.628  23.177  0.00  0.00    +0.062 HD
ATOM     44  H   UNL     1       0.678   9.887  19.604  0.00  0.00    +0.063 HD
BRANCH  39  45
ATOM     45  C   UNL     1      -0.554  12.154  20.497  0.00  0.00    +0.048 C 
ATOM     46  H   UNL     1      -0.909  12.923  21.192  0.00  0.00    +0.052 HD
ATOM     47  H   UNL     1       0.358  12.532  20.018  0.00  0.00    +0.052 HD
BRANCH  45  48
ATOM     48  N   UNL     1      -1.544  11.947  19.461  0.00  0.00    -0.230 N 
ATOM     49  C   UNL     1      -1.266  11.435  18.225  0.00  0.00    +0.254 C 
ATOM     50  O   UNL     1      -0.199  11.085  17.761  0.00  0.00    -0.270 OA
ATOM     51  C   UNL     1      -2.533  11.381  17.497  0.00  0.00    +0.049 A 
ATOM     52  C   UNL     1      -2.810  10.952  16.213  0.00  0.00    -0.049 A 
ATOM     53  C   UNL     1      -4.141  11.019  15.791  0.00  0.00    -0.061 A 
ATOM     54  C   UNL     1      -5.147  11.514  16.648  0.00  0.00    -0.061 A 
ATOM     55  C   UNL     1      -4.838  11.945  17.944  0.00  0.00    -0.049 A 
ATOM     56  C   UNL     1      -3.517  11.864  18.339  0.00  0.00    +0.049 A 
ATOM     57  C   UNL     1      -2.878  12.218  19.608  0.00  0.00    +0.254 C 
ATOM     58  O   UNL     1      -3.478  12.645  20.574  0.00  0.00    -0.270 OA
ATOM     59  H   UNL     1      -2.023  10.576  15.567  0.00  0.00    +0.063 HD
ATOM     60  H   UNL     1      -4.405  10.688  14.787  0.00  0.00    +0.062 HD
ATOM     61  H   UNL     1      -6.174  11.560  16.297  0.00  0.00    +0.062 HD
ATOM     62  H   UNL     1      -5.599  12.330  18.614  0.00  0.00    +0.063 HD
ENDBRANCH  45  48
ENDBRANCH  39  45
ENDBRANCH   2  35
TORSDOF 5
ENDMDL
MODEL 17
REMARK VINA RESULT:    -8.520      2.044     11.704
REMARK INTER + INTRA:         -11.439
REMARK INTER:                 -11.176
REMARK INTRA:                  -0.263
REMARK UNBOUND:                -0.429
REMARK  Name = 
REMARK  5 active torsions:
REMARK  status: ('A' for Active; 'I' for Inactive)
REMARK    1  A    between atoms: C_2  and  C_20
REMARK    2  A    between atoms: N_3  and  C_4
REMARK    3  A    between atoms: C_8  and  C_9
REMARK    4  A    between atoms: C_24  and  C_25
REMARK    5  A    between atoms: C_25  and  N_26
REMARK                            x       y       z     vdW  Elec       q    Type
REMARK                         _______ _______ _______ _____ _____    ______ ____
ROOT
ATOM      1  O   UNL     1       2.145   8.631  17.416  0.00  0.00    -0.270 OA
ATOM      2  C   UNL     1       1.621   8.947  18.478  0.00  0.00    +0.248 C 
ATOM      3  N   UNL     1       1.631   8.213  19.650  0.00  0.00    -0.281 N 
ATOM      4  H   UNL     1       1.292   8.676  20.485  0.00  0.00    +0.155 HD
ENDROOT
BRANCH   3   5
ATOM      5  C   UNL     1       2.170   6.926  19.851  0.00  0.00    +0.034 A 
ATOM      6  C   UNL     1       1.516   5.899  20.534  0.00  0.00    -0.040 A 
ATOM      7  C   UNL     1       2.128   4.653  20.697  0.00  0.00    -0.059 A 
ATOM      8  C   UNL     1       3.396   4.419  20.163  0.00  0.00    -0.051 A 
ATOM      9  C   UNL     1       4.057   5.430  19.464  0.00  0.00    +0.021 A 
ATOM     10  C   UNL     1       3.450   6.686  19.334  0.00  0.00    -0.030 A 
ATOM     11  H   UNL     1       0.530   6.044  20.974  0.00  0.00    +0.064 HD
ATOM     12  H   UNL     1       1.616   3.870  21.250  0.00  0.00    +0.062 HD
ATOM     13  H   UNL     1       3.864   3.449  20.306  0.00  0.00    +0.062 HD
ATOM     14  H   UNL     1       3.990   7.474  18.812  0.00  0.00    +0.064 HD
BRANCH   9  15
ATOM     15  C   UNL     1       5.370   5.212  18.872  0.00  0.00    +0.164 A 
ATOM     16  N   UNL     1       6.512   5.646  19.366  0.00  0.00    -0.129 NA
ATOM     17  N   UNL     1       7.519   5.307  18.497  0.00  0.00    -0.134 NA
ATOM     18  C   UNL     1       6.981   4.688  17.474  0.00  0.00    +0.134 A 
ATOM     19  N   UNL     1       5.627   4.605  17.665  0.00  0.00    -0.311 N 
ATOM     20  C   UNL     1       4.681   4.077  16.711  0.00  0.00    +0.026 C 
ATOM     21  C   UNL     1       4.684   4.828  15.377  0.00  0.00    -0.035 C 
ATOM     22  C   UNL     1       5.873   4.491  14.476  0.00  0.00    -0.051 C 
ATOM     23  C   UNL     1       7.237   4.940  15.004  0.00  0.00    -0.046 C 
ATOM     24  C   UNL     1       7.688   4.200  16.263  0.00  0.00    +0.007 C 
ATOM     25  H   UNL     1       4.911   3.013  16.571  0.00  0.00    +0.049 HD
ATOM     26  H   UNL     1       3.675   4.137  17.144  0.00  0.00    +0.049 HD
ATOM     27  H   UNL     1       3.769   4.556  14.829  0.00  0.00    +0.028 HD
ATOM     28  H   UNL     1       4.641   5.915  15.545  0.00  0.00    +0.028 HD
ATOM     29  H   UNL     1       5.890   3.415  14.264  0.00  0.00    +0.027 HD
ATOM     30  H   UNL     1       5.713   4.985  13.509  0.00  0.00    +0.027 HD
ATOM     31  H   UNL     1       7.232   6.024  15.173  0.00  0.00    +0.027 HD
ATOM     32  H   UNL     1       7.975   4.746  14.213  0.00  0.00    +0.027 HD
ATOM     33  H   UNL     1       8.764   4.377  16.402  0.00  0.00    +0.034 HD
ATOM     34  H   UNL     1       7.556   3.115  16.156  0.00  0.00    +0.034 HD
ENDBRANCH   9  15
ENDBRANCH   3   5
BRANCH   2  35
ATOM     35  C   UNL     1       0.971  10.288  18.589  0.00  0.00    +0.037 A 
ATOM     36  C   UNL     1       1.701  11.478  18.479  0.00  0.00    -0.050 A 
ATOM     37  C   UNL     1       1.036  12.709  18.505  0.00  0.00    -0.061 A 
ATOM     38  C   UNL     1      -0.349  12.755  18.661  0.00  0.00    -0.057 A 
ATOM     39  C   UNL     1      -1.092  11.575  18.827  0.00  0.00    -0.029 A 
ATOM     40  C   UNL     1      -0.417  10.342  18.788  0.00  0.00    -0.045 A 
ATOM     41  H   UNL     1       2.784  11.469  18.380  0.00  0.00    +0.063 HD
ATOM     42  H   UNL     1       1.597  13.635  18.398  0.00  0.00    +0.062 HD
ATOM     43  H   UNL     1      -0.843  13.724  18.645  0.00  0.00    +0.062 HD
ATOM     44  H   UNL     1      -0.973   9.411  18.897  0.00  0.00    +0.063 HD
BRANCH  39  45
ATOM     45  C   UNL     1      -2.596  11.605  18.981  0.00  0.00    +0.048 C 
ATOM     46  H   UNL     1      -3.023  12.145  18.129  0.00  0.00    +0.052 HD
ATOM     47  H   UNL     1      -2.996  10.583  18.964  0.00  0.00    +0.052 HD
BRANCH  45  48
ATOM     48  N   UNL     1      -3.032  12.229  20.213  0.00  0.00    -0.230 N 
ATOM     49  C   UNL     1      -2.362  12.133  21.401  0.00  0.00    +0.254 C 
ATOM     50  O   UNL     1      -1.340  11.531  21.660  0.00  0.00    -0.270 OA
ATOM     51  C   UNL     1      -3.125  12.910  22.377  0.00  0.00    +0.049 A 
ATOM     52  C   UNL     1      -2.891  13.136  23.720  0.00  0.00    -0.049 A 
ATOM     53  C   UNL     1      -3.812  13.938  24.402  0.00  0.00    -0.061 A 
ATOM     54  C   UNL     1      -4.931  14.479  23.737  0.00  0.00    -0.061 A 
ATOM     55  C   UNL     1      -5.147  14.232  22.375  0.00  0.00    -0.049 A 
ATOM     56  C   UNL     1      -4.220  13.441  21.723  0.00  0.00    +0.049 A 
ATOM     57  C   UNL     1      -4.152  13.010  20.325  0.00  0.00    +0.254 C 
ATOM     58  O   UNL     1      -4.955  13.335  19.474  0.00  0.00    -0.270 OA
ATOM     59  H   UNL     1      -2.025  12.710  24.217  0.00  0.00    +0.063 HD
ATOM     60  H   UNL     1      -3.664  14.145  25.462  0.00  0.00    +0.062 HD
ATOM     61  H   UNL     1      -5.636  15.096  24.288  0.00  0.00    +0.062 HD
ATOM     62  H   UNL     1      -6.004  14.638  21.849  0.00  0.00    +0.063 HD
ENDBRANCH  45  48
ENDBRANCH  39  45
ENDBRANCH   2  35
TORSDOF 5
ENDMDL
MODEL 18
REMARK VINA RESULT:    -8.401      3.625     10.067
REMARK INTER + INTRA:         -11.286
REMARK INTER:                 -10.852
REMARK INTRA:                  -0.434
REMARK UNBOUND:                -0.429
REMARK  Name = 
REMARK  5 active torsions:
REMARK  status: ('A' for Active; 'I' for Inactive)
REMARK    1  A    between atoms: C_2  and  C_20
REMARK    2  A    between atoms: N_3  and  C_4
REMARK    3  A    between atoms: C_8  and  C_9
REMARK    4  A    between atoms: C_24  and  C_25
REMARK    5  A    between atoms: C_25  and  N_26
REMARK                            x       y       z     vdW  Elec       q    Type
REMARK                         _______ _______ _______ _____ _____    ______ ____
ROOT
ATOM      1  O   UNL     1       0.522   9.210  22.341  0.00  0.00    -0.270 OA
ATOM      2  C   UNL     1       0.293  10.130  21.564  0.00  0.00    +0.248 C 
ATOM      3  N   UNL     1       0.621  10.172  20.221  0.00  0.00    -0.281 N 
ATOM      4  H   UNL     1       0.226  10.930  19.675  0.00  0.00    +0.155 HD
ENDROOT
BRANCH   3   5
ATOM      5  C   UNL     1       1.348   9.215  19.486  0.00  0.00    +0.034 A 
ATOM      6  C   UNL     1       2.039   9.493  18.304  0.00  0.00    -0.040 A 
ATOM      7  C   UNL     1       2.728   8.480  17.631  0.00  0.00    -0.059 A 
ATOM      8  C   UNL     1       2.747   7.182  18.144  0.00  0.00    -0.051 A 
ATOM      9  C   UNL     1       2.075   6.892  19.333  0.00  0.00    +0.021 A 
ATOM     10  C   UNL     1       1.358   7.906  19.983  0.00  0.00    -0.030 A 
ATOM     11  H   UNL     1       2.041  10.489  17.865  0.00  0.00    +0.064 HD
ATOM     12  H   UNL     1       3.242   8.705  16.700  0.00  0.00    +0.062 HD
ATOM     13  H   UNL     1       3.277   6.403  17.605  0.00  0.00    +0.062 HD
ATOM     14  H   UNL     1       0.815   7.658  20.893  0.00  0.00    +0.064 HD
BRANCH   9  15
ATOM     15  C   UNL     1       2.094   5.555  19.910  0.00  0.00    +0.164 A 
ATOM     16  N   UNL     1       2.319   5.272  21.177  0.00  0.00    -0.129 NA
ATOM     17  N   UNL     1       2.327   3.908  21.325  0.00  0.00    -0.134 NA
ATOM     18  C   UNL     1       2.128   3.371  20.145  0.00  0.00    +0.134 A 
ATOM     19  N   UNL     1       1.976   4.371  19.220  0.00  0.00    -0.311 N 
ATOM     20  C   UNL     1       1.835   4.176  17.797  0.00  0.00    +0.026 C 
ATOM     21  C   UNL     1       3.025   3.450  17.164  0.00  0.00    -0.035 C 
ATOM     22  C   UNL     1       3.048   1.944  17.430  0.00  0.00    -0.051 C 
ATOM     23  C   UNL     1       3.274   1.544  18.889  0.00  0.00    -0.046 C 
ATOM     24  C   UNL     1       2.124   1.922  19.821  0.00  0.00    +0.007 C 
ATOM     25  H   UNL     1       0.898   3.628  17.630  0.00  0.00    +0.049 HD
ATOM     26  H   UNL     1       1.727   5.156  17.317  0.00  0.00    +0.049 HD
ATOM     27  H   UNL     1       2.971   3.591  16.074  0.00  0.00    +0.028 HD
ATOM     28  H   UNL     1       3.973   3.900  17.496  0.00  0.00    +0.028 HD
ATOM     29  H   UNL     1       2.126   1.483  17.054  0.00  0.00    +0.027 HD
ATOM     30  H   UNL     1       3.863   1.511  16.837  0.00  0.00    +0.027 HD
ATOM     31  H   UNL     1       4.219   1.969  19.249  0.00  0.00    +0.027 HD
ATOM     32  H   UNL     1       3.388   0.452  18.916  0.00  0.00    +0.027 HD
ATOM     33  H   UNL     1       2.240   1.363  20.760  0.00  0.00    +0.034 HD
ATOM     34  H   UNL     1       1.154   1.629  19.395  0.00  0.00    +0.034 HD
ENDBRANCH   9  15
ENDBRANCH   3   5
BRANCH   2  35
ATOM     35  C   UNL     1      -0.493  11.305  22.051  0.00  0.00    +0.037 A 
ATOM     36  C   UNL     1      -1.455  11.186  23.062  0.00  0.00    -0.050 A 
ATOM     37  C   UNL     1      -2.105  12.328  23.542  0.00  0.00    -0.061 A 
ATOM     38  C   UNL     1      -1.813  13.581  23.003  0.00  0.00    -0.057 A 
ATOM     39  C   UNL     1      -0.892  13.712  21.952  0.00  0.00    -0.029 A 
ATOM     40  C   UNL     1      -0.235  12.561  21.483  0.00  0.00    -0.045 A 
ATOM     41  H   UNL     1      -1.717  10.218  23.481  0.00  0.00    +0.063 HD
ATOM     42  H   UNL     1      -2.837  12.244  24.343  0.00  0.00    +0.062 HD
ATOM     43  H   UNL     1      -2.310  14.455  23.418  0.00  0.00    +0.062 HD
ATOM     44  H   UNL     1       0.498  12.639  20.679  0.00  0.00    +0.063 HD
BRANCH  39  45
ATOM     45  C   UNL     1      -0.551  15.065  21.366  0.00  0.00    +0.048 C 
ATOM     46  H   UNL     1      -1.349  15.356  20.674  0.00  0.00    +0.052 HD
ATOM     47  H   UNL     1      -0.507  15.819  22.162  0.00  0.00    +0.052 HD
BRANCH  45  48
ATOM     48  N   UNL     1       0.719  15.082  20.670  0.00  0.00    -0.230 N 
ATOM     49  C   UNL     1       1.933  15.172  21.291  0.00  0.00    +0.254 C 
ATOM     50  O   UNL     1       2.185  15.267  22.475  0.00  0.00    -0.270 OA
ATOM     51  C   UNL     1       2.947  15.146  20.238  0.00  0.00    +0.049 A 
ATOM     52  C   UNL     1       4.325  15.212  20.320  0.00  0.00    -0.049 A 
ATOM     53  C   UNL     1       5.039  15.159  19.119  0.00  0.00    -0.061 A 
ATOM     54  C   UNL     1       4.368  15.050  17.883  0.00  0.00    -0.061 A 
ATOM     55  C   UNL     1       2.970  14.987  17.828  0.00  0.00    -0.049 A 
ATOM     56  C   UNL     1       2.288  15.036  19.028  0.00  0.00    +0.049 A 
ATOM     57  C   UNL     1       0.852  14.985  19.311  0.00  0.00    +0.254 C 
ATOM     58  O   UNL     1      -0.003  14.858  18.458  0.00  0.00    -0.270 OA
ATOM     59  H   UNL     1       4.825  15.298  21.280  0.00  0.00    +0.063 HD
ATOM     60  H   UNL     1       6.127  15.205  19.138  0.00  0.00    +0.062 HD
ATOM     61  H   UNL     1       4.944  15.015  16.963  0.00  0.00    +0.062 HD
ATOM     62  H   UNL     1       2.439  14.906  16.886  0.00  0.00    +0.063 HD
ENDBRANCH  45  48
ENDBRANCH  39  45
ENDBRANCH   2  35
TORSDOF 5
ENDMDL
MODEL 19
REMARK VINA RESULT:    -8.361      3.723     10.207
REMARK INTER + INTRA:         -11.233
REMARK INTER:                 -10.680
REMARK INTRA:                  -0.553
REMARK UNBOUND:                -0.429
REMARK  Name = 
REMARK  5 active torsions:
REMARK  status: ('A' for Active; 'I' for Inactive)
REMARK    1  A    between atoms: C_2  and  C_20
REMARK    2  A    between atoms: N_3  and  C_4
REMARK    3  A    between atoms: C_8  and  C_9
REMARK    4  A    between atoms: C_24  and  C_25
REMARK    5  A    between atoms: C_25  and  N_26
REMARK                            x       y       z     vdW  Elec       q    Type
REMARK                         _______ _______ _______ _____ _____    ______ ____
ROOT
ATOM      1  O   UNL     1       0.858  10.274  21.480  0.00  0.00    -0.270 OA
ATOM      2  C   UNL     1       0.965  10.368  20.263  0.00  0.00    +0.248 C 
ATOM      3  N   UNL     1       1.262   9.343  19.383  0.00  0.00    -0.281 N 
ATOM      4  H   UNL     1       1.160   9.542  18.394  0.00  0.00    +0.155 HD
ENDROOT
BRANCH   3   5
ATOM      5  C   UNL     1       1.579   8.006  19.699  0.00  0.00    +0.034 A 
ATOM      6  C   UNL     1       1.269   7.393  20.915  0.00  0.00    -0.040 A 
ATOM      7  C   UNL     1       1.629   6.063  21.149  0.00  0.00    -0.059 A 
ATOM      8  C   UNL     1       2.289   5.329  20.162  0.00  0.00    -0.051 A 
ATOM      9  C   UNL     1       2.592   5.924  18.936  0.00  0.00    +0.021 A 
ATOM     10  C   UNL     1       2.257   7.267  18.721  0.00  0.00    -0.030 A 
ATOM     11  H   UNL     1       0.764   7.933  21.713  0.00  0.00    +0.064 HD
ATOM     12  H   UNL     1       1.402   5.605  22.109  0.00  0.00    +0.062 HD
ATOM     13  H   UNL     1       2.572   4.300  20.363  0.00  0.00    +0.062 HD
ATOM     14  H   UNL     1       2.525   7.725  17.771  0.00  0.00    +0.064 HD
BRANCH   9  15
ATOM     15  C   UNL     1       3.257   5.180  17.875  0.00  0.00    +0.164 A 
ATOM     16  N   UNL     1       2.976   3.943  17.517  0.00  0.00    -0.129 NA
ATOM     17  N   UNL     1       3.857   3.563  16.536  0.00  0.00    -0.134 NA
ATOM     18  C   UNL     1       4.679   4.561  16.319  0.00  0.00    +0.134 A 
ATOM     19  N   UNL     1       4.341   5.604  17.142  0.00  0.00    -0.311 N 
ATOM     20  C   UNL     1       5.072   6.842  17.263  0.00  0.00    +0.026 C 
ATOM     21  C   UNL     1       6.522   6.648  17.716  0.00  0.00    -0.035 C 
ATOM     22  C   UNL     1       7.454   6.133  16.618  0.00  0.00    -0.051 C 
ATOM     23  C   UNL     1       7.164   4.712  16.130  0.00  0.00    -0.046 C 
ATOM     24  C   UNL     1       5.836   4.570  15.388  0.00  0.00    +0.007 C 
ATOM     25  H   UNL     1       5.022   7.351  16.292  0.00  0.00    +0.049 HD
ATOM     26  H   UNL     1       4.561   7.482  17.992  0.00  0.00    +0.049 HD
ATOM     27  H   UNL     1       6.911   7.622  18.047  0.00  0.00    +0.028 HD
ATOM     28  H   UNL     1       6.568   5.975  18.586  0.00  0.00    +0.028 HD
ATOM     29  H   UNL     1       7.450   6.828  15.768  0.00  0.00    +0.027 HD
ATOM     30  H   UNL     1       8.477   6.147  17.012  0.00  0.00    +0.027 HD
ATOM     31  H   UNL     1       7.212   4.013  16.974  0.00  0.00    +0.027 HD
ATOM     32  H   UNL     1       7.971   4.431  15.440  0.00  0.00    +0.027 HD
ATOM     33  H   UNL     1       5.843   3.615  14.845  0.00  0.00    +0.034 HD
ATOM     34  H   UNL     1       5.714   5.362  14.636  0.00  0.00    +0.034 HD
ENDBRANCH   9  15
ENDBRANCH   3   5
BRANCH   2  35
ATOM     35  C   UNL     1       0.668  11.681  19.613  0.00  0.00    +0.037 A 
ATOM     36  C   UNL     1      -0.359  11.827  18.672  0.00  0.00    -0.050 A 
ATOM     37  C   UNL     1      -0.653  13.093  18.154  0.00  0.00    -0.061 A 
ATOM     38  C   UNL     1       0.085  14.205  18.556  0.00  0.00    -0.057 A 
ATOM     39  C   UNL     1       1.154  14.069  19.457  0.00  0.00    -0.029 A 
ATOM     40  C   UNL     1       1.435  12.796  19.981  0.00  0.00    -0.045 A 
ATOM     41  H   UNL     1      -0.933  10.972  18.325  0.00  0.00    +0.063 HD
ATOM     42  H   UNL     1      -1.465  13.215  17.438  0.00  0.00    +0.062 HD
ATOM     43  H   UNL     1      -0.187  15.181  18.161  0.00  0.00    +0.062 HD
ATOM     44  H   UNL     1       2.248  12.667  20.697  0.00  0.00    +0.063 HD
BRANCH  39  45
ATOM     45  C   UNL     1       1.955  15.267  19.916  0.00  0.00    +0.048 C 
ATOM     46  H   UNL     1       1.585  16.155  19.393  0.00  0.00    +0.052 HD
ATOM     47  H   UNL     1       1.808  15.428  20.992  0.00  0.00    +0.052 HD
BRANCH  45  48
ATOM     48  N   UNL     1       3.377  15.127  19.681  0.00  0.00    -0.230 N 
ATOM     49  C   UNL     1       3.953  15.119  18.441  0.00  0.00    +0.254 C 
ATOM     50  O   UNL     1       3.427  15.205  17.350  0.00  0.00    -0.270 OA
ATOM     51  C   UNL     1       5.392  14.970  18.647  0.00  0.00    +0.049 A 
ATOM     52  C   UNL     1       6.425  14.901  17.732  0.00  0.00    -0.049 A 
ATOM     53  C   UNL     1       7.720  14.759  18.240  0.00  0.00    -0.061 A 
ATOM     54  C   UNL     1       7.947  14.684  19.630  0.00  0.00    -0.061 A 
ATOM     55  C   UNL     1       6.882  14.754  20.537  0.00  0.00    -0.049 A 
ATOM     56  C   UNL     1       5.613  14.900  20.010  0.00  0.00    +0.049 A 
ATOM     57  C   UNL     1       4.313  15.011  20.674  0.00  0.00    +0.254 C 
ATOM     58  O   UNL     1       4.165  15.016  21.880  0.00  0.00    -0.270 OA
ATOM     59  H   UNL     1       6.232  14.959  16.665  0.00  0.00    +0.063 HD
ATOM     60  H   UNL     1       8.565  14.703  17.554  0.00  0.00    +0.062 HD
ATOM     61  H   UNL     1       8.962  14.570  20.002  0.00  0.00    +0.062 HD
ATOM     62  H   UNL     1       7.039  14.696  21.608  0.00  0.00    +0.063 HD
ENDBRANCH  45  48
ENDBRANCH  39  45
ENDBRANCH   2  35
TORSDOF 5
ENDMDL
MODEL 20
REMARK VINA RESULT:    -8.341      5.729     10.374
REMARK INTER + INTRA:         -11.207
REMARK INTER:                 -11.030
REMARK INTRA:                  -0.177
REMARK UNBOUND:                -0.429
REMARK  Name = 
REMARK  5 active torsions:
REMARK  status: ('A' for Active; 'I' for Inactive)
REMARK    1  A    between atoms: C_2  and  C_20
REMARK    2  A    between atoms: N_3  and  C_4
REMARK    3  A    between atoms: C_8  and  C_9
REMARK    4  A    between atoms: C_24  and  C_25
REMARK    5  A    between atoms: C_25  and  N_26
REMARK                            x       y       z     vdW  Elec       q    Type
REMARK                         _______ _______ _______ _____ _____    ______ ____
ROOT
ATOM      1  O   UNL     1       8.443   7.132  18.966  0.00  0.00    -0.270 OA
ATOM      2  C   UNL     1       8.045   7.896  18.096  0.00  0.00    +0.248 C 
ATOM      3  N   UNL     1       7.245   7.568  17.016  0.00  0.00    -0.281 N 
ATOM      4  H   UNL     1       6.869   8.336  16.472  0.00  0.00    +0.155 HD
ENDROOT
BRANCH   3   5
ATOM      5  C   UNL     1       6.787   6.287  16.647  0.00  0.00    +0.034 A 
ATOM      6  C   UNL     1       7.135   5.642  15.458  0.00  0.00    -0.040 A 
ATOM      7  C   UNL     1       6.627   4.373  15.165  0.00  0.00    -0.059 A 
ATOM      8  C   UNL     1       5.779   3.731  16.068  0.00  0.00    -0.051 A 
ATOM      9  C   UNL     1       5.434   4.356  17.268  0.00  0.00    +0.021 A 
ATOM     10  C   UNL     1       5.921   5.641  17.539  0.00  0.00    -0.030 A 
ATOM     11  H   UNL     1       7.786   6.112  14.724  0.00  0.00    +0.064 HD
ATOM     12  H   UNL     1       6.889   3.892  14.226  0.00  0.00    +0.062 HD
ATOM     13  H   UNL     1       5.383   2.750  15.822  0.00  0.00    +0.062 HD
ATOM     14  H   UNL     1       5.620   6.128  18.464  0.00  0.00    +0.064 HD
BRANCH   9  15
ATOM     15  C   UNL     1       4.570   3.704  18.243  0.00  0.00    +0.164 A 
ATOM     16  N   UNL     1       4.224   2.432  18.228  0.00  0.00    -0.129 NA
ATOM     17  N   UNL     1       3.350   2.206  19.261  0.00  0.00    -0.134 NA
ATOM     18  C   UNL     1       3.155   3.344  19.884  0.00  0.00    +0.134 A 
ATOM     19  N   UNL     1       3.903   4.318  19.277  0.00  0.00    -0.311 N 
ATOM     20  C   UNL     1       3.880   5.721  19.617  0.00  0.00    +0.026 C 
ATOM     21  C   UNL     1       2.496   6.358  19.463  0.00  0.00    -0.035 C 
ATOM     22  C   UNL     1       1.521   6.007  20.587  0.00  0.00    -0.051 C 
ATOM     23  C   UNL     1       1.100   4.538  20.649  0.00  0.00    -0.046 C 
ATOM     24  C   UNL     1       2.233   3.583  21.023  0.00  0.00    +0.007 C 
ATOM     25  H   UNL     1       4.252   5.818  20.645  0.00  0.00    +0.049 HD
ATOM     26  H   UNL     1       4.584   6.252  18.965  0.00  0.00    +0.049 HD
ATOM     27  H   UNL     1       2.621   7.452  19.466  0.00  0.00    +0.028 HD
ATOM     28  H   UNL     1       2.054   6.092  18.491  0.00  0.00    +0.028 HD
ATOM     29  H   UNL     1       1.935   6.318  21.554  0.00  0.00    +0.027 HD
ATOM     30  H   UNL     1       0.613   6.607  20.444  0.00  0.00    +0.027 HD
ATOM     31  H   UNL     1       0.644   4.241  19.695  0.00  0.00    +0.027 HD
ATOM     32  H   UNL     1       0.317   4.452  21.414  0.00  0.00    +0.027 HD
ATOM     33  H   UNL     1       1.792   2.619  21.313  0.00  0.00    +0.034 HD
ATOM     34  H   UNL     1       2.791   3.952  21.894  0.00  0.00    +0.034 HD
ENDBRANCH   9  15
ENDBRANCH   3   5
BRANCH   2  35
ATOM     35  C   UNL     1       8.357   9.353  18.219  0.00  0.00    +0.037 A 
ATOM     36  C   UNL     1       8.026  10.270  17.214  0.00  0.00    -0.050 A 
ATOM     37  C   UNL     1       8.262  11.635  17.411  0.00  0.00    -0.061 A 
ATOM     38  C   UNL     1       8.845  12.083  18.596  0.00  0.00    -0.057 A 
ATOM     39  C   UNL     1       9.234  11.173  19.592  0.00  0.00    -0.029 A 
ATOM     40  C   UNL     1       8.983   9.804  19.391  0.00  0.00    -0.045 A 
ATOM     41  H   UNL     1       7.593   9.944  16.272  0.00  0.00    +0.063 HD
ATOM     42  H   UNL     1       7.987  12.354  16.641  0.00  0.00    +0.062 HD
ATOM     43  H   UNL     1       8.988  13.152  18.735  0.00  0.00    +0.062 HD
ATOM     44  H   UNL     1       9.258   9.079  20.157  0.00  0.00    +0.063 HD
BRANCH  39  45
ATOM     45  C   UNL     1       9.853  11.641  20.890  0.00  0.00    +0.048 C 
ATOM     46  H   UNL     1      10.220  10.766  21.437  0.00  0.00    +0.052 HD
ATOM     47  H   UNL     1      10.713  12.292  20.684  0.00  0.00    +0.052 HD
BRANCH  45  48
ATOM     48  N   UNL     1       8.931  12.380  21.729  0.00  0.00    -0.230 N 
ATOM     49  C   UNL     1       8.576  13.683  21.516  0.00  0.00    +0.254 C 
ATOM     50  O   UNL     1       8.946  14.448  20.649  0.00  0.00    -0.270 OA
ATOM     51  C   UNL     1       7.628  14.037  22.571  0.00  0.00    +0.049 A 
ATOM     52  C   UNL     1       6.970  15.226  22.820  0.00  0.00    -0.049 A 
ATOM     53  C   UNL     1       6.108  15.260  23.921  0.00  0.00    -0.061 A 
ATOM     54  C   UNL     1       5.933  14.124  24.738  0.00  0.00    -0.061 A 
ATOM     55  C   UNL     1       6.615  12.930  24.464  0.00  0.00    -0.049 A 
ATOM     56  C   UNL     1       7.456  12.921  23.368  0.00  0.00    +0.049 A 
ATOM     57  C   UNL     1       8.289  11.851  22.817  0.00  0.00    +0.254 C 
ATOM     58  O   UNL     1       8.340  10.727  23.272  0.00  0.00    -0.270 OA
ATOM     59  H   UNL     1       7.118  16.092  22.182  0.00  0.00    +0.063 HD
ATOM     60  H   UNL     1       5.566  16.177  24.152  0.00  0.00    +0.062 HD
ATOM     61  H   UNL     1       5.261  14.175  25.590  0.00  0.00    +0.062 HD
ATOM     62  H   UNL     1       6.493  12.049  25.083  0.00  0.00    +0.063 HD
ENDBRANCH  45  48
ENDBRANCH  39  45
ENDBRANCH   2  35
TORSDOF 5
ENDMDL
MODEL 21
REMARK VINA RESULT:    -8.321      6.328      8.367
REMARK INTER + INTRA:         -11.182
REMARK INTER:                 -10.720
REMARK INTRA:                  -0.463
REMARK UNBOUND:                -0.429
REMARK  Name = 
REMARK  5 active torsions:
REMARK  status: ('A' for Active; 'I' for Inactive)
REMARK    1  A    between atoms: C_2  and  C_20
REMARK    2  A    between atoms: N_3  and  C_4
REMARK    3  A    between atoms: C_8  and  C_9
REMARK    4  A    between atoms: C_24  and  C_25
REMARK    5  A    between atoms: C_25  and  N_26
REMARK                            x       y       z     vdW  Elec       q    Type
REMARK                         _______ _______ _______ _____ _____    ______ ____
ROOT
ATOM      1  O   UNL     1       7.214   9.988  17.022  0.00  0.00    -0.270 OA
ATOM      2  C   UNL     1       7.886   9.425  17.878  0.00  0.00    +0.248 C 
ATOM      3  N   UNL     1       8.747  10.029  18.776  0.00  0.00    -0.281 N 
ATOM      4  H   UNL     1       9.110   9.451  19.525  0.00  0.00    +0.155 HD
ENDROOT
BRANCH   3   5
ATOM      5  C   UNL     1       9.094  11.393  18.847  0.00  0.00    +0.034 A 
ATOM      6  C   UNL     1       9.519  12.153  17.754  0.00  0.00    -0.040 A 
ATOM      7  C   UNL     1       9.853  13.500  17.915  0.00  0.00    -0.059 A 
ATOM      8  C   UNL     1       9.747  14.106  19.168  0.00  0.00    -0.051 A 
ATOM      9  C   UNL     1       9.308  13.364  20.267  0.00  0.00    +0.021 A 
ATOM     10  C   UNL     1       9.008  12.006  20.104  0.00  0.00    -0.030 A 
ATOM     11  H   UNL     1       9.624  11.716  16.763  0.00  0.00    +0.064 HD
ATOM     12  H   UNL     1      10.204  14.074  17.060  0.00  0.00    +0.062 HD
ATOM     13  H   UNL     1      10.020  15.151  19.280  0.00  0.00    +0.062 HD
ATOM     14  H   UNL     1       8.695  11.433  20.975  0.00  0.00    +0.064 HD
BRANCH   9  15
ATOM     15  C   UNL     1       9.164  13.970  21.583  0.00  0.00    +0.164 A 
ATOM     16  N   UNL     1       9.853  15.001  22.030  0.00  0.00    -0.129 NA
ATOM     17  N   UNL     1       9.488  15.238  23.332  0.00  0.00    -0.134 NA
ATOM     18  C   UNL     1       8.597  14.338  23.673  0.00  0.00    +0.134 A 
ATOM     19  N   UNL     1       8.360  13.516  22.603  0.00  0.00    -0.311 N 
ATOM     20  C   UNL     1       7.513  12.348  22.620  0.00  0.00    +0.026 C 
ATOM     21  C   UNL     1       7.958  11.291  23.634  0.00  0.00    -0.035 C 
ATOM     22  C   UNL     1       7.617  11.635  25.084  0.00  0.00    -0.051 C 
ATOM     23  C   UNL     1       8.359  12.843  25.659  0.00  0.00    -0.046 C 
ATOM     24  C   UNL     1       7.974  14.173  25.011  0.00  0.00    +0.007 C 
ATOM     25  H   UNL     1       6.488  12.687  22.821  0.00  0.00    +0.049 HD
ATOM     26  H   UNL     1       7.515  11.897  21.621  0.00  0.00    +0.049 HD
ATOM     27  H   UNL     1       7.448  10.347  23.391  0.00  0.00    +0.028 HD
ATOM     28  H   UNL     1       9.038  11.099  23.542  0.00  0.00    +0.028 HD
ATOM     29  H   UNL     1       6.534  11.777  25.190  0.00  0.00    +0.027 HD
ATOM     30  H   UNL     1       7.867  10.766  25.704  0.00  0.00    +0.027 HD
ATOM     31  H   UNL     1       9.442  12.681  25.592  0.00  0.00    +0.027 HD
ATOM     32  H   UNL     1       8.112  12.902  26.727  0.00  0.00    +0.027 HD
ATOM     33  H   UNL     1       8.330  14.989  25.656  0.00  0.00    +0.034 HD
ATOM     34  H   UNL     1       6.883  14.279  24.939  0.00  0.00    +0.034 HD
ENDBRANCH   9  15
ENDBRANCH   3   5
BRANCH   2  35
ATOM     35  C   UNL     1       7.725   7.951  18.065  0.00  0.00    +0.037 A 
ATOM     36  C   UNL     1       8.491   7.232  18.991  0.00  0.00    -0.050 A 
ATOM     37  C   UNL     1       8.246   5.869  19.190  0.00  0.00    -0.061 A 
ATOM     38  C   UNL     1       7.255   5.220  18.455  0.00  0.00    -0.057 A 
ATOM     39  C   UNL     1       6.513   5.911  17.484  0.00  0.00    -0.029 A 
ATOM     40  C   UNL     1       6.758   7.283  17.298  0.00  0.00    -0.045 A 
ATOM     41  H   UNL     1       9.286   7.711  19.558  0.00  0.00    +0.063 HD
ATOM     42  H   UNL     1       8.825   5.311  19.924  0.00  0.00    +0.062 HD
ATOM     43  H   UNL     1       7.064   4.168  18.654  0.00  0.00    +0.062 HD
ATOM     44  H   UNL     1       6.183   7.847  16.563  0.00  0.00    +0.063 HD
BRANCH  39  45
ATOM     45  C   UNL     1       5.423   5.227  16.689  0.00  0.00    +0.048 C 
ATOM     46  H   UNL     1       5.021   5.942  15.962  0.00  0.00    +0.052 HD
ATOM     47  H   UNL     1       5.840   4.380  16.129  0.00  0.00    +0.052 HD
BRANCH  45  48
ATOM     48  N   UNL     1       4.345   4.723  17.514  0.00  0.00    -0.230 N 
ATOM     49  C   UNL     1       4.038   3.398  17.651  0.00  0.00    +0.254 C 
ATOM     50  O   UNL     1       4.559   2.432  17.131  0.00  0.00    -0.270 OA
ATOM     51  C   UNL     1       2.904   3.322  18.571  0.00  0.00    +0.049 A 
ATOM     52  C   UNL     1       2.206   2.227  19.042  0.00  0.00    -0.049 A 
ATOM     53  C   UNL     1       1.155   2.474  19.930  0.00  0.00    -0.061 A 
ATOM     54  C   UNL     1       0.827   3.791  20.313  0.00  0.00    -0.061 A 
ATOM     55  C   UNL     1       1.549   4.885  19.819  0.00  0.00    -0.049 A 
ATOM     56  C   UNL     1       2.587   4.614  18.947  0.00  0.00    +0.049 A 
ATOM     57  C   UNL     1       3.524   5.514  18.273  0.00  0.00    +0.254 C 
ATOM     58  O   UNL     1       3.530   6.720  18.418  0.00  0.00    -0.270 OA
ATOM     59  H   UNL     1       2.471   1.220  18.735  0.00  0.00    +0.063 HD
ATOM     60  H   UNL     1       0.579   1.639  20.328  0.00  0.00    +0.062 HD
ATOM     61  H   UNL     1       0.003   3.959  21.001  0.00  0.00    +0.062 HD
ATOM     62  H   UNL     1       1.308   5.903  20.102  0.00  0.00    +0.063 HD
ENDBRANCH  45  48
ENDBRANCH  39  45
ENDBRANCH   2  35
TORSDOF 5
ENDMDL
MODEL 22
REMARK VINA RESULT:    -8.189      2.812     10.104
REMARK INTER + INTRA:         -11.012
REMARK INTER:                 -10.610
REMARK INTRA:                  -0.401
REMARK UNBOUND:                -0.429
REMARK  Name = 
REMARK  5 active torsions:
REMARK  status: ('A' for Active; 'I' for Inactive)
REMARK    1  A    between atoms: C_2  and  C_20
REMARK    2  A    between atoms: N_3  and  C_4
REMARK    3  A    between atoms: C_8  and  C_9
REMARK    4  A    between atoms: C_24  and  C_25
REMARK    5  A    between atoms: C_25  and  N_26
REMARK                            x       y       z     vdW  Elec       q    Type
REMARK                         _______ _______ _______ _____ _____    ______ ____
ROOT
ATOM      1  O   UNL     1       2.227   7.827  19.452  0.00  0.00    -0.270 OA
ATOM      2  C   UNL     1       1.552   7.615  20.453  0.00  0.00    +0.248 C 
ATOM      3  N   UNL     1       1.452   6.418  21.138  0.00  0.00    -0.281 N 
ATOM      4  H   UNL     1       0.981   6.440  22.035  0.00  0.00    +0.155 HD
ENDROOT
BRANCH   3   5
ATOM      5  C   UNL     1       2.033   5.182  20.793  0.00  0.00    +0.034 A 
ATOM      6  C   UNL     1       1.974   4.037  21.591  0.00  0.00    -0.040 A 
ATOM      7  C   UNL     1       2.588   2.852  21.177  0.00  0.00    -0.059 A 
ATOM      8  C   UNL     1       3.253   2.796  19.951  0.00  0.00    -0.051 A 
ATOM      9  C   UNL     1       3.307   3.928  19.134  0.00  0.00    +0.021 A 
ATOM     10  C   UNL     1       2.718   5.121  19.572  0.00  0.00    -0.030 A 
ATOM     11  H   UNL     1       1.474   4.041  22.558  0.00  0.00    +0.064 HD
ATOM     12  H   UNL     1       2.554   1.975  21.818  0.00  0.00    +0.062 HD
ATOM     13  H   UNL     1       3.734   1.872  19.647  0.00  0.00    +0.062 HD
ATOM     14  H   UNL     1       2.793   6.002  18.939  0.00  0.00    +0.064 HD
BRANCH   9  15
ATOM     15  C   UNL     1       3.971   3.898  17.838  0.00  0.00    +0.164 A 
ATOM     16  N   UNL     1       3.978   2.876  17.006  0.00  0.00    -0.129 NA
ATOM     17  N   UNL     1       4.762   3.197  15.927  0.00  0.00    -0.134 NA
ATOM     18  C   UNL     1       5.243   4.402  16.120  0.00  0.00    +0.134 A 
ATOM     19  N   UNL     1       4.772   4.885  17.313  0.00  0.00    -0.311 N 
ATOM     20  C   UNL     1       5.155   6.139  17.915  0.00  0.00    +0.026 C 
ATOM     21  C   UNL     1       6.657   6.242  18.197  0.00  0.00    -0.035 C 
ATOM     22  C   UNL     1       7.507   6.508  16.953  0.00  0.00    -0.051 C 
ATOM     23  C   UNL     1       7.535   5.374  15.928  0.00  0.00    -0.046 C 
ATOM     24  C   UNL     1       6.193   5.128  15.239  0.00  0.00    +0.007 C 
ATOM     25  H   UNL     1       4.819   6.943  17.247  0.00  0.00    +0.049 HD
ATOM     26  H   UNL     1       4.614   6.255  18.861  0.00  0.00    +0.049 HD
ATOM     27  H   UNL     1       6.819   7.080  18.891  0.00  0.00    +0.028 HD
ATOM     28  H   UNL     1       7.017   5.335  18.705  0.00  0.00    +0.028 HD
ATOM     29  H   UNL     1       7.184   7.440  16.472  0.00  0.00    +0.027 HD
ATOM     30  H   UNL     1       8.538   6.683  17.283  0.00  0.00    +0.027 HD
ATOM     31  H   UNL     1       7.900   4.454  16.401  0.00  0.00    +0.027 HD
ATOM     32  H   UNL     1       8.267   5.646  15.157  0.00  0.00    +0.027 HD
ATOM     33  H   UNL     1       6.369   4.511  14.346  0.00  0.00    +0.034 HD
ATOM     34  H   UNL     1       5.746   6.069  14.890  0.00  0.00    +0.034 HD
ENDBRANCH   9  15
ENDBRANCH   3   5
BRANCH   2  35
ATOM     35  C   UNL     1       0.817   8.756  21.080  0.00  0.00    +0.037 A 
ATOM     36  C   UNL     1       0.327   8.691  22.391  0.00  0.00    -0.050 A 
ATOM     37  C   UNL     1      -0.280   9.814  22.963  0.00  0.00    -0.061 A 
ATOM     38  C   UNL     1      -0.418  10.990  22.227  0.00  0.00    -0.057 A 
ATOM     39  C   UNL     1       0.018  11.056  20.894  0.00  0.00    -0.029 A 
ATOM     40  C   UNL     1       0.637   9.927  20.330  0.00  0.00    -0.045 A 
ATOM     41  H   UNL     1       0.401   7.779  22.976  0.00  0.00    +0.063 HD
ATOM     42  H   UNL     1      -0.643   9.775  23.989  0.00  0.00    +0.062 HD
ATOM     43  H   UNL     1      -0.865  11.857  22.708  0.00  0.00    +0.062 HD
ATOM     44  H   UNL     1       1.001   9.959  19.302  0.00  0.00    +0.063 HD
BRANCH  39  45
ATOM     45  C   UNL     1      -0.108  12.329  20.085  0.00  0.00    +0.048 C 
ATOM     46  H   UNL     1      -0.595  12.089  19.133  0.00  0.00    +0.052 HD
ATOM     47  H   UNL     1      -0.744  13.049  20.614  0.00  0.00    +0.052 HD
BRANCH  45  48
ATOM     48  N   UNL     1       1.165  12.969  19.826  0.00  0.00    -0.230 N 
ATOM     49  C   UNL     1       1.797  13.804  20.705  0.00  0.00    +0.254 C 
ATOM     50  O   UNL     1       1.440  14.172  21.805  0.00  0.00    -0.270 OA
ATOM     51  C   UNL     1       3.044  14.220  20.066  0.00  0.00    +0.049 A 
ATOM     52  C   UNL     1       4.045  15.059  20.518  0.00  0.00    -0.049 A 
ATOM     53  C   UNL     1       5.136  15.266  19.669  0.00  0.00    -0.061 A 
ATOM     54  C   UNL     1       5.197  14.644  18.405  0.00  0.00    -0.061 A 
ATOM     55  C   UNL     1       4.168  13.799  17.969  0.00  0.00    -0.049 A 
ATOM     56  C   UNL     1       3.103  13.607  18.828  0.00  0.00    +0.049 A 
ATOM     57  C   UNL     1       1.895  12.793  18.681  0.00  0.00    +0.254 C 
ATOM     58  O   UNL     1       1.657  12.101  17.711  0.00  0.00    -0.270 OA
ATOM     59  H   UNL     1       3.981  15.531  21.494  0.00  0.00    +0.063 HD
ATOM     60  H   UNL     1       5.950  15.918  19.987  0.00  0.00    +0.062 HD
ATOM     61  H   UNL     1       6.053  14.823  17.760  0.00  0.00    +0.062 HD
ATOM     62  H   UNL     1       4.198  13.316  16.999  0.00  0.00    +0.063 HD
ENDBRANCH  45  48
ENDBRANCH  39  45
ENDBRANCH   2  35
TORSDOF 5
ENDMDL
MODEL 23
REMARK VINA RESULT:    -8.106      2.903      4.410
REMARK INTER + INTRA:         -10.904
REMARK INTER:                 -10.252
REMARK INTRA:                  -0.652
REMARK UNBOUND:                -0.429
REMARK  Name = 
REMARK  5 active torsions:
REMARK  status: ('A' for Active; 'I' for Inactive)
REMARK    1  A    between atoms: C_2  and  C_20
REMARK    2  A    between atoms: N_3  and  C_4
REMARK    3  A    between atoms: C_8  and  C_9
REMARK    4  A    between atoms: C_24  and  C_25
REMARK    5  A    between atoms: C_25  and  N_26
REMARK                            x       y       z     vdW  Elec       q    Type
REMARK                         _______ _______ _______ _____ _____    ______ ____
ROOT
ATOM      1  O   UNL     1       1.971   5.450  21.148  0.00  0.00    -0.270 OA
ATOM      2  C   UNL     1       2.160   5.930  20.036  0.00  0.00    +0.248 C 
ATOM      3  N   UNL     1       1.875   7.224  19.640  0.00  0.00    -0.281 N 
ATOM      4  H   UNL     1       2.233   7.519  18.739  0.00  0.00    +0.155 HD
ENDROOT
BRANCH   3   5
ATOM      5  C   UNL     1       1.241   8.231  20.395  0.00  0.00    +0.034 A 
ATOM      6  C   UNL     1       0.896   8.102  21.743  0.00  0.00    -0.040 A 
ATOM      7  C   UNL     1       0.259   9.150  22.414  0.00  0.00    -0.059 A 
ATOM      8  C   UNL     1      -0.023  10.343  21.748  0.00  0.00    -0.051 A 
ATOM      9  C   UNL     1       0.330  10.493  20.406  0.00  0.00    +0.021 A 
ATOM     10  C   UNL     1       0.937   9.427  19.731  0.00  0.00    -0.030 A 
ATOM     11  H   UNL     1       1.090   7.185  22.296  0.00  0.00    +0.064 HD
ATOM     12  H   UNL     1      -0.023   9.027  23.457  0.00  0.00    +0.062 HD
ATOM     13  H   UNL     1      -0.528  11.144  22.280  0.00  0.00    +0.062 HD
ATOM     14  H   UNL     1       1.180   9.548  18.677  0.00  0.00    +0.064 HD
BRANCH   9  15
ATOM     15  C   UNL     1       0.072  11.733  19.687  0.00  0.00    +0.164 A 
ATOM     16  N   UNL     1      -0.760  11.871  18.673  0.00  0.00    -0.129 NA
ATOM     17  N   UNL     1      -0.680  13.162  18.216  0.00  0.00    -0.134 NA
ATOM     18  C   UNL     1       0.212  13.795  18.940  0.00  0.00    +0.134 A 
ATOM     19  N   UNL     1       0.714  12.934  19.881  0.00  0.00    -0.311 N 
ATOM     20  C   UNL     1       1.786  13.235  20.800  0.00  0.00    +0.026 C 
ATOM     21  C   UNL     1       3.096  13.610  20.101  0.00  0.00    -0.035 C 
ATOM     22  C   UNL     1       3.110  15.026  19.523  0.00  0.00    -0.051 C 
ATOM     23  C   UNL     1       2.144  15.265  18.361  0.00  0.00    -0.046 C 
ATOM     24  C   UNL     1       0.670  15.195  18.756  0.00  0.00    +0.007 C 
ATOM     25  H   UNL     1       1.439  14.043  21.457  0.00  0.00    +0.049 HD
ATOM     26  H   UNL     1       1.965  12.357  21.431  0.00  0.00    +0.049 HD
ATOM     27  H   UNL     1       3.908  13.548  20.840  0.00  0.00    +0.028 HD
ATOM     28  H   UNL     1       3.332  12.884  19.308  0.00  0.00    +0.028 HD
ATOM     29  H   UNL     1       2.925  15.757  20.319  0.00  0.00    +0.027 HD
ATOM     30  H   UNL     1       4.125  15.230  19.158  0.00  0.00    +0.027 HD
ATOM     31  H   UNL     1       2.360  14.562  17.547  0.00  0.00    +0.027 HD
ATOM     32  H   UNL     1       2.344  16.272  17.970  0.00  0.00    +0.027 HD
ATOM     33  H   UNL     1       0.073  15.646  17.951  0.00  0.00    +0.034 HD
ATOM     34  H   UNL     1       0.473  15.783  19.664  0.00  0.00    +0.034 HD
ENDBRANCH   9  15
ENDBRANCH   3   5
BRANCH   2  35
ATOM     35  C   UNL     1       2.846   5.098  19.000  0.00  0.00    +0.037 A 
ATOM     36  C   UNL     1       2.130   4.347  18.059  0.00  0.00    -0.050 A 
ATOM     37  C   UNL     1       2.814   3.652  17.057  0.00  0.00    -0.061 A 
ATOM     38  C   UNL     1       4.207   3.688  17.003  0.00  0.00    -0.057 A 
ATOM     39  C   UNL     1       4.944   4.391  17.970  0.00  0.00    -0.029 A 
ATOM     40  C   UNL     1       4.248   5.096  18.967  0.00  0.00    -0.045 A 
ATOM     41  H   UNL     1       1.045   4.284  18.095  0.00  0.00    +0.063 HD
ATOM     42  H   UNL     1       2.261   3.084  16.311  0.00  0.00    +0.062 HD
ATOM     43  H   UNL     1       4.711   3.164  16.194  0.00  0.00    +0.062 HD
ATOM     44  H   UNL     1       4.797   5.665  19.718  0.00  0.00    +0.063 HD
BRANCH  39  45
ATOM     45  C   UNL     1       6.455   4.455  17.918  0.00  0.00    +0.048 C 
ATOM     46  H   UNL     1       6.857   3.845  18.734  0.00  0.00    +0.052 HD
ATOM     47  H   UNL     1       6.817   4.030  16.973  0.00  0.00    +0.052 HD
BRANCH  45  48
ATOM     48  N   UNL     1       6.974   5.803  18.024  0.00  0.00    -0.230 N 
ATOM     49  C   UNL     1       7.912   6.194  18.938  0.00  0.00    +0.254 C 
ATOM     50  O   UNL     1       8.457   5.543  19.805  0.00  0.00    -0.270 OA
ATOM     51  C   UNL     1       8.162   7.615  18.700  0.00  0.00    +0.049 A 
ATOM     52  C   UNL     1       9.013   8.494  19.343  0.00  0.00    -0.049 A 
ATOM     53  C   UNL     1       9.038   9.813  18.880  0.00  0.00    -0.061 A 
ATOM     54  C   UNL     1       8.219  10.217  17.805  0.00  0.00    -0.061 A 
ATOM     55  C   UNL     1       7.363   9.306  17.171  0.00  0.00    -0.049 A 
ATOM     56  C   UNL     1       7.361   8.008  17.645  0.00  0.00    +0.049 A 
ATOM     57  C   UNL     1       6.603   6.835  17.204  0.00  0.00    +0.254 C 
ATOM     58  O   UNL     1       5.827   6.840  16.270  0.00  0.00    -0.270 OA
ATOM     59  H   UNL     1       9.635   8.166  20.170  0.00  0.00    +0.063 HD
ATOM     60  H   UNL     1       9.697  10.538  19.356  0.00  0.00    +0.062 HD
ATOM     61  H   UNL     1       8.252  11.248  17.464  0.00  0.00    +0.062 HD
ATOM     62  H   UNL     1       6.726   9.602  16.346  0.00  0.00    +0.063 HD
ENDBRANCH  45  48
ENDBRANCH  39  45
ENDBRANCH   2  35
TORSDOF 5
ENDMDL
MODEL 24
REMARK VINA RESULT:    -8.077      2.935      4.380
REMARK INTER + INTRA:         -10.866
REMARK INTER:                 -10.250
REMARK INTRA:                  -0.616
REMARK UNBOUND:                -0.429
REMARK  Name = 
REMARK  5 active torsions:
REMARK  status: ('A' for Active; 'I' for Inactive)
REMARK    1  A    between atoms: C_2  and  C_20
REMARK    2  A    between atoms: N_3  and  C_4
REMARK    3  A    between atoms: C_8  and  C_9
REMARK    4  A    between atoms: C_24  and  C_25
REMARK    5  A    between atoms: C_25  and  N_26
REMARK                            x       y       z     vdW  Elec       q    Type
REMARK                         _______ _______ _______ _____ _____    ______ ____
ROOT
ATOM      1  O   UNL     1       2.093   5.269  21.222  0.00  0.00    -0.270 OA
ATOM      2  C   UNL     1       2.238   5.723  20.093  0.00  0.00    +0.248 C 
ATOM      3  N   UNL     1       2.011   7.029  19.698  0.00  0.00    -0.281 N 
ATOM      4  H   UNL     1       2.327   7.290  18.770  0.00  0.00    +0.155 HD
ENDROOT
BRANCH   3   5
ATOM      5  C   UNL     1       1.497   8.084  20.478  0.00  0.00    +0.034 A 
ATOM      6  C   UNL     1       1.410   8.059  21.872  0.00  0.00    -0.040 A 
ATOM      7  C   UNL     1       0.876   9.147  22.568  0.00  0.00    -0.059 A 
ATOM      8  C   UNL     1       0.439  10.277  21.877  0.00  0.00    -0.051 A 
ATOM      9  C   UNL     1       0.533  10.324  20.484  0.00  0.00    +0.021 A 
ATOM     10  C   UNL     1       1.039   9.216  19.792  0.00  0.00    -0.030 A 
ATOM     11  H   UNL     1       1.732   7.193  22.448  0.00  0.00    +0.064 HD
ATOM     12  H   UNL     1       0.794   9.105  23.652  0.00  0.00    +0.062 HD
ATOM     13  H   UNL     1       0.016  11.111  22.430  0.00  0.00    +0.062 HD
ATOM     14  H   UNL     1       1.079   9.255  18.705  0.00  0.00    +0.064 HD
BRANCH   9  15
ATOM     15  C   UNL     1       0.109  11.497  19.733  0.00  0.00    +0.164 A 
ATOM     16  N   UNL     1      -0.717  11.490  18.706  0.00  0.00    -0.129 NA
ATOM     17  N   UNL     1      -0.820  12.769  18.220  0.00  0.00    -0.134 NA
ATOM     18  C   UNL     1      -0.042  13.541  18.940  0.00  0.00    +0.134 A 
ATOM     19  N   UNL     1       0.566  12.783  19.907  0.00  0.00    -0.311 N 
ATOM     20  C   UNL     1       1.566  13.257  20.833  0.00  0.00    +0.026 C 
ATOM     21  C   UNL     1       2.819  13.805  20.142  0.00  0.00    -0.035 C 
ATOM     22  C   UNL     1       2.636  15.195  19.532  0.00  0.00    -0.051 C 
ATOM     23  C   UNL     1       1.664  15.265  18.352  0.00  0.00    -0.046 C 
ATOM     24  C   UNL     1       0.210  14.989  18.730  0.00  0.00    +0.007 C 
ATOM     25  H   UNL     1       1.095  14.020  21.467  0.00  0.00    +0.049 HD
ATOM     26  H   UNL     1       1.862  12.429  21.487  0.00  0.00    +0.049 HD
ATOM     27  H   UNL     1       3.619  13.878  20.894  0.00  0.00    +0.028 HD
ATOM     28  H   UNL     1       3.172  13.104  19.371  0.00  0.00    +0.028 HD
ATOM     29  H   UNL     1       2.333  15.908  20.308  0.00  0.00    +0.027 HD
ATOM     30  H   UNL     1       3.616  15.537  19.176  0.00  0.00    +0.027 HD
ATOM     31  H   UNL     1       1.994  14.584  17.558  0.00  0.00    +0.027 HD
ATOM     32  H   UNL     1       1.721  16.282  17.940  0.00  0.00    +0.027 HD
ATOM     33  H   UNL     1      -0.433  15.330  17.906  0.00  0.00    +0.034 HD
ATOM     34  H   UNL     1      -0.086  15.560  19.620  0.00  0.00    +0.034 HD
ENDBRANCH   9  15
ENDBRANCH   3   5
BRANCH   2  35
ATOM     35  C   UNL     1       2.797   4.838  19.026  0.00  0.00    +0.037 A 
ATOM     36  C   UNL     1       1.979   4.011  18.245  0.00  0.00    -0.050 A 
ATOM     37  C   UNL     1       2.538   3.263  17.203  0.00  0.00    -0.061 A 
ATOM     38  C   UNL     1       3.908   3.323  16.952  0.00  0.00    -0.057 A 
ATOM     39  C   UNL     1       4.752   4.104  17.759  0.00  0.00    -0.029 A 
ATOM     40  C   UNL     1       4.181   4.861  18.797  0.00  0.00    -0.045 A 
ATOM     41  H   UNL     1       0.913   3.929  18.437  0.00  0.00    +0.063 HD
ATOM     42  H   UNL     1       1.903   2.636  16.580  0.00  0.00    +0.062 HD
ATOM     43  H   UNL     1       4.309   2.756  16.115  0.00  0.00    +0.062 HD
ATOM     44  H   UNL     1       4.812   5.490  19.425  0.00  0.00    +0.063 HD
BRANCH  39  45
ATOM     45  C   UNL     1       6.238   4.194  17.491  0.00  0.00    +0.048 C 
ATOM     46  H   UNL     1       6.754   3.487  18.150  0.00  0.00    +0.052 HD
ATOM     47  H   UNL     1       6.452   3.902  16.455  0.00  0.00    +0.052 HD
BRANCH  45  48
ATOM     48  N   UNL     1       6.776   5.523  17.696  0.00  0.00    -0.230 N 
ATOM     49  C   UNL     1       6.397   6.623  16.978  0.00  0.00    +0.254 C 
ATOM     50  O   UNL     1       5.598   6.708  16.068  0.00  0.00    -0.270 OA
ATOM     51  C   UNL     1       7.164   7.751  17.502  0.00  0.00    +0.049 A 
ATOM     52  C   UNL     1       7.167   9.082  17.130  0.00  0.00    -0.049 A 
ATOM     53  C   UNL     1       8.020   9.939  17.832  0.00  0.00    -0.061 A 
ATOM     54  C   UNL     1       8.842   9.452  18.869  0.00  0.00    -0.061 A 
ATOM     55  C   UNL     1       8.822   8.097  19.225  0.00  0.00    -0.049 A 
ATOM     56  C   UNL     1       7.968   7.272  18.520  0.00  0.00    +0.049 A 
ATOM     57  C   UNL     1       7.707   5.837  18.649  0.00  0.00    +0.254 C 
ATOM     58  O   UNL     1       8.235   5.123  19.478  0.00  0.00    -0.270 OA
ATOM     59  H   UNL     1       6.528   9.440  16.328  0.00  0.00    +0.063 HD
ATOM     60  H   UNL     1       8.051  10.997  17.574  0.00  0.00    +0.062 HD
ATOM     61  H   UNL     1       9.500  10.136  19.397  0.00  0.00    +0.062 HD
ATOM     62  H   UNL     1       9.450   7.706  20.018  0.00  0.00    +0.063 HD
ENDBRANCH  45  48
ENDBRANCH  39  45
ENDBRANCH   2  35
TORSDOF 5
ENDMDL
MODEL 25
REMARK VINA RESULT:    -7.878      2.200      3.431
REMARK INTER + INTRA:         -10.609
REMARK INTER:                 -10.497
REMARK INTRA:                  -0.112
REMARK UNBOUND:                -0.429
REMARK  Name = 
REMARK  5 active torsions:
REMARK  status: ('A' for Active; 'I' for Inactive)
REMARK    1  A    between atoms: C_2  and  C_20
REMARK    2  A    between atoms: N_3  and  C_4
REMARK    3  A    between atoms: C_8  and  C_9
REMARK    4  A    between atoms: C_24  and  C_25
REMARK    5  A    between atoms: C_25  and  N_26
REMARK                            x       y       z     vdW  Elec       q    Type
REMARK                         _______ _______ _______ _____ _____    ______ ____
ROOT
ATOM      1  O   UNL     1       1.233   6.473  21.129  0.00  0.00    -0.270 OA
ATOM      2  C   UNL     1       2.008   6.381  20.185  0.00  0.00    +0.248 C 
ATOM      3  N   UNL     1       2.317   7.376  19.275  0.00  0.00    -0.281 N 
ATOM      4  H   UNL     1       3.092   7.200  18.647  0.00  0.00    +0.155 HD
ENDROOT
BRANCH   3   5
ATOM      5  C   UNL     1       1.756   8.666  19.192  0.00  0.00    +0.034 A 
ATOM      6  C   UNL     1       1.908   9.520  18.097  0.00  0.00    -0.040 A 
ATOM      7  C   UNL     1       1.325  10.789  18.102  0.00  0.00    -0.059 A 
ATOM      8  C   UNL     1       0.568  11.211  19.196  0.00  0.00    -0.051 A 
ATOM      9  C   UNL     1       0.393  10.363  20.291  0.00  0.00    +0.021 A 
ATOM     10  C   UNL     1       1.009   9.105  20.293  0.00  0.00    -0.030 A 
ATOM     11  H   UNL     1       2.498   9.233  17.229  0.00  0.00    +0.064 HD
ATOM     12  H   UNL     1       1.470  11.452  17.252  0.00  0.00    +0.062 HD
ATOM     13  H   UNL     1       0.129  12.205  19.190  0.00  0.00    +0.062 HD
ATOM     14  H   UNL     1       0.888   8.467  21.166  0.00  0.00    +0.064 HD
BRANCH   9  15
ATOM     15  C   UNL     1      -0.411  10.762  21.439  0.00  0.00    +0.164 A 
ATOM     16  N   UNL     1      -0.492  10.107  22.580  0.00  0.00    -0.129 NA
ATOM     17  N   UNL     1      -1.397  10.748  23.388  0.00  0.00    -0.134 NA
ATOM     18  C   UNL     1      -1.875  11.775  22.726  0.00  0.00    +0.134 A 
ATOM     19  N   UNL     1      -1.283  11.824  21.491  0.00  0.00    -0.311 N 
ATOM     20  C   UNL     1      -1.619  12.756  20.441  0.00  0.00    +0.026 C 
ATOM     21  C   UNL     1      -3.082  12.665  19.997  0.00  0.00    -0.035 C 
ATOM     22  C   UNL     1      -4.070  13.310  20.971  0.00  0.00    -0.051 C 
ATOM     23  C   UNL     1      -4.191  12.618  22.330  0.00  0.00    -0.046 C 
ATOM     24  C   UNL     1      -2.930  12.713  23.188  0.00  0.00    +0.007 C 
ATOM     25  H   UNL     1      -1.374  13.763  20.802  0.00  0.00    +0.049 HD
ATOM     26  H   UNL     1      -0.978  12.556  19.575  0.00  0.00    +0.049 HD
ATOM     27  H   UNL     1      -3.180  13.188  19.034  0.00  0.00    +0.028 HD
ATOM     28  H   UNL     1      -3.367  11.617  19.819  0.00  0.00    +0.028 HD
ATOM     29  H   UNL     1      -3.819  14.369  21.111  0.00  0.00    +0.027 HD
ATOM     30  H   UNL     1      -5.061  13.297  20.502  0.00  0.00    +0.027 HD
ATOM     31  H   UNL     1      -4.485  11.571  22.189  0.00  0.00    +0.027 HD
ATOM     32  H   UNL     1      -5.010  13.106  22.875  0.00  0.00    +0.027 HD
ATOM     33  H   UNL     1      -3.193  12.447  24.221  0.00  0.00    +0.034 HD
ATOM     34  H   UNL     1      -2.542  13.740  23.213  0.00  0.00    +0.034 HD
ENDBRANCH   9  15
ENDBRANCH   3   5
BRANCH   2  35
ATOM     35  C   UNL     1       2.785   5.116  20.011  0.00  0.00    +0.037 A 
ATOM     36  C   UNL     1       2.352   3.899  20.553  0.00  0.00    -0.050 A 
ATOM     37  C   UNL     1       3.068   2.726  20.292  0.00  0.00    -0.061 A 
ATOM     38  C   UNL     1       4.224   2.768  19.512  0.00  0.00    -0.057 A 
ATOM     39  C   UNL     1       4.704   3.987  19.006  0.00  0.00    -0.029 A 
ATOM     40  C   UNL     1       3.971   5.159  19.263  0.00  0.00    -0.045 A 
ATOM     41  H   UNL     1       1.468   3.845  21.183  0.00  0.00    +0.063 HD
ATOM     42  H   UNL     1       2.724   1.775  20.693  0.00  0.00    +0.062 HD
ATOM     43  H   UNL     1       4.742   1.836  19.300  0.00  0.00    +0.062 HD
ATOM     44  H   UNL     1       4.313   6.115  18.866  0.00  0.00    +0.063 HD
BRANCH  39  45
ATOM     45  C   UNL     1       5.946   4.049  18.145  0.00  0.00    +0.048 C 
ATOM     46  H   UNL     1       6.660   3.303  18.510  0.00  0.00    +0.052 HD
ATOM     47  H   UNL     1       5.697   3.794  17.107  0.00  0.00    +0.052 HD
BRANCH  45  48
ATOM     48  N   UNL     1       6.573   5.354  18.141  0.00  0.00    -0.230 N 
ATOM     49  C   UNL     1       6.259   6.354  17.264  0.00  0.00    +0.254 C 
ATOM     50  O   UNL     1       5.455   6.353  16.355  0.00  0.00    -0.270 OA
ATOM     51  C   UNL     1       7.106   7.495  17.607  0.00  0.00    +0.049 A 
ATOM     52  C   UNL     1       7.192   8.750  17.035  0.00  0.00    -0.049 A 
ATOM     53  C   UNL     1       8.110   9.645  17.593  0.00  0.00    -0.061 A 
ATOM     54  C   UNL     1       8.912   9.267  18.690  0.00  0.00    -0.061 A 
ATOM     55  C   UNL     1       8.807   7.987  19.250  0.00  0.00    -0.049 A 
ATOM     56  C   UNL     1       7.890   7.124  18.683  0.00  0.00    +0.049 A 
ATOM     57  C   UNL     1       7.537   5.746  19.032  0.00  0.00    +0.254 C 
ATOM     58  O   UNL     1       8.027   5.134  19.959  0.00  0.00    -0.270 OA
ATOM     59  H   UNL     1       6.568   9.023  16.189  0.00  0.00    +0.063 HD
ATOM     60  H   UNL     1       8.208  10.646  17.175  0.00  0.00    +0.062 HD
ATOM     61  H   UNL     1       9.621   9.978  19.105  0.00  0.00    +0.062 HD
ATOM     62  H   UNL     1       9.418   7.681  20.091  0.00  0.00    +0.063 HD
ENDBRANCH  45  48
ENDBRANCH  39  45
ENDBRANCH   2  35
TORSDOF 5
ENDMDL
MODEL 26
REMARK VINA RESULT:    -7.774      2.559     11.058
REMARK INTER + INTRA:         -10.475
REMARK INTER:                  -9.817
REMARK INTRA:                  -0.658
REMARK UNBOUND:                -0.429
REMARK  Name = 
REMARK  5 active torsions:
REMARK  status: ('A' for Active; 'I' for Inactive)
REMARK    1  A    between atoms: C_2  and  C_20
REMARK    2  A    between atoms: N_3  and  C_4
REMARK    3  A    between atoms: C_8  and  C_9
REMARK    4  A    between atoms: C_24  and  C_25
REMARK    5  A    between atoms: C_25  and  N_26
REMARK                            x       y       z     vdW  Elec       q    Type
REMARK                         _______ _______ _______ _____ _____    ______ ____
ROOT
ATOM      1  O   UNL     1       1.981   7.976  19.816  0.00  0.00    -0.270 OA
ATOM      2  C   UNL     1       1.826   8.666  18.815  0.00  0.00    +0.248 C 
ATOM      3  N   UNL     1       2.420   8.470  17.582  0.00  0.00    -0.281 N 
ATOM      4  H   UNL     1       2.072   9.027  16.810  0.00  0.00    +0.155 HD
ENDROOT
BRANCH   3   5
ATOM      5  C   UNL     1       3.379   7.496  17.237  0.00  0.00    +0.034 A 
ATOM      6  C   UNL     1       4.481   7.737  16.414  0.00  0.00    -0.040 A 
ATOM      7  C   UNL     1       5.380   6.710  16.115  0.00  0.00    -0.059 A 
ATOM      8  C   UNL     1       5.193   5.434  16.650  0.00  0.00    -0.051 A 
ATOM      9  C   UNL     1       4.104   5.181  17.487  0.00  0.00    +0.021 A 
ATOM     10  C   UNL     1       3.190   6.208  17.755  0.00  0.00    -0.030 A 
ATOM     11  H   UNL     1       4.658   8.715  15.970  0.00  0.00    +0.064 HD
ATOM     12  H   UNL     1       6.222   6.906  15.455  0.00  0.00    +0.062 HD
ATOM     13  H   UNL     1       5.893   4.643  16.400  0.00  0.00    +0.062 HD
ATOM     14  H   UNL     1       2.330   5.988  18.385  0.00  0.00    +0.064 HD
BRANCH   9  15
ATOM     15  C   UNL     1       3.892   3.869  18.082  0.00  0.00    +0.164 A 
ATOM     16  N   UNL     1       3.872   2.726  17.425  0.00  0.00    -0.129 NA
ATOM     17  N   UNL     1       3.577   1.720  18.310  0.00  0.00    -0.134 NA
ATOM     18  C   UNL     1       3.400   2.259  19.493  0.00  0.00    +0.134 A 
ATOM     19  N   UNL     1       3.588   3.613  19.398  0.00  0.00    -0.311 N 
ATOM     20  C   UNL     1       3.386   4.560  20.469  0.00  0.00    +0.026 C 
ATOM     21  C   UNL     1       1.956   4.559  21.016  0.00  0.00    -0.035 C 
ATOM     22  C   UNL     1       1.637   3.371  21.925  0.00  0.00    -0.051 C 
ATOM     23  C   UNL     1       1.627   2.006  21.233  0.00  0.00    -0.046 C 
ATOM     24  C   UNL     1       3.000   1.553  20.737  0.00  0.00    +0.007 C 
ATOM     25  H   UNL     1       4.115   4.328  21.257  0.00  0.00    +0.049 HD
ATOM     26  H   UNL     1       3.618   5.565  20.098  0.00  0.00    +0.049 HD
ATOM     27  H   UNL     1       1.817   5.474  21.611  0.00  0.00    +0.028 HD
ATOM     28  H   UNL     1       1.227   4.603  20.193  0.00  0.00    +0.028 HD
ATOM     29  H   UNL     1       2.330   3.353  22.775  0.00  0.00    +0.027 HD
ATOM     30  H   UNL     1       0.641   3.533  22.353  0.00  0.00    +0.027 HD
ATOM     31  H   UNL     1       0.902   2.012  20.410  0.00  0.00    +0.027 HD
ATOM     32  H   UNL     1       1.271   1.270  21.965  0.00  0.00    +0.027 HD
ATOM     33  H   UNL     1       2.951   0.477  20.517  0.00  0.00    +0.034 HD
ATOM     34  H   UNL     1       3.767   1.684  21.512  0.00  0.00    +0.034 HD
ENDBRANCH   9  15
ENDBRANCH   3   5
BRANCH   2  35
ATOM     35  C   UNL     1       0.840   9.788  18.860  0.00  0.00    +0.037 A 
ATOM     36  C   UNL     1      -0.200   9.901  17.928  0.00  0.00    -0.050 A 
ATOM     37  C   UNL     1      -1.147  10.921  18.061  0.00  0.00    -0.061 A 
ATOM     38  C   UNL     1      -1.049  11.838  19.107  0.00  0.00    -0.057 A 
ATOM     39  C   UNL     1       0.017  11.775  20.019  0.00  0.00    -0.029 A 
ATOM     40  C   UNL     1       0.958  10.740  19.885  0.00  0.00    -0.045 A 
ATOM     41  H   UNL     1      -0.284   9.212  17.091  0.00  0.00    +0.063 HD
ATOM     42  H   UNL     1      -1.969  10.999  17.352  0.00  0.00    +0.062 HD
ATOM     43  H   UNL     1      -1.818  12.601  19.204  0.00  0.00    +0.062 HD
ATOM     44  H   UNL     1       1.785  10.657  20.591  0.00  0.00    +0.063 HD
BRANCH  39  45
ATOM     45  C   UNL     1       0.131  12.752  21.168  0.00  0.00    +0.048 C 
ATOM     46  H   UNL     1       0.889  12.381  21.867  0.00  0.00    +0.052 HD
ATOM     47  H   UNL     1       0.466  13.729  20.799  0.00  0.00    +0.052 HD
BRANCH  45  48
ATOM     48  N   UNL     1      -1.118  12.950  21.875  0.00  0.00    -0.230 N 
ATOM     49  C   UNL     1      -1.948  14.019  21.681  0.00  0.00    +0.254 C 
ATOM     50  O   UNL     1      -1.814  14.970  20.938  0.00  0.00    -0.270 OA
ATOM     51  C   UNL     1      -3.090  13.831  22.574  0.00  0.00    +0.049 A 
ATOM     52  C   UNL     1      -4.208  14.617  22.774  0.00  0.00    -0.049 A 
ATOM     53  C   UNL     1      -5.147  14.167  23.708  0.00  0.00    -0.061 A 
ATOM     54  C   UNL     1      -4.944  12.962  24.413  0.00  0.00    -0.061 A 
ATOM     55  C   UNL     1      -3.800  12.184  24.192  0.00  0.00    -0.049 A 
ATOM     56  C   UNL     1      -2.891  12.648  23.262  0.00  0.00    +0.049 A 
ATOM     57  C   UNL     1      -1.624  12.078  22.801  0.00  0.00    +0.254 C 
ATOM     58  O   UNL     1      -1.175  11.019  23.192  0.00  0.00    -0.270 OA
ATOM     59  H   UNL     1      -4.347  15.543  22.224  0.00  0.00    +0.063 HD
ATOM     60  H   UNL     1      -6.045  14.754  23.895  0.00  0.00    +0.062 HD
ATOM     61  H   UNL     1      -5.685  12.633  25.136  0.00  0.00    +0.062 HD
ATOM     62  H   UNL     1      -3.629  11.257  24.728  0.00  0.00    +0.063 HD
ENDBRANCH  45  48
ENDBRANCH  39  45
ENDBRANCH   2  35
TORSDOF 5
ENDMDL
MODEL 27
REMARK VINA RESULT:    -7.742      1.855      2.550
REMARK INTER + INTRA:         -10.434
REMARK INTER:                  -9.118
REMARK INTRA:                  -1.316
REMARK UNBOUND:                -0.429
REMARK  Name = 
REMARK  5 active torsions:
REMARK  status: ('A' for Active; 'I' for Inactive)
REMARK    1  A    between atoms: C_2  and  C_20
REMARK    2  A    between atoms: N_3  and  C_4
REMARK    3  A    between atoms: C_8  and  C_9
REMARK    4  A    between atoms: C_24  and  C_25
REMARK    5  A    between atoms: C_25  and  N_26
REMARK                            x       y       z     vdW  Elec       q    Type
REMARK                         _______ _______ _______ _____ _____    ______ ____
ROOT
ATOM      1  O   UNL     1       1.220   7.990  21.643  0.00  0.00    -0.270 OA
ATOM      2  C   UNL     1       1.213   7.692  20.455  0.00  0.00    +0.248 C 
ATOM      3  N   UNL     1       1.043   8.560  19.392  0.00  0.00    -0.281 N 
ATOM      4  H   UNL     1       1.218   8.191  18.464  0.00  0.00    +0.155 HD
ENDROOT
BRANCH   3   5
ATOM      5  C   UNL     1       0.767   9.941  19.448  0.00  0.00    +0.034 A 
ATOM      6  C   UNL     1       1.693  10.939  19.138  0.00  0.00    -0.040 A 
ATOM      7  C   UNL     1       1.339  12.288  19.230  0.00  0.00    -0.059 A 
ATOM      8  C   UNL     1       0.048  12.651  19.617  0.00  0.00    -0.051 A 
ATOM      9  C   UNL     1      -0.894  11.664  19.915  0.00  0.00    +0.021 A 
ATOM     10  C   UNL     1      -0.521  10.316  19.853  0.00  0.00    -0.030 A 
ATOM     11  H   UNL     1       2.713  10.699  18.841  0.00  0.00    +0.064 HD
ATOM     12  H   UNL     1       2.077  13.055  19.007  0.00  0.00    +0.062 HD
ATOM     13  H   UNL     1      -0.209  13.703  19.694  0.00  0.00    +0.062 HD
ATOM     14  H   UNL     1      -1.257   9.559  20.116  0.00  0.00    +0.064 HD
BRANCH   9  15
ATOM     15  C   UNL     1      -2.256  12.007  20.299  0.00  0.00    +0.164 A 
ATOM     16  N   UNL     1      -3.251  12.235  19.465  0.00  0.00    -0.129 NA
ATOM     17  N   UNL     1      -4.357  12.595  20.193  0.00  0.00    -0.134 NA
ATOM     18  C   UNL     1      -4.022  12.604  21.461  0.00  0.00    +0.134 A 
ATOM     19  N   UNL     1      -2.706  12.240  21.577  0.00  0.00    -0.311 N 
ATOM     20  C   UNL     1      -1.950  12.227  22.807  0.00  0.00    +0.026 C 
ATOM     21  C   UNL     1      -1.876  13.596  23.487  0.00  0.00    -0.035 C 
ATOM     22  C   UNL     1      -3.161  14.003  24.210  0.00  0.00    -0.051 C 
ATOM     23  C   UNL     1      -4.367  14.254  23.303  0.00  0.00    -0.046 C 
ATOM     24  C   UNL     1      -4.887  12.999  22.602  0.00  0.00    +0.007 C 
ATOM     25  H   UNL     1      -2.406  11.477  23.467  0.00  0.00    +0.049 HD
ATOM     26  H   UNL     1      -0.930  11.889  22.589  0.00  0.00    +0.049 HD
ATOM     27  H   UNL     1      -1.073  13.563  24.238  0.00  0.00    +0.028 HD
ATOM     28  H   UNL     1      -1.597  14.374  22.760  0.00  0.00    +0.028 HD
ATOM     29  H   UNL     1      -3.415  13.256  24.972  0.00  0.00    +0.027 HD
ATOM     30  H   UNL     1      -2.959  14.932  24.758  0.00  0.00    +0.027 HD
ATOM     31  H   UNL     1      -4.126  15.034  22.570  0.00  0.00    +0.027 HD
ATOM     32  H   UNL     1      -5.175  14.650  23.933  0.00  0.00    +0.027 HD
ATOM     33  H   UNL     1      -5.892  13.211  22.210  0.00  0.00    +0.034 HD
ATOM     34  H   UNL     1      -4.991  12.164  23.308  0.00  0.00    +0.034 HD
ENDBRANCH   9  15
ENDBRANCH   3   5
BRANCH   2  35
ATOM     35  C   UNL     1       1.498   6.277  20.065  0.00  0.00    +0.037 A 
ATOM     36  C   UNL     1       0.759   5.203  20.576  0.00  0.00    -0.050 A 
ATOM     37  C   UNL     1       1.007   3.906  20.118  0.00  0.00    -0.061 A 
ATOM     38  C   UNL     1       2.002   3.675  19.167  0.00  0.00    -0.057 A 
ATOM     39  C   UNL     1       2.790   4.732  18.683  0.00  0.00    -0.029 A 
ATOM     40  C   UNL     1       2.526   6.035  19.141  0.00  0.00    -0.045 A 
ATOM     41  H   UNL     1      -0.005   5.355  21.335  0.00  0.00    +0.063 HD
ATOM     42  H   UNL     1       0.421   3.070  20.497  0.00  0.00    +0.062 HD
ATOM     43  H   UNL     1       2.151   2.661  18.805  0.00  0.00    +0.062 HD
ATOM     44  H   UNL     1       3.111   6.875  18.767  0.00  0.00    +0.063 HD
BRANCH  39  45
ATOM     45  C   UNL     1       3.862   4.504  17.641  0.00  0.00    +0.048 C 
ATOM     46  H   UNL     1       4.223   3.474  17.733  0.00  0.00    +0.052 HD
ATOM     47  H   UNL     1       3.439   4.620  16.635  0.00  0.00    +0.052 HD
BRANCH  45  48
ATOM     48  N   UNL     1       4.978   5.418  17.760  0.00  0.00    -0.230 N 
ATOM     49  C   UNL     1       5.111   6.566  17.029  0.00  0.00    +0.254 C 
ATOM     50  O   UNL     1       4.380   7.020  16.173  0.00  0.00    -0.270 OA
ATOM     51  C   UNL     1       6.359   7.195  17.459  0.00  0.00    +0.049 A 
ATOM     52  C   UNL     1       6.962   8.365  17.040  0.00  0.00    -0.049 A 
ATOM     53  C   UNL     1       8.170   8.715  17.650  0.00  0.00    -0.061 A 
ATOM     54  C   UNL     1       8.741   7.895  18.646  0.00  0.00    -0.061 A 
ATOM     55  C   UNL     1       8.110   6.712  19.052  0.00  0.00    -0.049 A 
ATOM     56  C   UNL     1       6.915   6.392  18.437  0.00  0.00    +0.049 A 
ATOM     57  C   UNL     1       6.018   5.252  18.635  0.00  0.00    +0.254 C 
ATOM     58  O   UNL     1       6.207   4.374  19.453  0.00  0.00    -0.270 OA
ATOM     59  H   UNL     1       6.509   8.984  16.270  0.00  0.00    +0.063 HD
ATOM     60  H   UNL     1       8.679   9.631  17.352  0.00  0.00    +0.062 HD
ATOM     61  H   UNL     1       9.683   8.185  19.103  0.00  0.00    +0.062 HD
ATOM     62  H   UNL     1       8.537   6.070  19.814  0.00  0.00    +0.063 HD
ENDBRANCH  45  48
ENDBRANCH  39  45
ENDBRANCH   2  35
TORSDOF 5
ENDMDL
MODEL 28
REMARK VINA RESULT:    -7.739      2.128      3.473
REMARK INTER + INTRA:         -10.429
REMARK INTER:                 -10.052
REMARK INTRA:                  -0.377
REMARK UNBOUND:                -0.429
REMARK  Name = 
REMARK  5 active torsions:
REMARK  status: ('A' for Active; 'I' for Inactive)
REMARK    1  A    between atoms: C_2  and  C_20
REMARK    2  A    between atoms: N_3  and  C_4
REMARK    3  A    between atoms: C_8  and  C_9
REMARK    4  A    between atoms: C_24  and  C_25
REMARK    5  A    between atoms: C_25  and  N_26
REMARK                            x       y       z     vdW  Elec       q    Type
REMARK                         _______ _______ _______ _____ _____    ______ ____
ROOT
ATOM      1  O   UNL     1       2.076   7.566  19.508  0.00  0.00    -0.270 OA
ATOM      2  C   UNL     1       1.619   6.874  20.410  0.00  0.00    +0.248 C 
ATOM      3  N   UNL     1       0.734   7.282  21.392  0.00  0.00    -0.281 N 
ATOM      4  H   UNL     1       0.325   6.559  21.972  0.00  0.00    +0.155 HD
ENDROOT
BRANCH   3   5
ATOM      5  C   UNL     1       0.236   8.583  21.609  0.00  0.00    +0.034 A 
ATOM      6  C   UNL     1       0.078   9.162  22.870  0.00  0.00    -0.040 A 
ATOM      7  C   UNL     1      -0.433  10.456  22.997  0.00  0.00    -0.059 A 
ATOM      8  C   UNL     1      -0.776  11.190  21.860  0.00  0.00    -0.051 A 
ATOM      9  C   UNL     1      -0.610  10.631  20.592  0.00  0.00    +0.021 A 
ATOM     10  C   UNL     1      -0.128   9.321  20.475  0.00  0.00    -0.030 A 
ATOM     11  H   UNL     1       0.325   8.620  23.781  0.00  0.00    +0.064 HD
ATOM     12  H   UNL     1      -0.572  10.886  23.986  0.00  0.00    +0.062 HD
ATOM     13  H   UNL     1      -1.183  12.191  21.974  0.00  0.00    +0.062 HD
ATOM     14  H   UNL     1      -0.031   8.888  19.482  0.00  0.00    +0.064 HD
BRANCH   9  15
ATOM     15  C   UNL     1      -0.934  11.378  19.384  0.00  0.00    +0.164 A 
ATOM     16  N   UNL     1      -0.728  12.667  19.203  0.00  0.00    -0.129 NA
ATOM     17  N   UNL     1      -1.225  13.020  17.974  0.00  0.00    -0.134 NA
ATOM     18  C   UNL     1      -1.749  11.950  17.426  0.00  0.00    +0.134 A 
ATOM     19  N   UNL     1      -1.590  10.889  18.278  0.00  0.00    -0.311 N 
ATOM     20  C   UNL     1      -2.121   9.563  18.068  0.00  0.00    +0.026 C 
ATOM     21  C   UNL     1      -3.646   9.535  17.939  0.00  0.00    -0.035 C 
ATOM     22  C   UNL     1      -4.167  10.025  16.587  0.00  0.00    -0.051 C 
ATOM     23  C   UNL     1      -3.931  11.508  16.297  0.00  0.00    -0.046 C 
ATOM     24  C   UNL     1      -2.459  11.880  16.124  0.00  0.00    +0.007 C 
ATOM     25  H   UNL     1      -1.637   9.153  17.171  0.00  0.00    +0.049 HD
ATOM     26  H   UNL     1      -1.829   8.930  18.913  0.00  0.00    +0.049 HD
ATOM     27  H   UNL     1      -3.981   8.494  18.063  0.00  0.00    +0.028 HD
ATOM     28  H   UNL     1      -4.113  10.116  18.749  0.00  0.00    +0.028 HD
ATOM     29  H   UNL     1      -3.743   9.415  15.779  0.00  0.00    +0.027 HD
ATOM     30  H   UNL     1      -5.249   9.849  16.560  0.00  0.00    +0.027 HD
ATOM     31  H   UNL     1      -4.394  12.118  17.083  0.00  0.00    +0.027 HD
ATOM     32  H   UNL     1      -4.455  11.747  15.362  0.00  0.00    +0.027 HD
ATOM     33  H   UNL     1      -2.406  12.872  15.653  0.00  0.00    +0.034 HD
ATOM     34  H   UNL     1      -1.949  11.180  15.448  0.00  0.00    +0.034 HD
ENDBRANCH   9  15
ENDBRANCH   3   5
BRANCH   2  35
ATOM     35  C   UNL     1       1.955   5.417  20.442  0.00  0.00    +0.037 A 
ATOM     36  C   UNL     1       0.997   4.441  20.741  0.00  0.00    -0.050 A 
ATOM     37  C   UNL     1       1.339   3.086  20.676  0.00  0.00    -0.061 A 
ATOM     38  C   UNL     1       2.636   2.705  20.334  0.00  0.00    -0.057 A 
ATOM     39  C   UNL     1       3.624   3.670  20.084  0.00  0.00    -0.029 A 
ATOM     40  C   UNL     1       3.270   5.030  20.140  0.00  0.00    -0.045 A 
ATOM     41  H   UNL     1      -0.014   4.714  21.033  0.00  0.00    +0.063 HD
ATOM     42  H   UNL     1       0.591   2.324  20.887  0.00  0.00    +0.062 HD
ATOM     43  H   UNL     1       2.864   1.644  20.259  0.00  0.00    +0.062 HD
ATOM     44  H   UNL     1       4.015   5.798  19.932  0.00  0.00    +0.063 HD
BRANCH  39  45
ATOM     45  C   UNL     1       5.032   3.276  19.696  0.00  0.00    +0.048 C 
ATOM     46  H   UNL     1       5.732   3.748  20.394  0.00  0.00    +0.052 HD
ATOM     47  H   UNL     1       5.156   2.189  19.784  0.00  0.00    +0.052 HD
BRANCH  45  48
ATOM     48  N   UNL     1       5.378   3.652  18.340  0.00  0.00    -0.230 N 
ATOM     49  C   UNL     1       6.462   4.415  18.009  0.00  0.00    +0.254 C 
ATOM     50  O   UNL     1       7.296   4.919  18.733  0.00  0.00    -0.270 OA
ATOM     51  C   UNL     1       6.451   4.549  16.553  0.00  0.00    +0.049 A 
ATOM     52  C   UNL     1       7.317   5.220  15.710  0.00  0.00    -0.049 A 
ATOM     53  C   UNL     1       7.045   5.163  14.339  0.00  0.00    -0.061 A 
ATOM     54  C   UNL     1       5.927   4.453  13.853  0.00  0.00    -0.061 A 
ATOM     55  C   UNL     1       5.064   3.783  14.730  0.00  0.00    -0.049 A 
ATOM     56  C   UNL     1       5.357   3.851  16.078  0.00  0.00    +0.049 A 
ATOM     57  C   UNL     1       4.673   3.265  17.232  0.00  0.00    +0.254 C 
ATOM     58  O   UNL     1       3.686   2.562  17.151  0.00  0.00    -0.270 OA
ATOM     59  H   UNL     1       8.172   5.763  16.102  0.00  0.00    +0.063 HD
ATOM     60  H   UNL     1       7.703   5.675  13.638  0.00  0.00    +0.062 HD
ATOM     61  H   UNL     1       5.734   4.426  12.784  0.00  0.00    +0.062 HD
ATOM     62  H   UNL     1       4.200   3.235  14.372  0.00  0.00    +0.063 HD
ENDBRANCH  45  48
ENDBRANCH  39  45
ENDBRANCH   2  35
TORSDOF 5
ENDMDL
MODEL 29
REMARK VINA RESULT:    -7.582      2.359      3.360
REMARK INTER + INTRA:         -10.226
REMARK INTER:                  -9.389
REMARK INTRA:                  -0.837
REMARK UNBOUND:                -0.429
REMARK  Name = 
REMARK  5 active torsions:
REMARK  status: ('A' for Active; 'I' for Inactive)
REMARK    1  A    between atoms: C_2  and  C_20
REMARK    2  A    between atoms: N_3  and  C_4
REMARK    3  A    between atoms: C_8  and  C_9
REMARK    4  A    between atoms: C_24  and  C_25
REMARK    5  A    between atoms: C_25  and  N_26
REMARK                            x       y       z     vdW  Elec       q    Type
REMARK                         _______ _______ _______ _____ _____    ______ ____
ROOT
ATOM      1  O   UNL     1       1.733   7.438  20.231  0.00  0.00    -0.270 OA
ATOM      2  C   UNL     1       1.966   7.305  19.035  0.00  0.00    +0.248 C 
ATOM      3  N   UNL     1       1.897   8.292  18.069  0.00  0.00    -0.281 N 
ATOM      4  H   UNL     1       2.271   8.067  17.155  0.00  0.00    +0.155 HD
ENDROOT
BRANCH   3   5
ATOM      5  C   UNL     1       1.473   9.626  18.236  0.00  0.00    +0.034 A 
ATOM      6  C   UNL     1       2.338  10.716  18.348  0.00  0.00    -0.040 A 
ATOM      7  C   UNL     1       1.833  12.008  18.521  0.00  0.00    -0.059 A 
ATOM      8  C   UNL     1       0.454  12.222  18.566  0.00  0.00    -0.051 A 
ATOM      9  C   UNL     1      -0.424  11.144  18.440  0.00  0.00    +0.021 A 
ATOM     10  C   UNL     1       0.091   9.849  18.300  0.00  0.00    -0.030 A 
ATOM     11  H   UNL     1       3.419  10.591  18.327  0.00  0.00    +0.064 HD
ATOM     12  H   UNL     1       2.518  12.845  18.629  0.00  0.00    +0.062 HD
ATOM     13  H   UNL     1       0.076  13.230  18.712  0.00  0.00    +0.062 HD
ATOM     14  H   UNL     1      -0.605   9.016  18.232  0.00  0.00    +0.064 HD
BRANCH   9  15
ATOM     15  C   UNL     1      -1.868  11.335  18.458  0.00  0.00    +0.164 A 
ATOM     16  N   UNL     1      -2.675  11.168  17.429  0.00  0.00    -0.129 NA
ATOM     17  N   UNL     1      -3.947  11.508  17.813  0.00  0.00    -0.134 NA
ATOM     18  C   UNL     1      -3.903  11.899  19.064  0.00  0.00    +0.134 A 
ATOM     19  N   UNL     1      -2.612  11.808  19.514  0.00  0.00    -0.311 N 
ATOM     20  C   UNL     1      -2.148  12.239  20.811  0.00  0.00    +0.026 C 
ATOM     21  C   UNL     1      -2.384  13.729  21.073  0.00  0.00    -0.035 C 
ATOM     22  C   UNL     1      -3.834  14.081  21.407  0.00  0.00    -0.051 C 
ATOM     23  C   UNL     1      -4.832  13.881  20.265  0.00  0.00    -0.046 C 
ATOM     24  C   UNL     1      -5.037  12.418  19.870  0.00  0.00    +0.007 C 
ATOM     25  H   UNL     1      -2.649  11.617  21.565  0.00  0.00    +0.049 HD
ATOM     26  H   UNL     1      -1.073  12.037  20.886  0.00  0.00    +0.049 HD
ATOM     27  H   UNL     1      -1.767  14.027  21.935  0.00  0.00    +0.028 HD
ATOM     28  H   UNL     1      -2.043  14.331  20.217  0.00  0.00    +0.028 HD
ATOM     29  H   UNL     1      -4.162  13.522  22.292  0.00  0.00    +0.027 HD
ATOM     30  H   UNL     1      -3.866  15.140  21.693  0.00  0.00    +0.027 HD
ATOM     31  H   UNL     1      -4.527  14.476  19.395  0.00  0.00    +0.027 HD
ATOM     32  H   UNL     1      -5.799  14.281  20.599  0.00  0.00    +0.027 HD
ATOM     33  H   UNL     1      -5.949  12.348  19.260  0.00  0.00    +0.034 HD
ATOM     34  H   UNL     1      -5.197  11.787  20.754  0.00  0.00    +0.034 HD
ENDBRANCH   9  15
ENDBRANCH   3   5
BRANCH   2  35
ATOM     35  C   UNL     1       2.462   5.984  18.541  0.00  0.00    +0.037 A 
ATOM     36  C   UNL     1       1.596   4.912  18.292  0.00  0.00    -0.050 A 
ATOM     37  C   UNL     1       2.097   3.723  17.751  0.00  0.00    -0.061 A 
ATOM     38  C   UNL     1       3.458   3.595  17.478  0.00  0.00    -0.057 A 
ATOM     39  C   UNL     1       4.350   4.639  17.772  0.00  0.00    -0.029 A 
ATOM     40  C   UNL     1       3.837   5.834  18.305  0.00  0.00    -0.045 A 
ATOM     41  H   UNL     1       0.535   4.980  18.519  0.00  0.00    +0.063 HD
ATOM     42  H   UNL     1       1.424   2.895  17.536  0.00  0.00    +0.062 HD
ATOM     43  H   UNL     1       3.814   2.671  17.027  0.00  0.00    +0.062 HD
ATOM     44  H   UNL     1       4.507   6.666  18.525  0.00  0.00    +0.063 HD
BRANCH  39  45
ATOM     45  C   UNL     1       5.827   4.523  17.467  0.00  0.00    +0.048 C 
ATOM     46  H   UNL     1       6.251   3.729  18.092  0.00  0.00    +0.052 HD
ATOM     47  H   UNL     1       5.974   4.237  16.418  0.00  0.00    +0.052 HD
BRANCH  45  48
ATOM     48  N   UNL     1       6.556   5.755  17.695  0.00  0.00    -0.230 N 
ATOM     49  C   UNL     1       6.437   6.872  16.917  0.00  0.00    +0.254 C 
ATOM     50  O   UNL     1       5.756   7.049  15.927  0.00  0.00    -0.270 OA
ATOM     51  C   UNL     1       7.325   7.881  17.491  0.00  0.00    +0.049 A 
ATOM     52  C   UNL     1       7.585   9.177  17.091  0.00  0.00    -0.049 A 
ATOM     53  C   UNL     1       8.495   9.912  17.857  0.00  0.00    -0.061 A 
ATOM     54  C   UNL     1       9.120   9.339  18.984  0.00  0.00    -0.061 A 
ATOM     55  C   UNL     1       8.841   8.021  19.367  0.00  0.00    -0.049 A 
ATOM     56  C   UNL     1       7.934   7.318  18.597  0.00  0.00    +0.049 A 
ATOM     57  C   UNL     1       7.428   5.951  18.732  0.00  0.00    +0.254 C 
ATOM     58  O   UNL     1       7.746   5.194  19.628  0.00  0.00    -0.270 OA
ATOM     59  H   UNL     1       7.096   9.602  16.219  0.00  0.00    +0.063 HD
ATOM     60  H   UNL     1       8.727  10.940  17.578  0.00  0.00    +0.062 HD
ATOM     61  H   UNL     1       9.827   9.927  19.562  0.00  0.00    +0.062 HD
ATOM     62  H   UNL     1       9.314   7.565  20.230  0.00  0.00    +0.063 HD
ENDBRANCH  45  48
ENDBRANCH  39  45
ENDBRANCH   2  35
TORSDOF 5
ENDMDL
MODEL 30
REMARK VINA RESULT:    -7.498      3.015      4.406
REMARK INTER + INTRA:         -10.119
REMARK INTER:                  -8.996
REMARK INTRA:                  -1.123
REMARK UNBOUND:                -0.429
REMARK  Name = 
REMARK  5 active torsions:
REMARK  status: ('A' for Active; 'I' for Inactive)
REMARK    1  A    between atoms: C_2  and  C_20
REMARK    2  A    between atoms: N_3  and  C_4
REMARK    3  A    between atoms: C_8  and  C_9
REMARK    4  A    between atoms: C_24  and  C_25
REMARK    5  A    between atoms: C_25  and  N_26
REMARK                            x       y       z     vdW  Elec       q    Type
REMARK                         _______ _______ _______ _____ _____    ______ ____
ROOT
ATOM      1  O   UNL     1       0.722   4.992  20.765  0.00  0.00    -0.270 OA
ATOM      2  C   UNL     1       1.609   5.326  19.989  0.00  0.00    +0.248 C 
ATOM      3  N   UNL     1       2.092   6.607  19.794  0.00  0.00    -0.281 N 
ATOM      4  H   UNL     1       2.933   6.702  19.236  0.00  0.00    +0.155 HD
ENDROOT
BRANCH   3   5
ATOM      5  C   UNL     1       1.619   7.800  20.379  0.00  0.00    +0.034 A 
ATOM      6  C   UNL     1       1.725   8.102  21.738  0.00  0.00    -0.040 A 
ATOM      7  C   UNL     1       1.220   9.306  22.238  0.00  0.00    -0.059 A 
ATOM      8  C   UNL     1       0.619  10.226  21.378  0.00  0.00    -0.051 A 
ATOM      9  C   UNL     1       0.519   9.945  20.014  0.00  0.00    +0.021 A 
ATOM     10  C   UNL     1       0.998   8.722  19.527  0.00  0.00    -0.030 A 
ATOM     11  H   UNL     1       2.179   7.408  22.443  0.00  0.00    +0.064 HD
ATOM     12  H   UNL     1       1.290   9.518  23.302  0.00  0.00    +0.062 HD
ATOM     13  H   UNL     1       0.221  11.152  21.782  0.00  0.00    +0.062 HD
ATOM     14  H   UNL     1       0.887   8.504  18.466  0.00  0.00    +0.064 HD
BRANCH   9  15
ATOM     15  C   UNL     1      -0.081  10.893  19.085  0.00  0.00    +0.164 A 
ATOM     16  N   UNL     1       0.131  12.194  19.077  0.00  0.00    -0.129 NA
ATOM     17  N   UNL     1      -0.659  12.759  18.108  0.00  0.00    -0.134 NA
ATOM     18  C   UNL     1      -1.360  11.802  17.548  0.00  0.00    +0.134 A 
ATOM     19  N   UNL     1      -1.030  10.607  18.132  0.00  0.00    -0.311 N 
ATOM     20  C   UNL     1      -1.659   9.339  17.850  0.00  0.00    +0.026 C 
ATOM     21  C   UNL     1      -3.163   9.333  18.137  0.00  0.00    -0.035 C 
ATOM     22  C   UNL     1      -4.002  10.054  17.080  0.00  0.00    -0.051 C 
ATOM     23  C   UNL     1      -3.783  11.565  16.995  0.00  0.00    -0.046 C 
ATOM     24  C   UNL     1      -2.394  11.963  16.495  0.00  0.00    +0.007 C 
ATOM     25  H   UNL     1      -1.452   9.094  16.800  0.00  0.00    +0.049 HD
ATOM     26  H   UNL     1      -1.183   8.566  18.464  0.00  0.00    +0.049 HD
ATOM     27  H   UNL     1      -3.501   8.286  18.167  0.00  0.00    +0.028 HD
ATOM     28  H   UNL     1      -3.369   9.761  19.129  0.00  0.00    +0.028 HD
ATOM     29  H   UNL     1      -3.839   9.596  16.096  0.00  0.00    +0.027 HD
ATOM     30  H   UNL     1      -5.059   9.884  17.317  0.00  0.00    +0.027 HD
ATOM     31  H   UNL     1      -3.990  12.026  17.968  0.00  0.00    +0.027 HD
ATOM     32  H   UNL     1      -4.525  11.965  16.291  0.00  0.00    +0.027 HD
ATOM     33  H   UNL     1      -2.421  13.023  16.203  0.00  0.00    +0.034 HD
ATOM     34  H   UNL     1      -2.117  11.394  15.597  0.00  0.00    +0.034 HD
ENDBRANCH   9  15
ENDBRANCH   3   5
BRANCH   2  35
ATOM     35  C   UNL     1       2.330   4.265  19.220  0.00  0.00    +0.037 A 
ATOM     36  C   UNL     1       2.037   2.905  19.380  0.00  0.00    -0.050 A 
ATOM     37  C   UNL     1       2.680   1.956  18.578  0.00  0.00    -0.061 A 
ATOM     38  C   UNL     1       3.625   2.358  17.635  0.00  0.00    -0.057 A 
ATOM     39  C   UNL     1       3.971   3.712  17.498  0.00  0.00    -0.029 A 
ATOM     40  C   UNL     1       3.313   4.660  18.300  0.00  0.00    -0.045 A 
ATOM     41  H   UNL     1       1.322   2.565  20.124  0.00  0.00    +0.063 HD
ATOM     42  H   UNL     1       2.440   0.899  18.683  0.00  0.00    +0.062 HD
ATOM     43  H   UNL     1       4.085   1.601  17.003  0.00  0.00    +0.062 HD
ATOM     44  H   UNL     1       3.551   5.720  18.201  0.00  0.00    +0.063 HD
BRANCH  39  45
ATOM     45  C   UNL     1       4.982   4.168  16.470  0.00  0.00    +0.048 C 
ATOM     46  H   UNL     1       5.619   3.316  16.206  0.00  0.00    +0.052 HD
ATOM     47  H   UNL     1       4.469   4.496  15.557  0.00  0.00    +0.052 HD
BRANCH  45  48
ATOM     48  N   UNL     1       5.811   5.263  16.929  0.00  0.00    -0.230 N 
ATOM     49  C   UNL     1       5.714   6.546  16.466  0.00  0.00    +0.254 C 
ATOM     50  O   UNL     1       4.975   7.001  15.617  0.00  0.00    -0.270 OA
ATOM     51  C   UNL     1       6.712   7.331  17.191  0.00  0.00    +0.049 A 
ATOM     52  C   UNL     1       7.032   8.672  17.102  0.00  0.00    -0.049 A 
ATOM     53  C   UNL     1       8.046   9.143  17.941  0.00  0.00    -0.061 A 
ATOM     54  C   UNL     1       8.711   8.273  18.831  0.00  0.00    -0.061 A 
ATOM     55  C   UNL     1       8.368   6.916  18.899  0.00  0.00    -0.049 A 
ATOM     56  C   UNL     1       7.360   6.477  18.063  0.00  0.00    +0.049 A 
ATOM     57  C   UNL     1       6.770   5.147  17.900  0.00  0.00    +0.254 C 
ATOM     58  O   UNL     1       7.099   4.174  18.548  0.00  0.00    -0.270 OA
ATOM     59  H   UNL     1       6.511   9.327  16.411  0.00  0.00    +0.063 HD
ATOM     60  H   UNL     1       8.329  10.195  17.907  0.00  0.00    +0.062 HD
ATOM     61  H   UNL     1       9.499   8.660  19.471  0.00  0.00    +0.062 HD
ATOM     62  H   UNL     1       8.871   6.234  19.575  0.00  0.00    +0.063 HD
ENDBRANCH  45  48
ENDBRANCH  39  45
ENDBRANCH   2  35
TORSDOF 5
ENDMDL
MODEL 31
REMARK VINA RESULT:    -7.386      3.602      9.848
REMARK INTER + INTRA:          -9.973
REMARK INTER:                  -8.867
REMARK INTRA:                  -1.106
REMARK UNBOUND:                -0.429
REMARK  Name = 
REMARK  5 active torsions:
REMARK  status: ('A' for Active; 'I' for Inactive)
REMARK    1  A    between atoms: C_2  and  C_20
REMARK    2  A    between atoms: N_3  and  C_4
REMARK    3  A    between atoms: C_8  and  C_9
REMARK    4  A    between atoms: C_24  and  C_25
REMARK    5  A    between atoms: C_25  and  N_26
REMARK                            x       y       z     vdW  Elec       q    Type
REMARK                         _______ _______ _______ _____ _____    ______ ____
ROOT
ATOM      1  O   UNL     1       1.609   8.798  19.941  0.00  0.00    -0.270 OA
ATOM      2  C   UNL     1       1.465   9.337  18.851  0.00  0.00    +0.248 C 
ATOM      3  N   UNL     1       2.097   8.988  17.671  0.00  0.00    -0.281 N 
ATOM      4  H   UNL     1       1.757   9.423  16.821  0.00  0.00    +0.155 HD
ENDROOT
BRANCH   3   5
ATOM      5  C   UNL     1       3.088   8.003  17.489  0.00  0.00    +0.034 A 
ATOM      6  C   UNL     1       4.401   8.273  17.097  0.00  0.00    -0.040 A 
ATOM      7  C   UNL     1       5.319   7.233  16.930  0.00  0.00    -0.059 A 
ATOM      8  C   UNL     1       4.937   5.912  17.171  0.00  0.00    -0.051 A 
ATOM      9  C   UNL     1       3.632   5.627  17.578  0.00  0.00    +0.021 A 
ATOM     10  C   UNL     1       2.709   6.672  17.711  0.00  0.00    -0.030 A 
ATOM     11  H   UNL     1       4.737   9.288  16.891  0.00  0.00    +0.064 HD
ATOM     12  H   UNL     1       6.332   7.456  16.603  0.00  0.00    +0.062 HD
ATOM     13  H   UNL     1       5.658   5.114  17.026  0.00  0.00    +0.062 HD
ATOM     14  H   UNL     1       1.688   6.432  18.001  0.00  0.00    +0.064 HD
BRANCH   9  15
ATOM     15  C   UNL     1       3.206   4.263  17.861  0.00  0.00    +0.164 A 
ATOM     16  N   UNL     1       2.783   3.393  16.966  0.00  0.00    -0.129 NA
ATOM     17  N   UNL     1       2.406   2.246  17.618  0.00  0.00    -0.134 NA
ATOM     18  C   UNL     1       2.582   2.433  18.904  0.00  0.00    +0.134 A 
ATOM     19  N   UNL     1       3.085   3.692  19.106  0.00  0.00    -0.311 N 
ATOM     20  C   UNL     1       3.320   4.299  20.395  0.00  0.00    +0.026 C 
ATOM     21  C   UNL     1       2.056   4.410  21.251  0.00  0.00    -0.035 C 
ATOM     22  C   UNL     1       1.615   3.090  21.885  0.00  0.00    -0.051 C 
ATOM     23  C   UNL     1       1.140   2.021  20.899  0.00  0.00    -0.046 C 
ATOM     24  C   UNL     1       2.245   1.480  19.992  0.00  0.00    +0.007 C 
ATOM     25  H   UNL     1       4.095   3.708  20.902  0.00  0.00    +0.049 HD
ATOM     26  H   UNL     1       3.727   5.305  20.241  0.00  0.00    +0.049 HD
ATOM     27  H   UNL     1       2.258   5.116  22.071  0.00  0.00    +0.028 HD
ATOM     28  H   UNL     1       1.228   4.835  20.664  0.00  0.00    +0.028 HD
ATOM     29  H   UNL     1       2.420   2.688  22.513  0.00  0.00    +0.027 HD
ATOM     30  H   UNL     1       0.783   3.306  22.567  0.00  0.00    +0.027 HD
ATOM     31  H   UNL     1       0.305   2.409  20.303  0.00  0.00    +0.027 HD
ATOM     32  H   UNL     1       0.745   1.183  21.489  0.00  0.00    +0.027 HD
ATOM     33  H   UNL     1       1.889   0.548  19.530  0.00  0.00    +0.034 HD
ATOM     34  H   UNL     1       3.144   1.226  20.568  0.00  0.00    +0.034 HD
ENDBRANCH   9  15
ENDBRANCH   3   5
BRANCH   2  35
ATOM     35  C   UNL     1       0.451  10.427  18.714  0.00  0.00    +0.037 A 
ATOM     36  C   UNL     1      -0.919  10.157  18.610  0.00  0.00    -0.050 A 
ATOM     37  C   UNL     1      -1.836  11.213  18.569  0.00  0.00    -0.061 A 
ATOM     38  C   UNL     1      -1.389  12.533  18.612  0.00  0.00    -0.057 A 
ATOM     39  C   UNL     1      -0.016  12.824  18.661  0.00  0.00    -0.029 A 
ATOM     40  C   UNL     1       0.898  11.757  18.713  0.00  0.00    -0.045 A 
ATOM     41  H   UNL     1      -1.291   9.137  18.551  0.00  0.00    +0.063 HD
ATOM     42  H   UNL     1      -2.904  11.008  18.510  0.00  0.00    +0.062 HD
ATOM     43  H   UNL     1      -2.126  13.333  18.611  0.00  0.00    +0.062 HD
ATOM     44  H   UNL     1       1.968  11.957  18.771  0.00  0.00    +0.063 HD
BRANCH  39  45
ATOM     45  C   UNL     1       0.486  14.250  18.724  0.00  0.00    +0.048 C 
ATOM     46  H   UNL     1       0.535  14.647  17.704  0.00  0.00    +0.052 HD
ATOM     47  H   UNL     1      -0.217  14.872  19.292  0.00  0.00    +0.052 HD
BRANCH  45  48
ATOM     48  N   UNL     1       1.787  14.370  19.350  0.00  0.00    -0.230 N 
ATOM     49  C   UNL     1       2.932  14.701  18.682  0.00  0.00    +0.254 C 
ATOM     50  O   UNL     1       3.092  14.932  17.500  0.00  0.00    -0.270 OA
ATOM     51  C   UNL     1       4.006  14.724  19.674  0.00  0.00    +0.049 A 
ATOM     52  C   UNL     1       5.353  14.995  19.529  0.00  0.00    -0.049 A 
ATOM     53  C   UNL     1       6.142  14.942  20.682  0.00  0.00    -0.061 A 
ATOM     54  C   UNL     1       5.576  14.616  21.932  0.00  0.00    -0.061 A 
ATOM     55  C   UNL     1       4.207  14.343  22.051  0.00  0.00    -0.049 A 
ATOM     56  C   UNL     1       3.448  14.407  20.898  0.00  0.00    +0.049 A 
ATOM     57  C   UNL     1       2.015  14.190  20.688  0.00  0.00    +0.254 C 
ATOM     58  O   UNL     1       1.232  13.924  21.577  0.00  0.00    -0.270 OA
ATOM     59  H   UNL     1       5.773  15.243  18.558  0.00  0.00    +0.063 HD
ATOM     60  H   UNL     1       7.209  15.152  20.614  0.00  0.00    +0.062 HD
ATOM     61  H   UNL     1       6.210  14.577  22.813  0.00  0.00    +0.062 HD
ATOM     62  H   UNL     1       3.757  14.089  23.004  0.00  0.00    +0.063 HD
ENDBRANCH  45  48
ENDBRANCH  39  45
ENDBRANCH   2  35
TORSDOF 5
ENDMDL
MODEL 32
REMARK VINA RESULT:    -7.269      2.791     10.784
REMARK INTER + INTRA:          -9.823
REMARK INTER:                  -9.394
REMARK INTRA:                  -0.429
REMARK UNBOUND:                -0.429
REMARK  Name = 
REMARK  5 active torsions:
REMARK  status: ('A' for Active; 'I' for Inactive)
REMARK    1  A    between atoms: C_2  and  C_20
REMARK    2  A    between atoms: N_3  and  C_4
REMARK    3  A    between atoms: C_8  and  C_9
REMARK    4  A    between atoms: C_24  and  C_25
REMARK    5  A    between atoms: C_25  and  N_26
REMARK                            x       y       z     vdW  Elec       q    Type
REMARK                         _______ _______ _______ _____ _____    ______ ____
ROOT
ATOM      1  O   UNL     1       2.200   6.077  21.524  0.00  0.00    -0.270 OA
ATOM      2  C   UNL     1       1.776   6.901  20.723  0.00  0.00    +0.248 C 
ATOM      3  N   UNL     1       1.779   6.786  19.345  0.00  0.00    -0.281 N 
ATOM      4  H   UNL     1       1.251   7.477  18.825  0.00  0.00    +0.155 HD
ENDROOT
BRANCH   3   5
ATOM      5  C   UNL     1       2.334   5.746  18.573  0.00  0.00    +0.034 A 
ATOM      6  C   UNL     1       1.716   4.512  18.358  0.00  0.00    -0.040 A 
ATOM      7  C   UNL     1       2.343   3.530  17.586  0.00  0.00    -0.059 A 
ATOM      8  C   UNL     1       3.588   3.781  17.006  0.00  0.00    -0.051 A 
ATOM      9  C   UNL     1       4.211   5.015  17.198  0.00  0.00    +0.021 A 
ATOM     10  C   UNL     1       3.591   5.981  18.001  0.00  0.00    -0.030 A 
ATOM     11  H   UNL     1       0.750   4.273  18.800  0.00  0.00    +0.064 HD
ATOM     12  H   UNL     1       1.861   2.566  17.446  0.00  0.00    +0.062 HD
ATOM     13  H   UNL     1       4.068   3.005  16.417  0.00  0.00    +0.062 HD
ATOM     14  H   UNL     1       4.103   6.928  18.166  0.00  0.00    +0.064 HD
BRANCH   9  15
ATOM     15  C   UNL     1       5.498   5.319  16.588  0.00  0.00    +0.164 A 
ATOM     16  N   UNL     1       6.263   6.350  16.889  0.00  0.00    -0.129 NA
ATOM     17  N   UNL     1       7.356   6.339  16.059  0.00  0.00    -0.134 NA
ATOM     18  C   UNL     1       7.238   5.316  15.247  0.00  0.00    +0.134 A 
ATOM     19  N   UNL     1       6.081   4.643  15.542  0.00  0.00    -0.311 N 
ATOM     20  C   UNL     1       5.559   3.519  14.803  0.00  0.00    +0.026 C 
ATOM     21  C   UNL     1       5.275   3.839  13.333  0.00  0.00    -0.035 C 
ATOM     22  C   UNL     1       6.528   3.911  12.458  0.00  0.00    -0.051 C 
ATOM     23  C   UNL     1       7.478   5.067  12.774  0.00  0.00    -0.046 C 
ATOM     24  C   UNL     1       8.158   4.955  14.138  0.00  0.00    +0.007 C 
ATOM     25  H   UNL     1       6.280   2.696  14.900  0.00  0.00    +0.049 HD
ATOM     26  H   UNL     1       4.626   3.190  15.275  0.00  0.00    +0.049 HD
ATOM     27  H   UNL     1       4.635   3.042  12.926  0.00  0.00    +0.028 HD
ATOM     28  H   UNL     1       4.707   4.778  13.245  0.00  0.00    +0.028 HD
ATOM     29  H   UNL     1       7.071   2.958  12.502  0.00  0.00    +0.027 HD
ATOM     30  H   UNL     1       6.204   4.023  11.416  0.00  0.00    +0.027 HD
ATOM     31  H   UNL     1       6.944   6.022  12.686  0.00  0.00    +0.027 HD
ATOM     32  H   UNL     1       8.261   5.069  12.004  0.00  0.00    +0.027 HD
ATOM     33  H   UNL     1       9.008   5.653  14.160  0.00  0.00    +0.034 HD
ATOM     34  H   UNL     1       8.569   3.949  14.296  0.00  0.00    +0.034 HD
ENDBRANCH   9  15
ENDBRANCH   3   5
BRANCH   2  35
ATOM     35  C   UNL     1       1.100   8.129  21.244  0.00  0.00    +0.037 A 
ATOM     36  C   UNL     1       0.715   8.252  22.584  0.00  0.00    -0.050 A 
ATOM     37  C   UNL     1       0.163   9.452  23.043  0.00  0.00    -0.061 A 
ATOM     38  C   UNL     1      -0.025  10.520  22.166  0.00  0.00    -0.057 A 
ATOM     39  C   UNL     1       0.305  10.397  20.806  0.00  0.00    -0.029 A 
ATOM     40  C   UNL     1       0.870   9.191  20.356  0.00  0.00    -0.045 A 
ATOM     41  H   UNL     1       0.829   7.426  23.282  0.00  0.00    +0.063 HD
ATOM     42  H   UNL     1      -0.118   9.560  24.089  0.00  0.00    +0.062 HD
ATOM     43  H   UNL     1      -0.426  11.452  22.557  0.00  0.00    +0.062 HD
ATOM     44  H   UNL     1       1.151   9.076  19.308  0.00  0.00    +0.063 HD
BRANCH  39  45
ATOM     45  C   UNL     1       0.124  11.549  19.843  0.00  0.00    +0.048 C 
ATOM     46  H   UNL     1      -0.056  12.462  20.422  0.00  0.00    +0.052 HD
ATOM     47  H   UNL     1       1.040  11.698  19.259  0.00  0.00    +0.052 HD
BRANCH  45  48
ATOM     48  N   UNL     1      -0.967  11.348  18.911  0.00  0.00    -0.230 N 
ATOM     49  C   UNL     1      -2.181  11.969  19.005  0.00  0.00    +0.254 C 
ATOM     50  O   UNL     1      -2.580  12.752  19.843  0.00  0.00    -0.270 OA
ATOM     51  C   UNL     1      -2.980  11.502  17.873  0.00  0.00    +0.049 A 
ATOM     52  C   UNL     1      -4.275  11.813  17.503  0.00  0.00    -0.049 A 
ATOM     53  C   UNL     1      -4.773  11.201  16.349  0.00  0.00    -0.061 A 
ATOM     54  C   UNL     1      -3.979  10.301  15.608  0.00  0.00    -0.061 A 
ATOM     55  C   UNL     1      -2.670  10.001  16.006  0.00  0.00    -0.049 A 
ATOM     56  C   UNL     1      -2.200  10.623  17.147  0.00  0.00    +0.049 A 
ATOM     57  C   UNL     1      -0.899  10.534  17.813  0.00  0.00    +0.254 C 
ATOM     58  O   UNL     1       0.028   9.863  17.404  0.00  0.00    -0.270 OA
ATOM     59  H   UNL     1      -4.872  12.507  18.087  0.00  0.00    +0.063 HD
ATOM     60  H   UNL     1      -5.788  11.420  16.019  0.00  0.00    +0.062 HD
ATOM     61  H   UNL     1      -4.389   9.835  14.716  0.00  0.00    +0.062 HD
ATOM     62  H   UNL     1      -2.048   9.310  15.449  0.00  0.00    +0.063 HD
ENDBRANCH  45  48
ENDBRANCH  39  45
ENDBRANCH   2  35
TORSDOF 5
ENDMDL
