MODEL 1
REMARK VINA RESULT:    -5.605      0.000      0.000
REMARK INTER + INTRA:          -6.798
REMARK INTER:                  -6.562
REMARK INTRA:                  -0.236
REMARK UNBOUND:                -0.211
REMARK  Name = 
REMARK  4 active torsions:
REMARK  status: ('A' for Active; 'I' for Inactive)
REMARK    1  A    between atoms: C_1  and  N_2
REMARK    2  A    between atoms: N_5  and  C_6
REMARK    3  A    between atoms: C_9  and  O_12
REMARK    4  A    between atoms: O_12  and  C_13
REMARK                            x       y       z     vdW  Elec       q    Type
REMARK                         _______ _______ _______ _____ _____    ______ ____
ROOT
ATOM      1  N   UNL     1       0.896  10.673  18.976  0.00  0.00    -0.302 NA
ATOM      2  C   UNL     1       1.997  10.192  18.114  0.00  0.00    +0.014 C 
ATOM      3  C   UNL     1       1.955   8.675  17.818  0.00  0.00    +0.025 C 
ATOM      4  N   UNL     1       2.045   7.901  19.069  0.00  0.00    -0.327 N 
ATOM      5  C   UNL     1       1.523   8.556  20.281  0.00  0.00    +0.025 C 
ATOM      6  C   UNL     1       0.464   9.628  19.929  0.00  0.00    +0.014 C 
ATOM      7  H   UNL     1       1.965  10.743  17.167  0.00  0.00    +0.044 HD
ATOM      8  H   UNL     1       2.969  10.409  18.581  0.00  0.00    +0.044 HD
ATOM      9  H   UNL     1       1.028   8.418  17.289  0.00  0.00    +0.048 HD
ATOM     10  H   UNL     1       2.800   8.448  17.159  0.00  0.00    +0.048 HD
ATOM     11  H   UNL     1       2.351   9.016  20.832  0.00  0.00    +0.048 HD
ATOM     12  H   UNL     1       1.037   7.825  20.939  0.00  0.00    +0.048 HD
ATOM     13  H   UNL     1       0.070  10.070  20.851  0.00  0.00    +0.044 HD
ATOM     14  H   UNL     1      -0.389   9.114  19.464  0.00  0.00    +0.044 HD
ENDROOT
BRANCH   4  15
ATOM     15  C   UNL     1       2.533   6.606  19.096  0.00  0.00    +0.031 A 
ATOM     16  C   UNL     1       2.147   5.690  20.084  0.00  0.00    -0.023 A 
ATOM     17  C   UNL     1       2.644   4.377  20.113  0.00  0.00    +0.061 A 
ATOM     18  C   UNL     1       3.551   3.928  19.148  0.00  0.00    +0.134 A 
ATOM     19  C   UNL     1       3.948   4.824  18.160  0.00  0.00    -0.017 A 
ATOM     20  C   UNL     1       3.447   6.136  18.141  0.00  0.00    -0.037 A 
ATOM     21 BR   UNL     1       2.041   3.238  21.515  0.00  0.00    -0.046 Br
ATOM     22  H   UNL     1       1.464   5.997  20.870  0.00  0.00    +0.065 HD
ATOM     23  H   UNL     1       4.645   4.544  17.376  0.00  0.00    +0.065 HD
ATOM     24  H   UNL     1       3.776   6.782  17.331  0.00  0.00    +0.064 HD
BRANCH  18  25
ATOM     25  O   UNL     1       3.985   2.634  19.249  0.00  0.00    -0.494 OA
BRANCH  25  26
ATOM     26  C   UNL     1       3.489   1.698  18.302  0.00  0.00    +0.079 C 
ATOM     27  H   UNL     1       3.810   2.026  17.308  0.00  0.00    +0.066 HD
ATOM     28  H   UNL     1       2.395   1.672  18.306  0.00  0.00    +0.066 HD
ATOM     29  H   UNL     1       3.910   0.701  18.473  0.00  0.00    +0.066 HD
ENDBRANCH  25  26
ENDBRANCH  18  25
ENDBRANCH   4  15
BRANCH   1  30
ATOM     30  C   UNL     1       1.280  11.905  19.659  0.00  0.00    -0.013 C 
ATOM     31  H   UNL     1       0.567  12.707  19.437  0.00  0.00    +0.039 HD
ATOM     32  H   UNL     1       2.282  12.243  19.371  0.00  0.00    +0.039 HD
ATOM     33  H   UNL     1       1.264  11.763  20.745  0.00  0.00    +0.039 HD
ENDBRANCH   1  30
TORSDOF 4
ENDMDL
MODEL 2
REMARK VINA RESULT:    -5.582      4.406      5.787
REMARK INTER + INTRA:          -6.772
REMARK INTER:                  -6.551
REMARK INTRA:                  -0.222
REMARK UNBOUND:                -0.211
REMARK  Name = 
REMARK  4 active torsions:
REMARK  status: ('A' for Active; 'I' for Inactive)
REMARK    1  A    between atoms: C_1  and  N_2
REMARK    2  A    between atoms: N_5  and  C_6
REMARK    3  A    between atoms: C_9  and  O_12
REMARK    4  A    between atoms: O_12  and  C_13
REMARK                            x       y       z     vdW  Elec       q    Type
REMARK                         _______ _______ _______ _____ _____    ______ ____
ROOT
ATOM      1  N   UNL     1       1.257   3.487  20.844  0.00  0.00    -0.302 NA
ATOM      2  C   UNL     1       2.351   4.463  21.037  0.00  0.00    +0.014 C 
ATOM      3  C   UNL     1       2.849   5.125  19.732  0.00  0.00    +0.025 C 
ATOM      4  N   UNL     1       3.368   4.107  18.801  0.00  0.00    -0.327 N 
ATOM      5  C   UNL     1       2.781   2.761  18.914  0.00  0.00    +0.025 C 
ATOM      6  C   UNL     1       1.363   2.815  19.531  0.00  0.00    +0.014 C 
ATOM      7  H   UNL     1       2.005   5.244  21.725  0.00  0.00    +0.044 HD
ATOM      8  H   UNL     1       3.216   3.977  21.511  0.00  0.00    +0.044 HD
ATOM      9  H   UNL     1       2.033   5.683  19.255  0.00  0.00    +0.048 HD
ATOM     10  H   UNL     1       3.636   5.837  20.006  0.00  0.00    +0.048 HD
ATOM     11  H   UNL     1       3.432   2.129  19.529  0.00  0.00    +0.048 HD
ATOM     12  H   UNL     1       2.685   2.294  17.925  0.00  0.00    +0.048 HD
ATOM     13  H   UNL     1       0.940   1.804  19.568  0.00  0.00    +0.044 HD
ATOM     14  H   UNL     1       0.719   3.376  18.840  0.00  0.00    +0.044 HD
ENDROOT
BRANCH   4  15
ATOM     15  C   UNL     1       4.307   4.411  17.832  0.00  0.00    +0.031 A 
ATOM     16  C   UNL     1       5.245   5.439  18.006  0.00  0.00    -0.023 A 
ATOM     17  C   UNL     1       6.197   5.749  17.022  0.00  0.00    +0.061 A 
ATOM     18  C   UNL     1       6.248   5.038  15.819  0.00  0.00    +0.134 A 
ATOM     19  C   UNL     1       5.323   4.016  15.626  0.00  0.00    -0.017 A 
ATOM     20  C   UNL     1       4.374   3.715  16.616  0.00  0.00    -0.037 A 
ATOM     21 BR   UNL     1       7.408   7.173  17.386  0.00  0.00    -0.046 Br
ATOM     22  H   UNL     1       5.232   6.036  18.913  0.00  0.00    +0.065 HD
ATOM     23  H   UNL     1       5.307   3.419  14.719  0.00  0.00    +0.065 HD
ATOM     24  H   UNL     1       3.693   2.891  16.418  0.00  0.00    +0.064 HD
BRANCH  18  25
ATOM     25  O   UNL     1       7.208   5.404  14.914  0.00  0.00    -0.494 OA
BRANCH  25  26
ATOM     26  C   UNL     1       7.192   4.767  13.644  0.00  0.00    +0.079 C 
ATOM     27  H   UNL     1       6.149   4.551  13.391  0.00  0.00    +0.066 HD
ATOM     28  H   UNL     1       7.731   3.814  13.672  0.00  0.00    +0.066 HD
ATOM     29  H   UNL     1       7.592   5.426  12.866  0.00  0.00    +0.066 HD
ENDBRANCH  25  26
ENDBRANCH  18  25
ENDBRANCH   4  15
BRANCH   1  30
ATOM     30  C   UNL     1       1.225   2.529  21.945  0.00  0.00    -0.013 C 
ATOM     31  H   UNL     1       0.427   2.781  22.652  0.00  0.00    +0.039 HD
ATOM     32  H   UNL     1       2.174   2.493  22.492  0.00  0.00    +0.039 HD
ATOM     33  H   UNL     1       1.005   1.523  21.571  0.00  0.00    +0.039 HD
ENDBRANCH   1  30
TORSDOF 4
ENDMDL
MODEL 3
REMARK VINA RESULT:    -5.572      0.522      1.340
REMARK INTER + INTRA:          -6.761
REMARK INTER:                  -6.531
REMARK INTRA:                  -0.230
REMARK UNBOUND:                -0.211
REMARK  Name = 
REMARK  4 active torsions:
REMARK  status: ('A' for Active; 'I' for Inactive)
REMARK    1  A    between atoms: C_1  and  N_2
REMARK    2  A    between atoms: N_5  and  C_6
REMARK    3  A    between atoms: C_9  and  O_12
REMARK    4  A    between atoms: O_12  and  C_13
REMARK                            x       y       z     vdW  Elec       q    Type
REMARK                         _______ _______ _______ _____ _____    ______ ____
ROOT
ATOM      1  N   UNL     1       0.963  10.588  19.203  0.00  0.00    -0.302 NA
ATOM      2  C   UNL     1       0.535   9.538  20.151  0.00  0.00    +0.014 C 
ATOM      3  C   UNL     1       1.609   8.462  20.434  0.00  0.00    +0.025 C 
ATOM      4  N   UNL     1       1.981   7.764  19.191  0.00  0.00    -0.327 N 
ATOM      5  C   UNL     1       1.843   8.535  17.943  0.00  0.00    +0.025 C 
ATOM      6  C   UNL     1       1.922  10.057  18.211  0.00  0.00    +0.014 C 
ATOM      7  H   UNL     1       0.249  10.016  21.096  0.00  0.00    +0.044 HD
ATOM      8  H   UNL     1      -0.357   9.020  19.770  0.00  0.00    +0.044 HD
ATOM      9  H   UNL     1       2.498   8.923  20.881  0.00  0.00    +0.048 HD
ATOM     10  H   UNL     1       1.184   7.760  21.161  0.00  0.00    +0.048 HD
ATOM     11  H   UNL     1       0.887   8.289  17.467  0.00  0.00    +0.048 HD
ATOM     12  H   UNL     1       2.649   8.288  17.241  0.00  0.00    +0.048 HD
ATOM     13  H   UNL     1       1.852  10.601  17.261  0.00  0.00    +0.044 HD
ATOM     14  H   UNL     1       2.926  10.276  18.599  0.00  0.00    +0.044 HD
ENDROOT
BRANCH   4  15
ATOM     15  C   UNL     1       2.494   6.479  19.197  0.00  0.00    +0.031 A 
ATOM     16  C   UNL     1       2.111   5.534  20.160  0.00  0.00    -0.023 A 
ATOM     17  C   UNL     1       2.632   4.230  20.168  0.00  0.00    +0.061 A 
ATOM     18  C   UNL     1       3.561   3.820  19.207  0.00  0.00    +0.134 A 
ATOM     19  C   UNL     1       3.956   4.744  18.244  0.00  0.00    -0.017 A 
ATOM     20  C   UNL     1       3.429   6.046  18.246  0.00  0.00    -0.037 A 
ATOM     21 BR   UNL     1       2.031   3.050  21.536  0.00  0.00    -0.046 Br
ATOM     22  H   UNL     1       1.410   5.811  20.942  0.00  0.00    +0.065 HD
ATOM     23  H   UNL     1       4.669   4.494  17.465  0.00  0.00    +0.065 HD
ATOM     24  H   UNL     1       3.758   6.716  17.455  0.00  0.00    +0.064 HD
BRANCH  18  25
ATOM     25  O   UNL     1       4.018   2.532  19.286  0.00  0.00    -0.494 OA
BRANCH  25  26
ATOM     26  C   UNL     1       3.516   1.595  18.343  0.00  0.00    +0.079 C 
ATOM     27  H   UNL     1       4.170   0.718  18.361  0.00  0.00    +0.066 HD
ATOM     28  H   UNL     1       3.539   2.005  17.328  0.00  0.00    +0.066 HD
ATOM     29  H   UNL     1       2.507   1.263  18.613  0.00  0.00    +0.066 HD
ENDBRANCH  25  26
ENDBRANCH  18  25
ENDBRANCH   4  15
BRANCH   1  30
ATOM     30  C   UNL     1      -0.197  11.204  18.563  0.00  0.00    -0.013 C 
ATOM     31  H   UNL     1       0.005  12.255  18.330  0.00  0.00    +0.039 HD
ATOM     32  H   UNL     1      -1.093  11.153  19.192  0.00  0.00    +0.039 HD
ATOM     33  H   UNL     1      -0.417  10.708  17.610  0.00  0.00    +0.039 HD
ENDBRANCH   1  30
TORSDOF 4
ENDMDL
MODEL 4
REMARK VINA RESULT:    -5.509      3.253      6.262
REMARK INTER + INTRA:          -6.687
REMARK INTER:                  -6.469
REMARK INTRA:                  -0.217
REMARK UNBOUND:                -0.211
REMARK  Name = 
REMARK  4 active torsions:
REMARK  status: ('A' for Active; 'I' for Inactive)
REMARK    1  A    between atoms: C_1  and  N_2
REMARK    2  A    between atoms: N_5  and  C_6
REMARK    3  A    between atoms: C_9  and  O_12
REMARK    4  A    between atoms: O_12  and  C_13
REMARK                            x       y       z     vdW  Elec       q    Type
REMARK                         _______ _______ _______ _____ _____    ______ ____
ROOT
ATOM      1  N   UNL     1       3.992   2.705  19.403  0.00  0.00    -0.302 NA
ATOM      2  C   UNL     1       4.607   3.821  18.652  0.00  0.00    +0.014 C 
ATOM      3  C   UNL     1       4.326   5.219  19.250  0.00  0.00    +0.025 C 
ATOM      4  N   UNL     1       2.878   5.490  19.275  0.00  0.00    -0.327 N 
ATOM      5  C   UNL     1       1.996   4.314  19.384  0.00  0.00    +0.025 C 
ATOM      6  C   UNL     1       2.728   3.122  20.045  0.00  0.00    +0.014 C 
ATOM      7  H   UNL     1       5.690   3.660  18.611  0.00  0.00    +0.044 HD
ATOM      8  H   UNL     1       4.242   3.828  17.614  0.00  0.00    +0.044 HD
ATOM      9  H   UNL     1       4.733   5.284  20.267  0.00  0.00    +0.048 HD
ATOM     10  H   UNL     1       4.847   5.952  18.625  0.00  0.00    +0.048 HD
ATOM     11  H   UNL     1       1.644   4.029  18.386  0.00  0.00    +0.048 HD
ATOM     12  H   UNL     1       1.120   4.541  20.004  0.00  0.00    +0.048 HD
ATOM     13  H   UNL     1       2.036   2.277  20.144  0.00  0.00    +0.044 HD
ATOM     14  H   UNL     1       2.980   3.414  21.073  0.00  0.00    +0.044 HD
ENDROOT
BRANCH   4  15
ATOM     15  C   UNL     1       2.373   6.778  19.263  0.00  0.00    +0.031 A 
ATOM     16  C   UNL     1       1.800   7.360  20.403  0.00  0.00    -0.023 A 
ATOM     17  C   UNL     1       1.285   8.666  20.389  0.00  0.00    +0.061 A 
ATOM     18  C   UNL     1       1.325   9.445  19.229  0.00  0.00    +0.134 A 
ATOM     19  C   UNL     1       1.889   8.884  18.086  0.00  0.00    -0.017 A 
ATOM     20  C   UNL     1       2.399   7.576  18.110  0.00  0.00    -0.037 A 
ATOM     21 BR   UNL     1       0.529   9.330  22.005  0.00  0.00    -0.046 Br
ATOM     22  H   UNL     1       1.723   6.788  21.322  0.00  0.00    +0.065 HD
ATOM     23  H   UNL     1       1.958   9.432  17.152  0.00  0.00    +0.065 HD
ATOM     24  H   UNL     1       2.847   7.201  17.193  0.00  0.00    +0.064 HD
BRANCH  18  25
ATOM     25  O   UNL     1       0.803  10.708  19.303  0.00  0.00    -0.494 OA
BRANCH  25  26
ATOM     26  C   UNL     1      -0.439  10.946  18.655  0.00  0.00    +0.079 C 
ATOM     27  H   UNL     1      -1.098  11.448  19.371  0.00  0.00    +0.066 HD
ATOM     28  H   UNL     1      -0.919  10.007  18.363  0.00  0.00    +0.066 HD
ATOM     29  H   UNL     1      -0.316  11.612  17.795  0.00  0.00    +0.066 HD
ENDBRANCH  25  26
ENDBRANCH  18  25
ENDBRANCH   4  15
BRANCH   1  30
ATOM     30  C   UNL     1       3.806   1.545  18.536  0.00  0.00    -0.013 C 
ATOM     31  H   UNL     1       4.454   1.614  17.656  0.00  0.00    +0.039 HD
ATOM     32  H   UNL     1       2.769   1.443  18.197  0.00  0.00    +0.039 HD
ATOM     33  H   UNL     1       4.088   0.625  19.061  0.00  0.00    +0.039 HD
ENDBRANCH   1  30
TORSDOF 4
ENDMDL
MODEL 5
REMARK VINA RESULT:    -5.401      3.358      6.172
REMARK INTER + INTRA:          -6.559
REMARK INTER:                  -6.324
REMARK INTRA:                  -0.235
REMARK UNBOUND:                -0.211
REMARK  Name = 
REMARK  4 active torsions:
REMARK  status: ('A' for Active; 'I' for Inactive)
REMARK    1  A    between atoms: C_1  and  N_2
REMARK    2  A    between atoms: N_5  and  C_6
REMARK    3  A    between atoms: C_9  and  O_12
REMARK    4  A    between atoms: O_12  and  C_13
REMARK                            x       y       z     vdW  Elec       q    Type
REMARK                         _______ _______ _______ _____ _____    ______ ____
ROOT
ATOM      1  N   UNL     1       5.420   4.383  17.936  0.00  0.00    -0.302 NA
ATOM      2  C   UNL     1       5.154   4.942  19.279  0.00  0.00    +0.014 C 
ATOM      3  C   UNL     1       3.728   5.514  19.456  0.00  0.00    +0.025 C 
ATOM      4  N   UNL     1       3.487   6.610  18.501  0.00  0.00    -0.327 N 
ATOM      5  C   UNL     1       4.239   6.548  17.235  0.00  0.00    +0.025 C 
ATOM      6  C   UNL     1       4.650   5.095  16.895  0.00  0.00    +0.014 C 
ATOM      7  H   UNL     1       5.319   4.155  20.024  0.00  0.00    +0.044 HD
ATOM      8  H   UNL     1       5.863   5.753  19.502  0.00  0.00    +0.044 HD
ATOM      9  H   UNL     1       2.982   4.723  19.309  0.00  0.00    +0.048 HD
ATOM     10  H   UNL     1       3.647   5.874  20.488  0.00  0.00    +0.048 HD
ATOM     11  H   UNL     1       5.130   7.180  17.309  0.00  0.00    +0.048 HD
ATOM     12  H   UNL     1       3.627   6.914  16.401  0.00  0.00    +0.048 HD
ATOM     13  H   UNL     1       5.174   5.078  15.932  0.00  0.00    +0.044 HD
ATOM     14  H   UNL     1       3.730   4.516  16.736  0.00  0.00    +0.044 HD
ENDROOT
BRANCH   4  15
ATOM     15  C   UNL     1       2.561   7.607  18.747  0.00  0.00    +0.031 A 
ATOM     16  C   UNL     1       1.983   7.785  20.013  0.00  0.00    -0.023 A 
ATOM     17  C   UNL     1       1.041   8.796  20.263  0.00  0.00    +0.061 A 
ATOM     18  C   UNL     1       0.641   9.673  19.252  0.00  0.00    +0.134 A 
ATOM     19  C   UNL     1       1.201   9.512  17.988  0.00  0.00    -0.017 A 
ATOM     20  C   UNL     1       2.141   8.496  17.747  0.00  0.00    -0.037 A 
ATOM     21 BR   UNL     1       0.332   8.921  22.025  0.00  0.00    -0.046 Br
ATOM     22  H   UNL     1       2.244   7.114  20.826  0.00  0.00    +0.065 HD
ATOM     23  H   UNL     1       0.940  10.159  17.156  0.00  0.00    +0.065 HD
ATOM     24  H   UNL     1       2.561   8.434  16.746  0.00  0.00    +0.064 HD
BRANCH  18  25
ATOM     25  O   UNL     1      -0.281  10.631  19.580  0.00  0.00    -0.494 OA
BRANCH  25  26
ATOM     26  C   UNL     1      -1.432  10.748  18.756  0.00  0.00    +0.079 C 
ATOM     27  H   UNL     1      -2.246  10.197  19.238  0.00  0.00    +0.066 HD
ATOM     28  H   UNL     1      -1.262  10.297  17.773  0.00  0.00    +0.066 HD
ATOM     29  H   UNL     1      -1.748  11.793  18.663  0.00  0.00    +0.066 HD
ENDBRANCH  25  26
ENDBRANCH  18  25
ENDBRANCH   4  15
BRANCH   1  30
ATOM     30  C   UNL     1       6.853   4.391  17.653  0.00  0.00    -0.013 C 
ATOM     31  H   UNL     1       7.055   3.941  16.675  0.00  0.00    +0.039 HD
ATOM     32  H   UNL     1       7.428   3.845  18.411  0.00  0.00    +0.039 HD
ATOM     33  H   UNL     1       7.229   5.419  17.610  0.00  0.00    +0.039 HD
ENDBRANCH   1  30
TORSDOF 4
ENDMDL
MODEL 6
REMARK VINA RESULT:    -5.350      1.515      1.926
REMARK INTER + INTRA:          -6.499
REMARK INTER:                  -6.266
REMARK INTRA:                  -0.233
REMARK UNBOUND:                -0.211
REMARK  Name = 
REMARK  4 active torsions:
REMARK  status: ('A' for Active; 'I' for Inactive)
REMARK    1  A    between atoms: C_1  and  N_2
REMARK    2  A    between atoms: N_5  and  C_6
REMARK    3  A    between atoms: C_9  and  O_12
REMARK    4  A    between atoms: O_12  and  C_13
REMARK                            x       y       z     vdW  Elec       q    Type
REMARK                         _______ _______ _______ _____ _____    ______ ____
ROOT
ATOM      1  N   UNL     1       0.854  10.741  18.992  0.00  0.00    -0.302 NA
ATOM      2  C   UNL     1       1.981  10.317  18.133  0.00  0.00    +0.014 C 
ATOM      3  C   UNL     1       1.975   8.813  17.775  0.00  0.00    +0.025 C 
ATOM      4  N   UNL     1       2.058   7.991  18.994  0.00  0.00    -0.327 N 
ATOM      5  C   UNL     1       1.501   8.585  20.221  0.00  0.00    +0.025 C 
ATOM      6  C   UNL     1       0.426   9.650  19.893  0.00  0.00    +0.014 C 
ATOM      7  H   UNL     1       1.955  10.906  17.208  0.00  0.00    +0.044 HD
ATOM      8  H   UNL     1       2.939  10.534  18.626  0.00  0.00    +0.044 HD
ATOM      9  H   UNL     1       1.064   8.560  17.218  0.00  0.00    +0.048 HD
ATOM     10  H   UNL     1       2.837   8.630  17.123  0.00  0.00    +0.048 HD
ATOM     11  H   UNL     1       2.309   9.039  20.806  0.00  0.00    +0.048 HD
ATOM     12  H   UNL     1       1.018   7.819  20.841  0.00  0.00    +0.048 HD
ATOM     13  H   UNL     1       0.006  10.046  20.825  0.00  0.00    +0.044 HD
ATOM     14  H   UNL     1      -0.407   9.139  19.391  0.00  0.00    +0.044 HD
ENDROOT
BRANCH   4  15
ATOM     15  C   UNL     1       2.572   6.706  18.978  0.00  0.00    +0.031 A 
ATOM     16  C   UNL     1       3.392   6.250  17.936  0.00  0.00    -0.023 A 
ATOM     17  C   UNL     1       3.912   4.945  17.918  0.00  0.00    +0.061 A 
ATOM     18  C   UNL     1       3.632   4.044  18.949  0.00  0.00    +0.134 A 
ATOM     19  C   UNL     1       2.818   4.478  19.992  0.00  0.00    -0.017 A 
ATOM     20  C   UNL     1       2.301   5.784  19.999  0.00  0.00    -0.037 A 
ATOM     21 BR   UNL     1       5.005   4.454  16.439  0.00  0.00    -0.046 Br
ATOM     22  H   UNL     1       3.619   6.904  17.100  0.00  0.00    +0.065 HD
ATOM     23  H   UNL     1       2.563   3.834  20.828  0.00  0.00    +0.065 HD
ATOM     24  H   UNL     1       1.691   6.072  20.852  0.00  0.00    +0.064 HD
BRANCH  18  25
ATOM     25  O   UNL     1       4.179   2.793  18.855  0.00  0.00    -0.494 OA
BRANCH  25  26
ATOM     26  C   UNL     1       3.317   1.721  18.502  0.00  0.00    +0.079 C 
ATOM     27  H   UNL     1       2.953   1.905  17.486  0.00  0.00    +0.066 HD
ATOM     28  H   UNL     1       2.446   1.679  19.164  0.00  0.00    +0.066 HD
ATOM     29  H   UNL     1       3.854   0.766  18.494  0.00  0.00    +0.066 HD
ENDBRANCH  25  26
ENDBRANCH  18  25
ENDBRANCH   4  15
BRANCH   1  30
ATOM     30  C   UNL     1       1.200  11.952  19.731  0.00  0.00    -0.013 C 
ATOM     31  H   UNL     1       2.240  12.237  19.537  0.00  0.00    +0.039 HD
ATOM     32  H   UNL     1       1.070  11.829  20.813  0.00  0.00    +0.039 HD
ATOM     33  H   UNL     1       0.578  12.792  19.403  0.00  0.00    +0.039 HD
ENDBRANCH   1  30
TORSDOF 4
ENDMDL
MODEL 7
REMARK VINA RESULT:    -5.309      3.315      5.898
REMARK INTER + INTRA:          -6.450
REMARK INTER:                  -6.226
REMARK INTRA:                  -0.224
REMARK UNBOUND:                -0.211
REMARK  Name = 
REMARK  4 active torsions:
REMARK  status: ('A' for Active; 'I' for Inactive)
REMARK    1  A    between atoms: C_1  and  N_2
REMARK    2  A    between atoms: N_5  and  C_6
REMARK    3  A    between atoms: C_9  and  O_12
REMARK    4  A    between atoms: O_12  and  C_13
REMARK                            x       y       z     vdW  Elec       q    Type
REMARK                         _______ _______ _______ _____ _____    ______ ____
ROOT
ATOM      1  N   UNL     1       6.417   4.414  14.572  0.00  0.00    -0.302 NA
ATOM      2  C   UNL     1       5.650   5.678  14.554  0.00  0.00    +0.014 C 
ATOM      3  C   UNL     1       5.364   6.267  15.955  0.00  0.00    +0.025 C 
ATOM      4  N   UNL     1       4.574   5.320  16.762  0.00  0.00    -0.327 N 
ATOM      5  C   UNL     1       4.748   3.891  16.447  0.00  0.00    +0.025 C 
ATOM      6  C   UNL     1       6.122   3.624  15.786  0.00  0.00    +0.014 C 
ATOM      7  H   UNL     1       6.206   6.416  13.962  0.00  0.00    +0.044 HD
ATOM      8  H   UNL     1       4.681   5.530  14.055  0.00  0.00    +0.044 HD
ATOM      9  H   UNL     1       6.306   6.496  16.469  0.00  0.00    +0.048 HD
ATOM     10  H   UNL     1       4.815   7.204  15.809  0.00  0.00    +0.048 HD
ATOM     11  H   UNL     1       3.943   3.564  15.780  0.00  0.00    +0.048 HD
ATOM     12  H   UNL     1       4.705   3.284  17.360  0.00  0.00    +0.048 HD
ATOM     13  H   UNL     1       6.235   2.550  15.598  0.00  0.00    +0.044 HD
ATOM     14  H   UNL     1       6.900   3.876  16.519  0.00  0.00    +0.044 HD
ENDROOT
BRANCH   4  15
ATOM     15  C   UNL     1       3.762   5.742  17.800  0.00  0.00    +0.031 A 
ATOM     16  C   UNL     1       3.349   4.870  18.818  0.00  0.00    -0.023 A 
ATOM     17  C   UNL     1       2.523   5.297  19.870  0.00  0.00    +0.061 A 
ATOM     18  C   UNL     1       2.078   6.620  19.945  0.00  0.00    +0.134 A 
ATOM     19  C   UNL     1       2.475   7.500  18.943  0.00  0.00    -0.017 A 
ATOM     20  C   UNL     1       3.300   7.063  17.894  0.00  0.00    -0.037 A 
ATOM     21 BR   UNL     1       2.033   4.008  21.183  0.00  0.00    -0.046 Br
ATOM     22  H   UNL     1       3.649   3.827  18.792  0.00  0.00    +0.065 HD
ATOM     23  H   UNL     1       2.172   8.542  18.939  0.00  0.00    +0.065 HD
ATOM     24  H   UNL     1       3.596   7.801  17.152  0.00  0.00    +0.064 HD
BRANCH  18  25
ATOM     25  O   UNL     1       1.277   6.953  21.004  0.00  0.00    -0.494 OA
BRANCH  25  26
ATOM     26  C   UNL     1       1.138   8.333  21.317  0.00  0.00    +0.079 C 
ATOM     27  H   UNL     1       0.132   8.643  21.019  0.00  0.00    +0.066 HD
ATOM     28  H   UNL     1       1.853   8.940  20.752  0.00  0.00    +0.066 HD
ATOM     29  H   UNL     1       1.234   8.506  22.394  0.00  0.00    +0.066 HD
ENDBRANCH  25  26
ENDBRANCH  18  25
ENDBRANCH   4  15
BRANCH   1  30
ATOM     30  C   UNL     1       6.171   3.649  13.352  0.00  0.00    -0.013 C 
ATOM     31  H   UNL     1       5.814   4.305  12.551  0.00  0.00    +0.039 HD
ATOM     32  H   UNL     1       5.433   2.852  13.504  0.00  0.00    +0.039 HD
ATOM     33  H   UNL     1       7.101   3.193  12.993  0.00  0.00    +0.039 HD
ENDBRANCH   1  30
TORSDOF 4
ENDMDL
MODEL 8
REMARK VINA RESULT:    -5.304      1.610      2.350
REMARK INTER + INTRA:          -6.445
REMARK INTER:                  -6.207
REMARK INTRA:                  -0.237
REMARK UNBOUND:                -0.211
REMARK  Name = 
REMARK  4 active torsions:
REMARK  status: ('A' for Active; 'I' for Inactive)
REMARK    1  A    between atoms: C_1  and  N_2
REMARK    2  A    between atoms: N_5  and  C_6
REMARK    3  A    between atoms: C_9  and  O_12
REMARK    4  A    between atoms: O_12  and  C_13
REMARK                            x       y       z     vdW  Elec       q    Type
REMARK                         _______ _______ _______ _____ _____    ______ ____
ROOT
ATOM      1  N   UNL     1       0.896  10.666  19.147  0.00  0.00    -0.302 NA
ATOM      2  C   UNL     1       0.496   9.567  20.052  0.00  0.00    +0.014 C 
ATOM      3  C   UNL     1       1.603   8.517  20.303  0.00  0.00    +0.025 C 
ATOM      4  N   UNL     1       2.009   7.880  19.038  0.00  0.00    -0.327 N 
ATOM      5  C   UNL     1       1.854   8.693  17.819  0.00  0.00    +0.025 C 
ATOM      6  C   UNL     1       1.881  10.206  18.145  0.00  0.00    +0.014 C 
ATOM      7  H   UNL     1       0.187   9.999  21.011  0.00  0.00    +0.044 HD
ATOM      8  H   UNL     1      -0.375   9.035  19.642  0.00  0.00    +0.044 HD
ATOM      9  H   UNL     1       2.473   8.990  20.776  0.00  0.00    +0.048 HD
ATOM     10  H   UNL     1       1.196   7.774  20.999  0.00  0.00    +0.048 HD
ATOM     11  H   UNL     1       0.911   8.434  17.325  0.00  0.00    +0.048 HD
ATOM     12  H   UNL     1       2.674   8.499  17.116  0.00  0.00    +0.048 HD
ATOM     13  H   UNL     1       1.800  10.782  17.216  0.00  0.00    +0.044 HD
ATOM     14  H   UNL     1       2.874  10.442  18.550  0.00  0.00    +0.044 HD
ENDROOT
BRANCH   4  15
ATOM     15  C   UNL     1       2.563   6.613  19.001  0.00  0.00    +0.031 A 
ATOM     16  C   UNL     1       3.366   6.187  17.933  0.00  0.00    -0.023 A 
ATOM     17  C   UNL     1       3.928   4.901  17.893  0.00  0.00    +0.061 A 
ATOM     18  C   UNL     1       3.707   3.986  18.927  0.00  0.00    +0.134 A 
ATOM     19  C   UNL     1       2.910   4.389  19.996  0.00  0.00    -0.017 A 
ATOM     20  C   UNL     1       2.352   5.677  20.024  0.00  0.00    -0.037 A 
ATOM     21 BR   UNL     1       4.993   4.451  16.381  0.00  0.00    -0.046 Br
ATOM     22  H   UNL     1       3.548   6.852  17.094  0.00  0.00    +0.065 HD
ATOM     23  H   UNL     1       2.700   3.734  20.835  0.00  0.00    +0.065 HD
ATOM     24  H   UNL     1       1.757   5.942  20.896  0.00  0.00    +0.064 HD
BRANCH  18  25
ATOM     25  O   UNL     1       4.292   2.754  18.811  0.00  0.00    -0.494 OA
BRANCH  25  26
ATOM     26  C   UNL     1       3.447   1.649  18.520  0.00  0.00    +0.079 C 
ATOM     27  H   UNL     1       2.965   1.342  19.453  0.00  0.00    +0.066 HD
ATOM     28  H   UNL     1       4.026   0.797  18.149  0.00  0.00    +0.066 HD
ATOM     29  H   UNL     1       2.658   1.929  17.815  0.00  0.00    +0.066 HD
ENDBRANCH  25  26
ENDBRANCH  18  25
ENDBRANCH   4  15
BRANCH   1  30
ATOM     30  C   UNL     1      -0.278  11.267  18.520  0.00  0.00    -0.013 C 
ATOM     31  H   UNL     1      -0.532  12.215  19.007  0.00  0.00    +0.039 HD
ATOM     32  H   UNL     1      -1.153  10.609  18.563  0.00  0.00    +0.039 HD
ATOM     33  H   UNL     1      -0.074  11.500  17.469  0.00  0.00    +0.039 HD
ENDBRANCH   1  30
TORSDOF 4
ENDMDL
MODEL 9
REMARK VINA RESULT:    -5.288      1.857      2.181
REMARK INTER + INTRA:          -6.426
REMARK INTER:                  -6.218
REMARK INTRA:                  -0.208
REMARK UNBOUND:                -0.211
REMARK  Name = 
REMARK  4 active torsions:
REMARK  status: ('A' for Active; 'I' for Inactive)
REMARK    1  A    between atoms: C_1  and  N_2
REMARK    2  A    between atoms: N_5  and  C_6
REMARK    3  A    between atoms: C_9  and  O_12
REMARK    4  A    between atoms: O_12  and  C_13
REMARK                            x       y       z     vdW  Elec       q    Type
REMARK                         _______ _______ _______ _____ _____    ______ ____
ROOT
ATOM      1  N   UNL     1       0.541  10.053  19.818  0.00  0.00    -0.302 NA
ATOM      2  C   UNL     1       1.411  10.210  18.632  0.00  0.00    +0.014 C 
ATOM      3  C   UNL     1       1.599   8.916  17.807  0.00  0.00    +0.025 C 
ATOM      4  N   UNL     1       2.216   7.862  18.631  0.00  0.00    -0.327 N 
ATOM      5  C   UNL     1       1.953   7.929  20.080  0.00  0.00    +0.025 C 
ATOM      6  C   UNL     1       0.639   8.689  20.378  0.00  0.00    +0.014 C 
ATOM      7  H   UNL     1       0.985  10.988  17.987  0.00  0.00    +0.044 HD
ATOM      8  H   UNL     1       2.411  10.555  18.936  0.00  0.00    +0.044 HD
ATOM      9  H   UNL     1       0.632   8.569  17.423  0.00  0.00    +0.048 HD
ATOM     10  H   UNL     1       2.239   9.165  16.952  0.00  0.00    +0.048 HD
ATOM     11  H   UNL     1       2.793   8.425  20.580  0.00  0.00    +0.048 HD
ATOM     12  H   UNL     1       1.849   6.922  20.503  0.00  0.00    +0.048 HD
ATOM     13  H   UNL     1       0.453   8.690  21.459  0.00  0.00    +0.044 HD
ATOM     14  H   UNL     1      -0.187   8.111  19.941  0.00  0.00    +0.044 HD
ENDROOT
BRANCH   4  15
ATOM     15  C   UNL     1       2.949   6.830  18.073  0.00  0.00    +0.031 A 
ATOM     16  C   UNL     1       2.512   5.498  18.129  0.00  0.00    -0.023 A 
ATOM     17  C   UNL     1       3.256   4.449  17.564  0.00  0.00    +0.061 A 
ATOM     18  C   UNL     1       4.471   4.695  16.918  0.00  0.00    +0.134 A 
ATOM     19  C   UNL     1       4.923   6.010  16.854  0.00  0.00    -0.017 A 
ATOM     20  C   UNL     1       4.172   7.052  17.424  0.00  0.00    -0.037 A 
ATOM     21 BR   UNL     1       2.551   2.688  17.717  0.00  0.00    -0.046 Br
ATOM     22  H   UNL     1       1.587   5.253  18.640  0.00  0.00    +0.065 HD
ATOM     23  H   UNL     1       5.854   6.275  16.364  0.00  0.00    +0.065 HD
ATOM     24  H   UNL     1       4.564   8.061  17.322  0.00  0.00    +0.064 HD
BRANCH  18  25
ATOM     25  O   UNL     1       5.133   3.617  16.394  0.00  0.00    -0.494 OA
BRANCH  25  26
ATOM     26  C   UNL     1       6.044   3.856  15.331  0.00  0.00    +0.079 C 
ATOM     27  H   UNL     1       6.321   2.887  14.903  0.00  0.00    +0.066 HD
ATOM     28  H   UNL     1       6.961   4.332  15.695  0.00  0.00    +0.066 HD
ATOM     29  H   UNL     1       5.579   4.449  14.536  0.00  0.00    +0.066 HD
ENDBRANCH  25  26
ENDBRANCH  18  25
ENDBRANCH   4  15
BRANCH   1  30
ATOM     30  C   UNL     1       0.846  11.075  20.816  0.00  0.00    -0.013 C 
ATOM     31  H   UNL     1      -0.030  11.273  21.444  0.00  0.00    +0.039 HD
ATOM     32  H   UNL     1       1.166  12.018  20.359  0.00  0.00    +0.039 HD
ATOM     33  H   UNL     1       1.641  10.730  21.486  0.00  0.00    +0.039 HD
ENDBRANCH   1  30
TORSDOF 4
ENDMDL
MODEL 10
REMARK VINA RESULT:    -5.280      1.877      2.536
REMARK INTER + INTRA:          -6.417
REMARK INTER:                  -6.206
REMARK INTRA:                  -0.211
REMARK UNBOUND:                -0.211
REMARK  Name = 
REMARK  4 active torsions:
REMARK  status: ('A' for Active; 'I' for Inactive)
REMARK    1  A    between atoms: C_1  and  N_2
REMARK    2  A    between atoms: N_5  and  C_6
REMARK    3  A    between atoms: C_9  and  O_12
REMARK    4  A    between atoms: O_12  and  C_13
REMARK                            x       y       z     vdW  Elec       q    Type
REMARK                         _______ _______ _______ _____ _____    ______ ____
ROOT
ATOM      1  N   UNL     1       0.677  10.068  19.858  0.00  0.00    -0.302 NA
ATOM      2  C   UNL     1       0.674   8.675  20.353  0.00  0.00    +0.014 C 
ATOM      3  C   UNL     1       1.978   7.896  20.064  0.00  0.00    +0.025 C 
ATOM      4  N   UNL     1       2.221   7.814  18.613  0.00  0.00    -0.327 N 
ATOM      5  C   UNL     1       1.676   8.914  17.797  0.00  0.00    +0.025 C 
ATOM      6  C   UNL     1       1.499  10.202  18.637  0.00  0.00    +0.014 C 
ATOM      7  H   UNL     1       0.498   8.689  21.435  0.00  0.00    +0.044 HD
ATOM      8  H   UNL     1      -0.154   8.111  19.899  0.00  0.00    +0.044 HD
ATOM      9  H   UNL     1       2.828   8.385  20.555  0.00  0.00    +0.048 HD
ATOM     10  H   UNL     1       1.863   6.895  20.495  0.00  0.00    +0.048 HD
ATOM     11  H   UNL     1       0.713   8.610  17.372  0.00  0.00    +0.048 HD
ATOM     12  H   UNL     1       2.354   9.158  16.970  0.00  0.00    +0.048 HD
ATOM     13  H   UNL     1       1.127  11.010  17.995  0.00  0.00    +0.044 HD
ATOM     14  H   UNL     1       2.496  10.526  18.965  0.00  0.00    +0.044 HD
ENDROOT
BRANCH   4  15
ATOM     15  C   UNL     1       2.972   6.797  18.051  0.00  0.00    +0.031 A 
ATOM     16  C   UNL     1       2.580   5.454  18.134  0.00  0.00    -0.023 A 
ATOM     17  C   UNL     1       3.344   4.421  17.567  0.00  0.00    +0.061 A 
ATOM     18  C   UNL     1       4.535   4.695  16.889  0.00  0.00    +0.134 A 
ATOM     19  C   UNL     1       4.944   6.023  16.798  0.00  0.00    -0.017 A 
ATOM     20  C   UNL     1       4.173   7.048  17.371  0.00  0.00    -0.037 A 
ATOM     21 BR   UNL     1       2.697   2.641  17.759  0.00  0.00    -0.046 Br
ATOM     22  H   UNL     1       1.674   5.187  18.670  0.00  0.00    +0.065 HD
ATOM     23  H   UNL     1       5.855   6.310  16.284  0.00  0.00    +0.065 HD
ATOM     24  H   UNL     1       4.531   8.067  17.248  0.00  0.00    +0.064 HD
BRANCH  18  25
ATOM     25  O   UNL     1       5.218   3.631  16.365  0.00  0.00    -0.494 OA
BRANCH  25  26
ATOM     26  C   UNL     1       6.056   3.874  15.243  0.00  0.00    +0.079 C 
ATOM     27  H   UNL     1       6.687   2.991  15.100  0.00  0.00    +0.066 HD
ATOM     28  H   UNL     1       6.716   4.729  15.421  0.00  0.00    +0.066 HD
ATOM     29  H   UNL     1       5.466   4.012  14.331  0.00  0.00    +0.066 HD
ENDBRANCH  25  26
ENDBRANCH  18  25
ENDBRANCH   4  15
BRANCH   1  30
ATOM     30  C   UNL     1      -0.689  10.540  19.648  0.00  0.00    -0.013 C 
ATOM     31  H   UNL     1      -1.019  10.322  18.627  0.00  0.00    +0.039 HD
ATOM     32  H   UNL     1      -0.787  11.618  19.822  0.00  0.00    +0.039 HD
ATOM     33  H   UNL     1      -1.381  10.020  20.320  0.00  0.00    +0.039 HD
ENDBRANCH   1  30
TORSDOF 4
ENDMDL
MODEL 11
REMARK VINA RESULT:    -5.215      1.093      1.659
REMARK INTER + INTRA:          -6.340
REMARK INTER:                  -6.117
REMARK INTRA:                  -0.223
REMARK UNBOUND:                -0.211
REMARK  Name = 
REMARK  4 active torsions:
REMARK  status: ('A' for Active; 'I' for Inactive)
REMARK    1  A    between atoms: C_1  and  N_2
REMARK    2  A    between atoms: N_5  and  C_6
REMARK    3  A    between atoms: C_9  and  O_12
REMARK    4  A    between atoms: O_12  and  C_13
REMARK                            x       y       z     vdW  Elec       q    Type
REMARK                         _______ _______ _______ _____ _____    ______ ____
ROOT
ATOM      1  N   UNL     1       0.310  10.830  20.529  0.00  0.00    -0.302 NA
ATOM      2  C   UNL     1       0.048   9.582  21.278  0.00  0.00    +0.014 C 
ATOM      3  C   UNL     1       1.229   8.584  21.281  0.00  0.00    +0.025 C 
ATOM      4  N   UNL     1       1.564   8.174  19.906  0.00  0.00    -0.327 N 
ATOM      5  C   UNL     1       1.264   9.150  18.843  0.00  0.00    +0.025 C 
ATOM      6  C   UNL     1       1.232  10.594  19.398  0.00  0.00    +0.014 C 
ATOM      7  H   UNL     1      -0.204   9.842  22.313  0.00  0.00    +0.044 HD
ATOM      8  H   UNL     1      -0.823   9.060  20.856  0.00  0.00    +0.044 HD
ATOM      9  H   UNL     1       2.107   9.039  21.757  0.00  0.00    +0.048 HD
ATOM     10  H   UNL     1       0.924   7.719  21.880  0.00  0.00    +0.048 HD
ATOM     11  H   UNL     1       0.299   8.905  18.385  0.00  0.00    +0.048 HD
ATOM     12  H   UNL     1       2.032   9.121  18.060  0.00  0.00    +0.048 HD
ATOM     13  H   UNL     1       1.042  11.298  18.579  0.00  0.00    +0.044 HD
ATOM     14  H   UNL     1       2.240  10.834  19.762  0.00  0.00    +0.044 HD
ENDROOT
BRANCH   4  15
ATOM     15  C   UNL     1       2.183   6.968  19.631  0.00  0.00    +0.031 A 
ATOM     16  C   UNL     1       1.990   5.836  20.435  0.00  0.00    -0.023 A 
ATOM     17  C   UNL     1       2.621   4.612  20.157  0.00  0.00    +0.061 A 
ATOM     18  C   UNL     1       3.473   4.474  19.058  0.00  0.00    +0.134 A 
ATOM     19  C   UNL     1       3.680   5.588  18.248  0.00  0.00    -0.017 A 
ATOM     20  C   UNL     1       3.045   6.808  18.536  0.00  0.00    -0.037 A 
ATOM     21 BR   UNL     1       2.275   3.157  21.334  0.00  0.00    -0.046 Br
ATOM     22  H   UNL     1       1.356   5.898  21.314  0.00  0.00    +0.065 HD
ATOM     23  H   UNL     1       4.324   5.553  17.376  0.00  0.00    +0.065 HD
ATOM     24  H   UNL     1       3.228   7.636  17.855  0.00  0.00    +0.064 HD
BRANCH  18  25
ATOM     25  O   UNL     1       4.046   3.247  18.858  0.00  0.00    -0.494 OA
BRANCH  25  26
ATOM     26  C   UNL     1       3.500   2.423  17.837  0.00  0.00    +0.079 C 
ATOM     27  H   UNL     1       2.859   3.050  17.208  0.00  0.00    +0.066 HD
ATOM     28  H   UNL     1       2.875   1.630  18.261  0.00  0.00    +0.066 HD
ATOM     29  H   UNL     1       4.288   2.009  17.199  0.00  0.00    +0.066 HD
ENDBRANCH  25  26
ENDBRANCH  18  25
ENDBRANCH   4  15
BRANCH   1  30
ATOM     30  C   UNL     1      -0.944  11.437  20.091  0.00  0.00    -0.013 C 
ATOM     31  H   UNL     1      -1.437  11.947  20.926  0.00  0.00    +0.039 HD
ATOM     32  H   UNL     1      -1.640  10.699  19.676  0.00  0.00    +0.039 HD
ATOM     33  H   UNL     1      -0.754  12.199  19.326  0.00  0.00    +0.039 HD
ENDBRANCH   1  30
TORSDOF 4
ENDMDL
MODEL 12
REMARK VINA RESULT:    -5.140      3.922      4.712
REMARK INTER + INTRA:          -6.252
REMARK INTER:                  -6.121
REMARK INTRA:                  -0.131
REMARK UNBOUND:                -0.211
REMARK  Name = 
REMARK  4 active torsions:
REMARK  status: ('A' for Active; 'I' for Inactive)
REMARK    1  A    between atoms: C_1  and  N_2
REMARK    2  A    between atoms: N_5  and  C_6
REMARK    3  A    between atoms: C_9  and  O_12
REMARK    4  A    between atoms: O_12  and  C_13
REMARK                            x       y       z     vdW  Elec       q    Type
REMARK                         _______ _______ _______ _____ _____    ______ ____
ROOT
ATOM      1  N   UNL     1       7.949   7.556  17.534  0.00  0.00    -0.302 NA
ATOM      2  C   UNL     1       7.943   6.652  18.704  0.00  0.00    +0.014 C 
ATOM      3  C   UNL     1       7.198   5.318  18.471  0.00  0.00    +0.025 C 
ATOM      4  N   UNL     1       5.784   5.566  18.138  0.00  0.00    -0.327 N 
ATOM      5  C   UNL     1       5.486   6.846  17.472  0.00  0.00    +0.025 C 
ATOM      6  C   UNL     1       6.725   7.391  16.722  0.00  0.00    +0.014 C 
ATOM      7  H   UNL     1       8.981   6.439  18.986  0.00  0.00    +0.044 HD
ATOM      8  H   UNL     1       7.470   7.147  19.565  0.00  0.00    +0.044 HD
ATOM      9  H   UNL     1       7.677   4.753  17.662  0.00  0.00    +0.048 HD
ATOM     10  H   UNL     1       7.282   4.732  19.394  0.00  0.00    +0.048 HD
ATOM     11  H   UNL     1       5.150   7.575  18.217  0.00  0.00    +0.048 HD
ATOM     12  H   UNL     1       4.688   6.721  16.730  0.00  0.00    +0.048 HD
ATOM     13  H   UNL     1       6.461   8.324  16.208  0.00  0.00    +0.044 HD
ATOM     14  H   UNL     1       6.973   6.678  15.924  0.00  0.00    +0.044 HD
ENDROOT
BRANCH   4  15
ATOM     15  C   UNL     1       4.798   4.625  18.377  0.00  0.00    +0.031 A 
ATOM     16  C   UNL     1       4.090   4.586  19.587  0.00  0.00    -0.023 A 
ATOM     17  C   UNL     1       3.091   3.629  19.831  0.00  0.00    +0.061 A 
ATOM     18  C   UNL     1       2.760   2.671  18.868  0.00  0.00    +0.134 A 
ATOM     19  C   UNL     1       3.454   2.692  17.661  0.00  0.00    -0.017 A 
ATOM     20  C   UNL     1       4.453   3.652  17.428  0.00  0.00    -0.037 A 
ATOM     21 BR   UNL     1       2.213   3.685  21.519  0.00  0.00    -0.046 Br
ATOM     22  H   UNL     1       4.326   5.293  20.376  0.00  0.00    +0.065 HD
ATOM     23  H   UNL     1       3.247   1.982  16.867  0.00  0.00    +0.065 HD
ATOM     24  H   UNL     1       4.944   3.632  16.458  0.00  0.00    +0.064 HD
BRANCH  18  25
ATOM     25  O   UNL     1       1.774   1.776  19.186  0.00  0.00    -0.494 OA
BRANCH  25  26
ATOM     26  C   UNL     1       0.444   2.099  18.804  0.00  0.00    +0.079 C 
ATOM     27  H   UNL     1      -0.081   2.461  19.693  0.00  0.00    +0.066 HD
ATOM     28  H   UNL     1      -0.088   1.213  18.441  0.00  0.00    +0.066 HD
ATOM     29  H   UNL     1       0.430   2.903  18.060  0.00  0.00    +0.066 HD
ENDBRANCH  25  26
ENDBRANCH  18  25
ENDBRANCH   4  15
BRANCH   1  30
ATOM     30  C   UNL     1       8.139   8.941  17.957  0.00  0.00    -0.013 C 
ATOM     31  H   UNL     1       8.180   9.607  17.088  0.00  0.00    +0.039 HD
ATOM     32  H   UNL     1       9.058   9.074  18.540  0.00  0.00    +0.039 HD
ATOM     33  H   UNL     1       7.293   9.274  18.568  0.00  0.00    +0.039 HD
ENDBRANCH   1  30
TORSDOF 4
ENDMDL
MODEL 13
REMARK VINA RESULT:    -5.134      3.370      6.415
REMARK INTER + INTRA:          -6.245
REMARK INTER:                  -6.016
REMARK INTRA:                  -0.229
REMARK UNBOUND:                -0.211
REMARK  Name = 
REMARK  4 active torsions:
REMARK  status: ('A' for Active; 'I' for Inactive)
REMARK    1  A    between atoms: C_1  and  N_2
REMARK    2  A    between atoms: N_5  and  C_6
REMARK    3  A    between atoms: C_9  and  O_12
REMARK    4  A    between atoms: O_12  and  C_13
REMARK                            x       y       z     vdW  Elec       q    Type
REMARK                         _______ _______ _______ _____ _____    ______ ____
ROOT
ATOM      1  N   UNL     1       3.227   3.072  19.661  0.00  0.00    -0.302 NA
ATOM      2  C   UNL     1       2.554   3.669  20.835  0.00  0.00    +0.014 C 
ATOM      3  C   UNL     1       1.594   4.831  20.493  0.00  0.00    +0.025 C 
ATOM      4  N   UNL     1       2.325   5.930  19.837  0.00  0.00    -0.327 N 
ATOM      5  C   UNL     1       3.524   5.549  19.070  0.00  0.00    +0.025 C 
ATOM      6  C   UNL     1       3.447   4.077  18.600  0.00  0.00    +0.014 C 
ATOM      7  H   UNL     1       1.993   2.882  21.354  0.00  0.00    +0.044 HD
ATOM      8  H   UNL     1       3.299   4.055  21.546  0.00  0.00    +0.044 HD
ATOM      9  H   UNL     1       0.790   4.477  19.836  0.00  0.00    +0.048 HD
ATOM     10  H   UNL     1       1.145   5.171  21.433  0.00  0.00    +0.048 HD
ATOM     11  H   UNL     1       4.416   5.697  19.690  0.00  0.00    +0.048 HD
ATOM     12  H   UNL     1       3.625   6.171  18.172  0.00  0.00    +0.048 HD
ATOM     13  H   UNL     1       4.334   3.836  18.003  0.00  0.00    +0.044 HD
ATOM     14  H   UNL     1       2.598   3.992  17.908  0.00  0.00    +0.044 HD
ENDROOT
BRANCH   4  15
ATOM     15  C   UNL     1       1.878   7.238  19.884  0.00  0.00    +0.031 A 
ATOM     16  C   UNL     1       1.256   7.768  21.024  0.00  0.00    -0.023 A 
ATOM     17  C   UNL     1       0.800   9.095  21.071  0.00  0.00    +0.061 A 
ATOM     18  C   UNL     1       0.952   9.948  19.974  0.00  0.00    +0.134 A 
ATOM     19  C   UNL     1       1.565   9.441  18.832  0.00  0.00    -0.017 A 
ATOM     20  C   UNL     1       2.016   8.111  18.795  0.00  0.00    -0.037 A 
ATOM     21 BR   UNL     1      -0.033   9.683  22.679  0.00  0.00    -0.046 Br
ATOM     22  H   UNL     1       1.093   7.139  21.893  0.00  0.00    +0.065 HD
ATOM     23  H   UNL     1       1.721  10.047  17.945  0.00  0.00    +0.065 HD
ATOM     24  H   UNL     1       2.508   7.778  17.884  0.00  0.00    +0.064 HD
BRANCH  18  25
ATOM     25  O   UNL     1       0.481  11.227  20.103  0.00  0.00    -0.494 OA
BRANCH  25  26
ATOM     26  C   UNL     1      -0.271  11.765  19.024  0.00  0.00    +0.079 C 
ATOM     27  H   UNL     1      -1.330  11.707  19.293  0.00  0.00    +0.066 HD
ATOM     28  H   UNL     1      -0.127  11.178  18.111  0.00  0.00    +0.066 HD
ATOM     29  H   UNL     1      -0.027  12.820  18.860  0.00  0.00    +0.066 HD
ENDBRANCH  25  26
ENDBRANCH  18  25
ENDBRANCH   4  15
BRANCH   1  30
ATOM     30  C   UNL     1       4.472   2.421  20.061  0.00  0.00    -0.013 C 
ATOM     31  H   UNL     1       5.336   2.997  19.713  0.00  0.00    +0.039 HD
ATOM     32  H   UNL     1       4.553   1.402  19.665  0.00  0.00    +0.039 HD
ATOM     33  H   UNL     1       4.546   2.373  21.153  0.00  0.00    +0.039 HD
ENDBRANCH   1  30
TORSDOF 4
ENDMDL
MODEL 14
REMARK VINA RESULT:    -5.129      3.573      6.155
REMARK INTER + INTRA:          -6.240
REMARK INTER:                  -6.015
REMARK INTRA:                  -0.225
REMARK UNBOUND:                -0.211
REMARK  Name = 
REMARK  4 active torsions:
REMARK  status: ('A' for Active; 'I' for Inactive)
REMARK    1  A    between atoms: C_1  and  N_2
REMARK    2  A    between atoms: N_5  and  C_6
REMARK    3  A    between atoms: C_9  and  O_12
REMARK    4  A    between atoms: O_12  and  C_13
REMARK                            x       y       z     vdW  Elec       q    Type
REMARK                         _______ _______ _______ _____ _____    ______ ____
ROOT
ATOM      1  N   UNL     1       5.426   4.629  15.947  0.00  0.00    -0.302 NA
ATOM      2  C   UNL     1       4.775   4.067  17.150  0.00  0.00    +0.014 C 
ATOM      3  C   UNL     1       3.456   4.770  17.544  0.00  0.00    +0.025 C 
ATOM      4  N   UNL     1       3.696   6.195  17.836  0.00  0.00    -0.327 N 
ATOM      5  C   UNL     1       4.829   6.822  17.135  0.00  0.00    +0.025 C 
ATOM      6  C   UNL     1       5.158   6.077  15.818  0.00  0.00    +0.014 C 
ATOM      7  H   UNL     1       4.575   3.003  16.974  0.00  0.00    +0.044 HD
ATOM      8  H   UNL     1       5.452   4.129  18.014  0.00  0.00    +0.044 HD
ATOM      9  H   UNL     1       2.720   4.676  16.735  0.00  0.00    +0.048 HD
ATOM     10  H   UNL     1       3.062   4.254  18.427  0.00  0.00    +0.048 HD
ATOM     11  H   UNL     1       5.707   6.826  17.791  0.00  0.00    +0.048 HD
ATOM     12  H   UNL     1       4.596   7.860  16.869  0.00  0.00    +0.048 HD
ATOM     13  H   UNL     1       5.981   6.588  15.304  0.00  0.00    +0.044 HD
ATOM     14  H   UNL     1       4.290   6.177  15.153  0.00  0.00    +0.044 HD
ENDROOT
BRANCH   4  15
ATOM     15  C   UNL     1       2.866   6.921  18.672  0.00  0.00    +0.031 A 
ATOM     16  C   UNL     1       2.398   8.197  18.324  0.00  0.00    -0.023 A 
ATOM     17  C   UNL     1       1.558   8.936  19.173  0.00  0.00    +0.061 A 
ATOM     18  C   UNL     1       1.152   8.423  20.408  0.00  0.00    +0.134 A 
ATOM     19  C   UNL     1       1.608   7.160  20.773  0.00  0.00    -0.017 A 
ATOM     20  C   UNL     1       2.449   6.430  19.917  0.00  0.00    -0.037 A 
ATOM     21 BR   UNL     1       1.001  10.657  18.579  0.00  0.00    -0.046 Br
ATOM     22  H   UNL     1       2.704   8.648  17.385  0.00  0.00    +0.065 HD
ATOM     23  H   UNL     1       1.330   6.698  21.715  0.00  0.00    +0.065 HD
ATOM     24  H   UNL     1       2.755   5.439  20.246  0.00  0.00    +0.064 HD
BRANCH  18  25
ATOM     25  O   UNL     1       0.332   9.208  21.174  0.00  0.00    -0.494 OA
BRANCH  25  26
ATOM     26  C   UNL     1       0.626   9.311  22.560  0.00  0.00    +0.079 C 
ATOM     27  H   UNL     1      -0.264   8.996  23.115  0.00  0.00    +0.066 HD
ATOM     28  H   UNL     1       0.844  10.346  22.842  0.00  0.00    +0.066 HD
ATOM     29  H   UNL     1       1.446   8.642  22.842  0.00  0.00    +0.066 HD
ENDBRANCH  25  26
ENDBRANCH  18  25
ENDBRANCH   4  15
BRANCH   1  30
ATOM     30  C   UNL     1       6.858   4.339  15.957  0.00  0.00    -0.013 C 
ATOM     31  H   UNL     1       7.121   3.730  16.828  0.00  0.00    +0.039 HD
ATOM     32  H   UNL     1       7.465   5.251  15.975  0.00  0.00    +0.039 HD
ATOM     33  H   UNL     1       7.137   3.758  15.071  0.00  0.00    +0.039 HD
ENDBRANCH   1  30
TORSDOF 4
ENDMDL
MODEL 15
REMARK VINA RESULT:    -5.074      2.416      3.662
REMARK INTER + INTRA:          -6.175
REMARK INTER:                  -5.941
REMARK INTRA:                  -0.234
REMARK UNBOUND:                -0.211
REMARK  Name = 
REMARK  4 active torsions:
REMARK  status: ('A' for Active; 'I' for Inactive)
REMARK    1  A    between atoms: C_1  and  N_2
REMARK    2  A    between atoms: N_5  and  C_6
REMARK    3  A    between atoms: C_9  and  O_12
REMARK    4  A    between atoms: O_12  and  C_13
REMARK                            x       y       z     vdW  Elec       q    Type
REMARK                         _______ _______ _______ _____ _____    ______ ____
ROOT
ATOM      1  N   UNL     1      -0.860  11.564  22.696  0.00  0.00    -0.302 NA
ATOM      2  C   UNL     1      -0.628  10.141  23.028  0.00  0.00    +0.014 C 
ATOM      3  C   UNL     1       0.638   9.536  22.377  0.00  0.00    +0.025 C 
ATOM      4  N   UNL     1       0.546   9.604  20.908  0.00  0.00    -0.327 N 
ATOM      5  C   UNL     1      -0.265  10.703  20.355  0.00  0.00    +0.025 C 
ATOM      6  C   UNL     1      -0.355  11.889  21.345  0.00  0.00    +0.014 C 
ATOM      7  H   UNL     1      -0.551  10.045  24.118  0.00  0.00    +0.044 HD
ATOM      8  H   UNL     1      -1.485   9.531  22.711  0.00  0.00    +0.044 HD
ATOM      9  H   UNL     1       1.532  10.072  22.719  0.00  0.00    +0.048 HD
ATOM     10  H   UNL     1       0.712   8.496  22.714  0.00  0.00    +0.048 HD
ATOM     11  H   UNL     1      -1.270  10.333  20.123  0.00  0.00    +0.048 HD
ATOM     12  H   UNL     1       0.181  11.087  19.429  0.00  0.00    +0.048 HD
ATOM     13  H   UNL     1      -0.934  12.702  20.891  0.00  0.00    +0.044 HD
ATOM     14  H   UNL     1       0.658  12.290  21.478  0.00  0.00    +0.044 HD
ENDROOT
BRANCH   4  15
ATOM     15  C   UNL     1       1.234   8.726  20.090  0.00  0.00    +0.031 A 
ATOM     16  C   UNL     1       1.580   7.435  20.514  0.00  0.00    -0.023 A 
ATOM     17  C   UNL     1       2.280   6.544  19.684  0.00  0.00    +0.061 A 
ATOM     18  C   UNL     1       2.662   6.913  18.391  0.00  0.00    +0.134 A 
ATOM     19  C   UNL     1       2.331   8.192  17.952  0.00  0.00    -0.017 A 
ATOM     20  C   UNL     1       1.632   9.076  18.791  0.00  0.00    -0.037 A 
ATOM     21 BR   UNL     1       2.691   4.824  20.388  0.00  0.00    -0.046 Br
ATOM     22  H   UNL     1       1.327   7.109  21.518  0.00  0.00    +0.065 HD
ATOM     23  H   UNL     1       2.591   8.544  16.960  0.00  0.00    +0.065 HD
ATOM     24  H   UNL     1       1.381  10.053  18.385  0.00  0.00    +0.064 HD
BRANCH  18  25
ATOM     25  O   UNL     1       3.340   5.985  17.648  0.00  0.00    -0.494 OA
BRANCH  25  26
ATOM     26  C   UNL     1       4.546   6.397  17.019  0.00  0.00    +0.079 C 
ATOM     27  H   UNL     1       4.471   7.473  16.827  0.00  0.00    +0.066 HD
ATOM     28  H   UNL     1       4.680   5.896  16.055  0.00  0.00    +0.066 HD
ATOM     29  H   UNL     1       5.409   6.236  17.674  0.00  0.00    +0.066 HD
ENDBRANCH  25  26
ENDBRANCH  18  25
ENDBRANCH   4  15
BRANCH   1  30
ATOM     30  C   UNL     1      -2.274  11.900  22.844  0.00  0.00    -0.013 C 
ATOM     31  H   UNL     1      -2.769  11.919  21.868  0.00  0.00    +0.039 HD
ATOM     32  H   UNL     1      -2.420  12.873  23.327  0.00  0.00    +0.039 HD
ATOM     33  H   UNL     1      -2.787  11.139  23.443  0.00  0.00    +0.039 HD
ENDBRANCH   1  30
TORSDOF 4
ENDMDL
MODEL 16
REMARK VINA RESULT:    -4.923      3.484      6.463
REMARK INTER + INTRA:          -5.997
REMARK INTER:                  -5.779
REMARK INTRA:                  -0.218
REMARK UNBOUND:                -0.211
REMARK  Name = 
REMARK  4 active torsions:
REMARK  status: ('A' for Active; 'I' for Inactive)
REMARK    1  A    between atoms: C_1  and  N_2
REMARK    2  A    between atoms: N_5  and  C_6
REMARK    3  A    between atoms: C_9  and  O_12
REMARK    4  A    between atoms: O_12  and  C_13
REMARK                            x       y       z     vdW  Elec       q    Type
REMARK                         _______ _______ _______ _____ _____    ______ ____
ROOT
ATOM      1  N   UNL     1       4.092   2.783  18.272  0.00  0.00    -0.302 NA
ATOM      2  C   UNL     1       3.247   3.639  17.411  0.00  0.00    +0.014 C 
ATOM      3  C   UNL     1       3.280   5.140  17.782  0.00  0.00    +0.025 C 
ATOM      4  N   UNL     1       2.798   5.343  19.160  0.00  0.00    -0.327 N 
ATOM      5  C   UNL     1       3.000   4.221  20.093  0.00  0.00    +0.025 C 
ATOM      6  C   UNL     1       4.178   3.322  19.646  0.00  0.00    +0.014 C 
ATOM      7  H   UNL     1       3.575   3.520  16.371  0.00  0.00    +0.044 HD
ATOM      8  H   UNL     1       2.199   3.311  17.458  0.00  0.00    +0.044 HD
ATOM      9  H   UNL     1       4.300   5.532  17.684  0.00  0.00    +0.048 HD
ATOM     10  H   UNL     1       2.640   5.667  17.066  0.00  0.00    +0.048 HD
ATOM     11  H   UNL     1       2.080   3.628  20.155  0.00  0.00    +0.048 HD
ATOM     12  H   UNL     1       3.238   4.589  21.099  0.00  0.00    +0.048 HD
ATOM     13  H   UNL     1       4.324   2.519  20.378  0.00  0.00    +0.044 HD
ATOM     14  H   UNL     1       5.093   3.926  19.688  0.00  0.00    +0.044 HD
ENDROOT
BRANCH   4  15
ATOM     15  C   UNL     1       2.245   6.541  19.574  0.00  0.00    +0.031 A 
ATOM     16  C   UNL     1       2.279   7.690  18.770  0.00  0.00    -0.023 A 
ATOM     17  C   UNL     1       1.721   8.907  19.191  0.00  0.00    +0.061 A 
ATOM     18  C   UNL     1       1.101   9.022  20.439  0.00  0.00    +0.134 A 
ATOM     19  C   UNL     1       1.059   7.894  21.253  0.00  0.00    -0.017 A 
ATOM     20  C   UNL     1       1.623   6.681  20.823  0.00  0.00    -0.037 A 
ATOM     21 BR   UNL     1       1.842  10.389  18.002  0.00  0.00    -0.046 Br
ATOM     22  H   UNL     1       2.770   7.658  17.802  0.00  0.00    +0.065 HD
ATOM     23  H   UNL     1       0.591   7.908  22.232  0.00  0.00    +0.065 HD
ATOM     24  H   UNL     1       1.539   5.829  21.493  0.00  0.00    +0.064 HD
BRANCH  18  25
ATOM     25  O   UNL     1       0.581  10.244  20.771  0.00  0.00    -0.494 OA
BRANCH  25  26
ATOM     26  C   UNL     1      -0.293  10.306  21.890  0.00  0.00    +0.079 C 
ATOM     27  H   UNL     1       0.289  10.057  22.783  0.00  0.00    +0.066 HD
ATOM     28  H   UNL     1      -1.099   9.570  21.803  0.00  0.00    +0.066 HD
ATOM     29  H   UNL     1      -0.692  11.317  22.025  0.00  0.00    +0.066 HD
ENDBRANCH  25  26
ENDBRANCH  18  25
ENDBRANCH   4  15
BRANCH   1  30
ATOM     30  C   UNL     1       3.606   1.405  18.257  0.00  0.00    -0.013 C 
ATOM     31  H   UNL     1       2.519   1.379  18.389  0.00  0.00    +0.039 HD
ATOM     32  H   UNL     1       4.067   0.795  19.043  0.00  0.00    +0.039 HD
ATOM     33  H   UNL     1       3.817   0.936  17.289  0.00  0.00    +0.039 HD
ENDBRANCH   1  30
TORSDOF 4
ENDMDL
MODEL 17
REMARK VINA RESULT:    -4.910      5.198      6.796
REMARK INTER + INTRA:          -5.982
REMARK INTER:                  -5.771
REMARK INTRA:                  -0.211
REMARK UNBOUND:                -0.211
REMARK  Name = 
REMARK  4 active torsions:
REMARK  status: ('A' for Active; 'I' for Inactive)
REMARK    1  A    between atoms: C_1  and  N_2
REMARK    2  A    between atoms: N_5  and  C_6
REMARK    3  A    between atoms: C_9  and  O_12
REMARK    4  A    between atoms: O_12  and  C_13
REMARK                            x       y       z     vdW  Elec       q    Type
REMARK                         _______ _______ _______ _____ _____    ______ ____
ROOT
ATOM      1  N   UNL     1       2.702   3.592  19.715  0.00  0.00    -0.302 NA
ATOM      2  C   UNL     1       4.110   3.146  19.622  0.00  0.00    +0.014 C 
ATOM      3  C   UNL     1       4.992   4.019  18.700  0.00  0.00    +0.025 C 
ATOM      4  N   UNL     1       4.468   4.010  17.323  0.00  0.00    -0.327 N 
ATOM      5  C   UNL     1       3.017   3.799  17.178  0.00  0.00    +0.025 C 
ATOM      6  C   UNL     1       2.257   4.227  18.457  0.00  0.00    +0.014 C 
ATOM      7  H   UNL     1       4.541   3.141  20.630  0.00  0.00    +0.044 HD
ATOM      8  H   UNL     1       4.159   2.115  19.245  0.00  0.00    +0.044 HD
ATOM      9  H   UNL     1       5.029   5.049  19.076  0.00  0.00    +0.048 HD
ATOM     10  H   UNL     1       6.006   3.605  18.732  0.00  0.00    +0.048 HD
ATOM     11  H   UNL     1       2.821   2.743  16.964  0.00  0.00    +0.048 HD
ATOM     12  H   UNL     1       2.618   4.397  16.349  0.00  0.00    +0.048 HD
ATOM     13  H   UNL     1       1.179   4.092  18.304  0.00  0.00    +0.044 HD
ATOM     14  H   UNL     1       2.400   5.308  18.584  0.00  0.00    +0.044 HD
ENDROOT
BRANCH   4  15
ATOM     15  C   UNL     1       5.280   4.249  16.228  0.00  0.00    +0.031 A 
ATOM     16  C   UNL     1       4.960   3.768  14.950  0.00  0.00    -0.023 A 
ATOM     17  C   UNL     1       5.785   4.009  13.839  0.00  0.00    +0.061 A 
ATOM     18  C   UNL     1       6.966   4.746  13.965  0.00  0.00    +0.134 A 
ATOM     19  C   UNL     1       7.302   5.230  15.226  0.00  0.00    -0.017 A 
ATOM     20  C   UNL     1       6.471   4.982  16.331  0.00  0.00    -0.037 A 
ATOM     21 BR   UNL     1       5.235   3.293  12.163  0.00  0.00    -0.046 Br
ATOM     22  H   UNL     1       4.065   3.171  14.805  0.00  0.00    +0.065 HD
ATOM     23  H   UNL     1       8.202   5.813  15.398  0.00  0.00    +0.065 HD
ATOM     24  H   UNL     1       6.774   5.405  17.286  0.00  0.00    +0.064 HD
BRANCH  18  25
ATOM     25  O   UNL     1       7.711   4.935  12.833  0.00  0.00    -0.494 OA
BRANCH  25  26
ATOM     26  C   UNL     1       8.733   5.922  12.874  0.00  0.00    +0.079 C 
ATOM     27  H   UNL     1       8.330   6.799  13.392  0.00  0.00    +0.066 HD
ATOM     28  H   UNL     1       9.020   6.236  11.865  0.00  0.00    +0.066 HD
ATOM     29  H   UNL     1       9.601   5.570  13.442  0.00  0.00    +0.066 HD
ENDBRANCH  25  26
ENDBRANCH  18  25
ENDBRANCH   4  15
BRANCH   1  30
ATOM     30  C   UNL     1       1.837   2.480  20.099  0.00  0.00    -0.013 C 
ATOM     31  H   UNL     1       2.354   1.524  19.959  0.00  0.00    +0.039 HD
ATOM     32  H   UNL     1       0.906   2.460  19.521  0.00  0.00    +0.039 HD
ATOM     33  H   UNL     1       1.581   2.544  21.163  0.00  0.00    +0.039 HD
ENDBRANCH   1  30
TORSDOF 4
ENDMDL
MODEL 18
REMARK VINA RESULT:    -4.887      1.894      2.306
REMARK INTER + INTRA:          -5.955
REMARK INTER:                  -5.726
REMARK INTRA:                  -0.229
REMARK UNBOUND:                -0.211
REMARK  Name = 
REMARK  4 active torsions:
REMARK  status: ('A' for Active; 'I' for Inactive)
REMARK    1  A    between atoms: C_1  and  N_2
REMARK    2  A    between atoms: N_5  and  C_6
REMARK    3  A    between atoms: C_9  and  O_12
REMARK    4  A    between atoms: O_12  and  C_13
REMARK                            x       y       z     vdW  Elec       q    Type
REMARK                         _______ _______ _______ _____ _____    ______ ____
ROOT
ATOM      1  N   UNL     1      -0.056  11.256  20.298  0.00  0.00    -0.302 NA
ATOM      2  C   UNL     1       0.962  11.032  19.249  0.00  0.00    +0.014 C 
ATOM      3  C   UNL     1       1.051   9.571  18.753  0.00  0.00    +0.025 C 
ATOM      4  N   UNL     1       1.403   8.668  19.863  0.00  0.00    -0.327 N 
ATOM      5  C   UNL     1       0.984   9.096  21.209  0.00  0.00    +0.025 C 
ATOM      6  C   UNL     1      -0.229  10.055  21.143  0.00  0.00    +0.014 C 
ATOM      7  H   UNL     1       0.735  11.686  18.398  0.00  0.00    +0.044 HD
ATOM      8  H   UNL     1       1.958  11.316  19.617  0.00  0.00    +0.044 HD
ATOM      9  H   UNL     1       0.095   9.262  18.312  0.00  0.00    +0.048 HD
ATOM     10  H   UNL     1       1.816   9.538  17.969  0.00  0.00    +0.048 HD
ATOM     11  H   UNL     1       1.823   9.590  21.712  0.00  0.00    +0.048 HD
ATOM     12  H   UNL     1       0.681   8.233  21.815  0.00  0.00    +0.048 HD
ATOM     13  H   UNL     1      -0.538  10.326  22.159  0.00  0.00    +0.044 HD
ATOM     14  H   UNL     1      -1.074   9.495  20.720  0.00  0.00    +0.044 HD
ENDROOT
BRANCH   4  15
ATOM     15  C   UNL     1       2.034   7.455  19.650  0.00  0.00    +0.031 A 
ATOM     16  C   UNL     1       2.930   7.263  18.589  0.00  0.00    -0.023 A 
ATOM     17  C   UNL     1       3.569   6.032  18.371  0.00  0.00    +0.061 A 
ATOM     18  C   UNL     1       3.335   4.940  19.212  0.00  0.00    +0.134 A 
ATOM     19  C   UNL     1       2.447   5.110  20.271  0.00  0.00    -0.017 A 
ATOM     20  C   UNL     1       1.812   6.345  20.478  0.00  0.00    -0.037 A 
ATOM     21 BR   UNL     1       4.757   5.907  16.889  0.00  0.00    -0.046 Br
ATOM     22  H   UNL     1       3.127   8.073  17.893  0.00  0.00    +0.065 HD
ATOM     23  H   UNL     1       2.221   4.308  20.966  0.00  0.00    +0.065 HD
ATOM     24  H   UNL     1       1.146   6.424  21.335  0.00  0.00    +0.064 HD
BRANCH  18  25
ATOM     25  O   UNL     1       4.000   3.777  18.930  0.00  0.00    -0.494 OA
BRANCH  25  26
ATOM     26  C   UNL     1       3.281   2.559  19.063  0.00  0.00    +0.079 C 
ATOM     27  H   UNL     1       2.694   2.615  19.985  0.00  0.00    +0.066 HD
ATOM     28  H   UNL     1       3.961   1.706  19.153  0.00  0.00    +0.066 HD
ATOM     29  H   UNL     1       2.580   2.421  18.232  0.00  0.00    +0.066 HD
ENDBRANCH  25  26
ENDBRANCH  18  25
ENDBRANCH   4  15
BRANCH   1  30
ATOM     30  C   UNL     1       0.277  12.436  21.092  0.00  0.00    -0.013 C 
ATOM     31  H   UNL     1       0.622  12.144  22.090  0.00  0.00    +0.039 HD
ATOM     32  H   UNL     1      -0.576  13.114  21.205  0.00  0.00    +0.039 HD
ATOM     33  H   UNL     1       1.099  12.991  20.626  0.00  0.00    +0.039 HD
ENDBRANCH   1  30
TORSDOF 4
ENDMDL
MODEL 19
REMARK VINA RESULT:    -4.844      3.949      5.684
REMARK INTER + INTRA:          -5.904
REMARK INTER:                  -5.679
REMARK INTRA:                  -0.225
REMARK UNBOUND:                -0.211
REMARK  Name = 
REMARK  4 active torsions:
REMARK  status: ('A' for Active; 'I' for Inactive)
REMARK    1  A    between atoms: C_1  and  N_2
REMARK    2  A    between atoms: N_5  and  C_6
REMARK    3  A    between atoms: C_9  and  O_12
REMARK    4  A    between atoms: O_12  and  C_13
REMARK                            x       y       z     vdW  Elec       q    Type
REMARK                         _______ _______ _______ _____ _____    ______ ____
ROOT
ATOM      1  N   UNL     1       6.853   5.186  14.830  0.00  0.00    -0.302 NA
ATOM      2  C   UNL     1       5.550   5.874  14.954  0.00  0.00    +0.014 C 
ATOM      3  C   UNL     1       4.952   5.848  16.380  0.00  0.00    +0.025 C 
ATOM      4  N   UNL     1       4.725   4.460  16.820  0.00  0.00    -0.327 N 
ATOM      5  C   UNL     1       5.614   3.439  16.241  0.00  0.00    +0.025 C 
ATOM      6  C   UNL     1       6.956   4.057  15.780  0.00  0.00    +0.014 C 
ATOM      7  H   UNL     1       5.675   6.917  14.637  0.00  0.00    +0.044 HD
ATOM      8  H   UNL     1       4.812   5.418  14.279  0.00  0.00    +0.044 HD
ATOM      9  H   UNL     1       5.625   6.355  17.082  0.00  0.00    +0.048 HD
ATOM     10  H   UNL     1       4.008   6.404  16.348  0.00  0.00    +0.048 HD
ATOM     11  H   UNL     1       5.114   2.958  15.393  0.00  0.00    +0.048 HD
ATOM     12  H   UNL     1       5.853   2.665  16.982  0.00  0.00    +0.048 HD
ATOM     13  H   UNL     1       7.608   3.267  15.387  0.00  0.00    +0.044 HD
ATOM     14  H   UNL     1       7.469   4.444  16.670  0.00  0.00    +0.044 HD
ENDROOT
BRANCH   4  15
ATOM     15  C   UNL     1       3.773   4.140  17.772  0.00  0.00    +0.031 A 
ATOM     16  C   UNL     1       3.236   5.104  18.637  0.00  0.00    -0.023 A 
ATOM     17  C   UNL     1       2.272   4.779  19.605  0.00  0.00    +0.061 A 
ATOM     18  C   UNL     1       1.805   3.468  19.744  0.00  0.00    +0.134 A 
ATOM     19  C   UNL     1       2.328   2.496  18.896  0.00  0.00    -0.017 A 
ATOM     20  C   UNL     1       3.293   2.832  17.933  0.00  0.00    -0.037 A 
ATOM     21 BR   UNL     1       1.633   6.185  20.718  0.00  0.00    -0.046 Br
ATOM     22  H   UNL     1       3.584   6.131  18.585  0.00  0.00    +0.065 HD
ATOM     23  H   UNL     1       2.008   1.460  18.944  0.00  0.00    +0.065 HD
ATOM     24  H   UNL     1       3.647   2.034  17.284  0.00  0.00    +0.064 HD
BRANCH  18  25
ATOM     25  O   UNL     1       0.865   3.237  20.711  0.00  0.00    -0.494 OA
BRANCH  25  26
ATOM     26  C   UNL     1       1.282   2.558  21.887  0.00  0.00    +0.079 C 
ATOM     27  H   UNL     1       2.345   2.772  22.037  0.00  0.00    +0.066 HD
ATOM     28  H   UNL     1       1.173   1.474  21.778  0.00  0.00    +0.066 HD
ATOM     29  H   UNL     1       0.743   2.924  22.768  0.00  0.00    +0.066 HD
ENDBRANCH  25  26
ENDBRANCH  18  25
ENDBRANCH   4  15
BRANCH   1  30
ATOM     30  C   UNL     1       7.077   4.759  13.451  0.00  0.00    -0.013 C 
ATOM     31  H   UNL     1       7.739   3.887  13.421  0.00  0.00    +0.039 HD
ATOM     32  H   UNL     1       7.521   5.553  12.839  0.00  0.00    +0.039 HD
ATOM     33  H   UNL     1       6.133   4.453  12.987  0.00  0.00    +0.039 HD
ENDBRANCH   1  30
TORSDOF 4
ENDMDL
MODEL 20
REMARK VINA RESULT:    -4.740      3.815      6.694
REMARK INTER + INTRA:          -5.782
REMARK INTER:                  -5.555
REMARK INTRA:                  -0.227
REMARK UNBOUND:                -0.211
REMARK  Name = 
REMARK  4 active torsions:
REMARK  status: ('A' for Active; 'I' for Inactive)
REMARK    1  A    between atoms: C_1  and  N_2
REMARK    2  A    between atoms: N_5  and  C_6
REMARK    3  A    between atoms: C_9  and  O_12
REMARK    4  A    between atoms: O_12  and  C_13
REMARK                            x       y       z     vdW  Elec       q    Type
REMARK                         _______ _______ _______ _____ _____    ______ ____
ROOT
ATOM      1  N   UNL     1       3.357   4.475  18.576  0.00  0.00    -0.302 NA
ATOM      2  C   UNL     1       3.183   4.708  20.026  0.00  0.00    +0.014 C 
ATOM      3  C   UNL     1       1.993   5.630  20.381  0.00  0.00    +0.025 C 
ATOM      4  N   UNL     1       2.169   6.959  19.771  0.00  0.00    -0.327 N 
ATOM      5  C   UNL     1       2.951   7.006  18.523  0.00  0.00    +0.025 C 
ATOM      6  C   UNL     1       2.918   5.645  17.787  0.00  0.00    +0.014 C 
ATOM      7  H   UNL     1       3.046   3.739  20.521  0.00  0.00    +0.044 HD
ATOM      8  H   UNL     1       4.090   5.162  20.451  0.00  0.00    +0.044 HD
ATOM      9  H   UNL     1       1.053   5.184  20.036  0.00  0.00    +0.048 HD
ATOM     10  H   UNL     1       1.956   5.707  21.474  0.00  0.00    +0.048 HD
ATOM     11  H   UNL     1       3.987   7.281  18.752  0.00  0.00    +0.048 HD
ATOM     12  H   UNL     1       2.541   7.756  17.835  0.00  0.00    +0.048 HD
ATOM     13  H   UNL     1       3.477   5.723  16.847  0.00  0.00    +0.044 HD
ATOM     14  H   UNL     1       1.878   5.450  17.492  0.00  0.00    +0.044 HD
ENDROOT
BRANCH   4  15
ATOM     15  C   UNL     1       1.579   8.093  20.301  0.00  0.00    +0.031 A 
ATOM     16  C   UNL     1       1.252   9.199  19.504  0.00  0.00    -0.023 A 
ATOM     17  C   UNL     1       0.656  10.351  20.043  0.00  0.00    +0.061 A 
ATOM     18  C   UNL     1       0.362  10.440  21.407  0.00  0.00    +0.134 A 
ATOM     19  C   UNL     1       0.682   9.353  22.215  0.00  0.00    -0.017 A 
ATOM     20  C   UNL     1       1.280   8.206  21.667  0.00  0.00    -0.037 A 
ATOM     21 BR   UNL     1       0.270  11.783  18.849  0.00  0.00    -0.046 Br
ATOM     22  H   UNL     1       1.482   9.189  18.443  0.00  0.00    +0.065 HD
ATOM     23  H   UNL     1       0.479   9.350  23.281  0.00  0.00    +0.065 HD
ATOM     24  H   UNL     1       1.485   7.380  22.344  0.00  0.00    +0.064 HD
BRANCH  18  25
ATOM     25  O   UNL     1      -0.219  11.597  21.850  0.00  0.00    -0.494 OA
BRANCH  25  26
ATOM     26  C   UNL     1      -1.173  11.496  22.899  0.00  0.00    +0.079 C 
ATOM     27  H   UNL     1      -0.653  11.123  23.787  0.00  0.00    +0.066 HD
ATOM     28  H   UNL     1      -1.960  10.778  22.649  0.00  0.00    +0.066 HD
ATOM     29  H   UNL     1      -1.593  12.476  23.147  0.00  0.00    +0.066 HD
ENDBRANCH  25  26
ENDBRANCH  18  25
ENDBRANCH   4  15
BRANCH   1  30
ATOM     30  C   UNL     1       4.739   4.106  18.279  0.00  0.00    -0.013 C 
ATOM     31  H   UNL     1       4.835   3.777  17.239  0.00  0.00    +0.039 HD
ATOM     32  H   UNL     1       5.104   3.305  18.932  0.00  0.00    +0.039 HD
ATOM     33  H   UNL     1       5.400   4.973  18.396  0.00  0.00    +0.039 HD
ENDBRANCH   1  30
TORSDOF 4
ENDMDL
MODEL 21
REMARK VINA RESULT:    -4.707      3.681      6.421
REMARK INTER + INTRA:          -5.744
REMARK INTER:                  -5.520
REMARK INTRA:                  -0.223
REMARK UNBOUND:                -0.211
REMARK  Name = 
REMARK  4 active torsions:
REMARK  status: ('A' for Active; 'I' for Inactive)
REMARK    1  A    between atoms: C_1  and  N_2
REMARK    2  A    between atoms: N_5  and  C_6
REMARK    3  A    between atoms: C_9  and  O_12
REMARK    4  A    between atoms: O_12  and  C_13
REMARK                            x       y       z     vdW  Elec       q    Type
REMARK                         _______ _______ _______ _____ _____    ______ ____
ROOT
ATOM      1  N   UNL     1       4.471   4.685  18.179  0.00  0.00    -0.302 NA
ATOM      2  C   UNL     1       3.736   5.706  17.402  0.00  0.00    +0.014 C 
ATOM      3  C   UNL     1       3.454   7.014  18.178  0.00  0.00    +0.025 C 
ATOM      4  N   UNL     1       2.635   6.740  19.372  0.00  0.00    -0.327 N 
ATOM      5  C   UNL     1       2.777   5.400  19.967  0.00  0.00    +0.025 C 
ATOM      6  C   UNL     1       4.148   4.772  19.619  0.00  0.00    +0.014 C 
ATOM      7  H   UNL     1       4.314   5.942  16.500  0.00  0.00    +0.044 HD
ATOM      8  H   UNL     1       2.767   5.306  17.068  0.00  0.00    +0.044 HD
ATOM      9  H   UNL     1       4.398   7.488  18.475  0.00  0.00    +0.048 HD
ATOM     10  H   UNL     1       2.930   7.692  17.495  0.00  0.00    +0.048 HD
ATOM     11  H   UNL     1       1.968   4.754  19.606  0.00  0.00    +0.048 HD
ATOM     12  H   UNL     1       2.712   5.451  21.061  0.00  0.00    +0.048 HD
ATOM     13  H   UNL     1       4.236   3.793  20.105  0.00  0.00    +0.044 HD
ATOM     14  H   UNL     1       4.927   5.396  20.078  0.00  0.00    +0.044 HD
ENDROOT
BRANCH   4  15
ATOM     15  C   UNL     1       1.827   7.707  19.943  0.00  0.00    +0.031 A 
ATOM     16  C   UNL     1       1.585   8.936  19.314  0.00  0.00    -0.023 A 
ATOM     17  C   UNL     1       0.766   9.919  19.894  0.00  0.00    +0.061 A 
ATOM     18  C   UNL     1       0.154   9.706  21.133  0.00  0.00    +0.134 A 
ATOM     19  C   UNL     1       0.384   8.492  21.775  0.00  0.00    -0.017 A 
ATOM     20  C   UNL     1       1.206   7.517  21.187  0.00  0.00    -0.037 A 
ATOM     21 BR   UNL     1       0.527  11.545  18.935  0.00  0.00    -0.046 Br
ATOM     22  H   UNL     1       2.056   9.159  18.362  0.00  0.00    +0.065 HD
ATOM     23  H   UNL     1      -0.062   8.257  22.736  0.00  0.00    +0.065 HD
ATOM     24  H   UNL     1       1.329   6.580  21.725  0.00  0.00    +0.064 HD
BRANCH  18  25
ATOM     25  O   UNL     1      -0.629  10.714  21.627  0.00  0.00    -0.494 OA
BRANCH  25  26
ATOM     26  C   UNL     1      -0.965  10.671  23.007  0.00  0.00    +0.079 C 
ATOM     27  H   UNL     1      -1.522  11.583  23.244  0.00  0.00    +0.066 HD
ATOM     28  H   UNL     1      -0.067  10.659  23.633  0.00  0.00    +0.066 HD
ATOM     29  H   UNL     1      -1.616   9.818  23.230  0.00  0.00    +0.066 HD
ENDBRANCH  25  26
ENDBRANCH  18  25
ENDBRANCH   4  15
BRANCH   1  30
ATOM     30  C   UNL     1       4.216   3.351  17.643  0.00  0.00    -0.013 C 
ATOM     31  H   UNL     1       3.256   2.968  18.006  0.00  0.00    +0.039 HD
ATOM     32  H   UNL     1       5.000   2.637  17.918  0.00  0.00    +0.039 HD
ATOM     33  H   UNL     1       4.148   3.384  16.550  0.00  0.00    +0.039 HD
ENDBRANCH   1  30
TORSDOF 4
ENDMDL
MODEL 22
REMARK VINA RESULT:    -4.695      4.124      6.106
REMARK INTER + INTRA:          -5.729
REMARK INTER:                  -5.638
REMARK INTRA:                  -0.090
REMARK UNBOUND:                -0.211
REMARK  Name = 
REMARK  4 active torsions:
REMARK  status: ('A' for Active; 'I' for Inactive)
REMARK    1  A    between atoms: C_1  and  N_2
REMARK    2  A    between atoms: N_5  and  C_6
REMARK    3  A    between atoms: C_9  and  O_12
REMARK    4  A    between atoms: O_12  and  C_13
REMARK                            x       y       z     vdW  Elec       q    Type
REMARK                         _______ _______ _______ _____ _____    ______ ____
ROOT
ATOM      1  N   UNL     1       7.385   4.396  14.149  0.00  0.00    -0.302 NA
ATOM      2  C   UNL     1       7.618   5.138  15.407  0.00  0.00    +0.014 C 
ATOM      3  C   UNL     1       6.921   4.524  16.644  0.00  0.00    +0.025 C 
ATOM      4  N   UNL     1       5.461   4.491  16.452  0.00  0.00    -0.327 N 
ATOM      5  C   UNL     1       4.988   4.392  15.060  0.00  0.00    +0.025 C 
ATOM      6  C   UNL     1       6.057   3.746  14.147  0.00  0.00    +0.014 C 
ATOM      7  H   UNL     1       8.698   5.184  15.590  0.00  0.00    +0.044 HD
ATOM      8  H   UNL     1       7.262   6.174  15.310  0.00  0.00    +0.044 HD
ATOM      9  H   UNL     1       7.295   3.508  16.823  0.00  0.00    +0.048 HD
ATOM     10  H   UNL     1       7.185   5.144  17.508  0.00  0.00    +0.048 HD
ATOM     11  H   UNL     1       4.735   5.392  14.689  0.00  0.00    +0.048 HD
ATOM     12  H   UNL     1       4.089   3.766  14.999  0.00  0.00    +0.048 HD
ATOM     13  H   UNL     1       5.662   3.653  13.129  0.00  0.00    +0.044 HD
ATOM     14  H   UNL     1       6.213   2.715  14.494  0.00  0.00    +0.044 HD
ENDROOT
BRANCH   4  15
ATOM     15  C   UNL     1       4.581   4.489  17.520  0.00  0.00    +0.031 A 
ATOM     16  C   UNL     1       3.486   3.615  17.575  0.00  0.00    -0.023 A 
ATOM     17  C   UNL     1       2.592   3.614  18.658  0.00  0.00    +0.061 A 
ATOM     18  C   UNL     1       2.761   4.491  19.733  0.00  0.00    +0.134 A 
ATOM     19  C   UNL     1       3.841   5.368  19.696  0.00  0.00    -0.017 A 
ATOM     20  C   UNL     1       4.729   5.362  18.607  0.00  0.00    -0.037 A 
ATOM     21 BR   UNL     1       1.143   2.379  18.602  0.00  0.00    -0.046 Br
ATOM     22  H   UNL     1       3.297   2.931  16.754  0.00  0.00    +0.065 HD
ATOM     23  H   UNL     1       4.037   6.073  20.498  0.00  0.00    +0.065 HD
ATOM     24  H   UNL     1       5.567   6.055  18.645  0.00  0.00    +0.064 HD
BRANCH  18  25
ATOM     25  O   UNL     1       1.845   4.424  20.748  0.00  0.00    -0.494 OA
BRANCH  25  26
ATOM     26  C   UNL     1       2.088   3.492  21.794  0.00  0.00    +0.079 C 
ATOM     27  H   UNL     1       1.564   3.848  22.687  0.00  0.00    +0.066 HD
ATOM     28  H   UNL     1       3.154   3.437  22.035  0.00  0.00    +0.066 HD
ATOM     29  H   UNL     1       1.686   2.504  21.544  0.00  0.00    +0.066 HD
ENDBRANCH  25  26
ENDBRANCH  18  25
ENDBRANCH   4  15
BRANCH   1  30
ATOM     30  C   UNL     1       7.562   5.275  12.996  0.00  0.00    -0.013 C 
ATOM     31  H   UNL     1       8.380   5.981  13.173  0.00  0.00    +0.039 HD
ATOM     32  H   UNL     1       6.654   5.845  12.766  0.00  0.00    +0.039 HD
ATOM     33  H   UNL     1       7.836   4.692  12.109  0.00  0.00    +0.039 HD
ENDBRANCH   1  30
TORSDOF 4
ENDMDL
MODEL 23
REMARK VINA RESULT:    -4.694      2.474      3.081
REMARK INTER + INTRA:          -5.728
REMARK INTER:                  -5.668
REMARK INTRA:                  -0.060
REMARK UNBOUND:                -0.211
REMARK  Name = 
REMARK  4 active torsions:
REMARK  status: ('A' for Active; 'I' for Inactive)
REMARK    1  A    between atoms: C_1  and  N_2
REMARK    2  A    between atoms: N_5  and  C_6
REMARK    3  A    between atoms: C_9  and  O_12
REMARK    4  A    between atoms: O_12  and  C_13
REMARK                            x       y       z     vdW  Elec       q    Type
REMARK                         _______ _______ _______ _____ _____    ______ ____
ROOT
ATOM      1  N   UNL     1       0.547  10.092  19.772  0.00  0.00    -0.302 NA
ATOM      2  C   UNL     1       0.582   8.724  20.334  0.00  0.00    +0.014 C 
ATOM      3  C   UNL     1       1.925   7.987  20.126  0.00  0.00    +0.025 C 
ATOM      4  N   UNL     1       2.221   7.846  18.690  0.00  0.00    -0.327 N 
ATOM      5  C   UNL     1       1.663   8.883  17.804  0.00  0.00    +0.025 C 
ATOM      6  C   UNL     1       1.406  10.201  18.573  0.00  0.00    +0.014 C 
ATOM      7  H   UNL     1       0.368   8.783  21.408  0.00  0.00    +0.044 HD
ATOM      8  H   UNL     1      -0.207   8.106  19.881  0.00  0.00    +0.044 HD
ATOM      9  H   UNL     1       2.737   8.533  20.621  0.00  0.00    +0.048 HD
ATOM     10  H   UNL     1       1.834   7.003  20.602  0.00  0.00    +0.048 HD
ATOM     11  H   UNL     1       0.727   8.520  17.363  0.00  0.00    +0.048 HD
ATOM     12  H   UNL     1       2.359   9.114  16.989  0.00  0.00    +0.048 HD
ATOM     13  H   UNL     1       1.025  10.961  17.881  0.00  0.00    +0.044 HD
ATOM     14  H   UNL     1       2.377  10.581  18.918  0.00  0.00    +0.044 HD
ENDROOT
BRANCH   4  15
ATOM     15  C   UNL     1       3.032   6.836  18.204  0.00  0.00    +0.031 A 
ATOM     16  C   UNL     1       4.395   7.039  17.946  0.00  0.00    -0.023 A 
ATOM     17  C   UNL     1       5.217   6.014  17.450  0.00  0.00    +0.061 A 
ATOM     18  C   UNL     1       4.704   4.739  17.195  0.00  0.00    +0.134 A 
ATOM     19  C   UNL     1       3.352   4.518  17.443  0.00  0.00    -0.017 A 
ATOM     20  C   UNL     1       2.538   5.550  17.936  0.00  0.00    -0.037 A 
ATOM     21 BR   UNL     1       7.049   6.429  17.138  0.00  0.00    -0.046 Br
ATOM     22  H   UNL     1       4.836   8.018  18.106  0.00  0.00    +0.065 HD
ATOM     23  H   UNL     1       2.887   3.552  17.272  0.00  0.00    +0.065 HD
ATOM     24  H   UNL     1       1.496   5.311  18.132  0.00  0.00    +0.064 HD
BRANCH  18  25
ATOM     25  O   UNL     1       5.574   3.797  16.714  0.00  0.00    -0.494 OA
BRANCH  25  26
ATOM     26  C   UNL     1       5.772   3.740  15.309  0.00  0.00    +0.079 C 
ATOM     27  H   UNL     1       5.983   2.699  15.043  0.00  0.00    +0.066 HD
ATOM     28  H   UNL     1       6.636   4.341  15.006  0.00  0.00    +0.066 HD
ATOM     29  H   UNL     1       4.869   4.044  14.769  0.00  0.00    +0.066 HD
ENDBRANCH  25  26
ENDBRANCH  18  25
ENDBRANCH   4  15
BRANCH   1  30
ATOM     30  C   UNL     1      -0.828  10.497  19.494  0.00  0.00    -0.013 C 
ATOM     31  H   UNL     1      -1.534   9.751  19.877  0.00  0.00    +0.039 HD
ATOM     32  H   UNL     1      -1.013  10.631  18.422  0.00  0.00    +0.039 HD
ATOM     33  H   UNL     1      -1.060  11.439  20.004  0.00  0.00    +0.039 HD
ENDBRANCH   1  30
TORSDOF 4
ENDMDL
MODEL 24
REMARK VINA RESULT:    -4.515      3.864      6.292
REMARK INTER + INTRA:          -5.517
REMARK INTER:                  -5.304
REMARK INTRA:                  -0.213
REMARK UNBOUND:                -0.211
REMARK  Name = 
REMARK  4 active torsions:
REMARK  status: ('A' for Active; 'I' for Inactive)
REMARK    1  A    between atoms: C_1  and  N_2
REMARK    2  A    between atoms: N_5  and  C_6
REMARK    3  A    between atoms: C_9  and  O_12
REMARK    4  A    between atoms: O_12  and  C_13
REMARK                            x       y       z     vdW  Elec       q    Type
REMARK                         _______ _______ _______ _____ _____    ______ ____
ROOT
ATOM      1  N   UNL     1       6.417   4.250  14.990  0.00  0.00    -0.302 NA
ATOM      2  C   UNL     1       6.143   5.703  14.952  0.00  0.00    +0.014 C 
ATOM      3  C   UNL     1       5.789   6.318  16.326  0.00  0.00    +0.025 C 
ATOM      4  N   UNL     1       4.578   5.687  16.879  0.00  0.00    -0.327 N 
ATOM      5  C   UNL     1       4.321   4.296  16.466  0.00  0.00    +0.025 C 
ATOM      6  C   UNL     1       5.629   3.583  16.047  0.00  0.00    +0.014 C 
ATOM      7  H   UNL     1       7.025   6.214  14.547  0.00  0.00    +0.044 HD
ATOM      8  H   UNL     1       5.306   5.915  14.271  0.00  0.00    +0.044 HD
ATOM      9  H   UNL     1       6.626   6.190  17.024  0.00  0.00    +0.048 HD
ATOM     10  H   UNL     1       5.632   7.392  16.172  0.00  0.00    +0.048 HD
ATOM     11  H   UNL     1       3.608   4.289  15.634  0.00  0.00    +0.048 HD
ATOM     12  H   UNL     1       3.888   3.719  17.293  0.00  0.00    +0.048 HD
ATOM     13  H   UNL     1       5.409   2.542  15.781  0.00  0.00    +0.044 HD
ATOM     14  H   UNL     1       6.277   3.528  16.933  0.00  0.00    +0.044 HD
ENDROOT
BRANCH   4  15
ATOM     15  C   UNL     1       3.760   6.339  17.784  0.00  0.00    +0.031 A 
ATOM     16  C   UNL     1       3.211   7.601  17.512  0.00  0.00    -0.023 A 
ATOM     17  C   UNL     1       2.383   8.264  18.432  0.00  0.00    +0.061 A 
ATOM     18  C   UNL     1       2.070   7.686  19.666  0.00  0.00    +0.134 A 
ATOM     19  C   UNL     1       2.607   6.435  19.956  0.00  0.00    -0.017 A 
ATOM     20  C   UNL     1       3.436   5.781  19.030  0.00  0.00    -0.037 A 
ATOM     21 BR   UNL     1       1.710   9.974  17.936  0.00  0.00    -0.046 Br
ATOM     22  H   UNL     1       3.443   8.102  16.577  0.00  0.00    +0.065 HD
ATOM     23  H   UNL     1       2.403   5.925  20.892  0.00  0.00    +0.065 HD
ATOM     24  H   UNL     1       3.807   4.796  19.303  0.00  0.00    +0.064 HD
BRANCH  18  25
ATOM     25  O   UNL     1       1.255   8.399  20.503  0.00  0.00    -0.494 OA
BRANCH  25  26
ATOM     26  C   UNL     1       0.619   7.694  21.561  0.00  0.00    +0.079 C 
ATOM     27  H   UNL     1       1.086   8.008  22.500  0.00  0.00    +0.066 HD
ATOM     28  H   UNL     1       0.766   6.614  21.461  0.00  0.00    +0.066 HD
ATOM     29  H   UNL     1      -0.446   7.945  21.619  0.00  0.00    +0.066 HD
ENDBRANCH  25  26
ENDBRANCH  18  25
ENDBRANCH   4  15
BRANCH   1  30
ATOM     30  C   UNL     1       6.185   3.651  13.678  0.00  0.00    -0.013 C 
ATOM     31  H   UNL     1       5.271   4.052  13.228  0.00  0.00    +0.039 HD
ATOM     32  H   UNL     1       6.096   2.560  13.731  0.00  0.00    +0.039 HD
ATOM     33  H   UNL     1       7.006   3.896  12.995  0.00  0.00    +0.039 HD
ENDBRANCH   1  30
TORSDOF 4
ENDMDL
MODEL 25
REMARK VINA RESULT:    -4.408      4.174      5.860
REMARK INTER + INTRA:          -5.392
REMARK INTER:                  -5.268
REMARK INTRA:                  -0.124
REMARK UNBOUND:                -0.211
REMARK  Name = 
REMARK  4 active torsions:
REMARK  status: ('A' for Active; 'I' for Inactive)
REMARK    1  A    between atoms: C_1  and  N_2
REMARK    2  A    between atoms: N_5  and  C_6
REMARK    3  A    between atoms: C_9  and  O_12
REMARK    4  A    between atoms: O_12  and  C_13
REMARK                            x       y       z     vdW  Elec       q    Type
REMARK                         _______ _______ _______ _____ _____    ______ ____
ROOT
ATOM      1  N   UNL     1       1.099   2.947  20.352  0.00  0.00    -0.302 NA
ATOM      2  C   UNL     1       1.267   4.406  20.527  0.00  0.00    +0.014 C 
ATOM      3  C   UNL     1       2.050   5.096  19.385  0.00  0.00    +0.025 C 
ATOM      4  N   UNL     1       3.409   4.537  19.278  0.00  0.00    -0.327 N 
ATOM      5  C   UNL     1       3.575   3.139  19.713  0.00  0.00    +0.025 C 
ATOM      6  C   UNL     1       2.242   2.359  19.622  0.00  0.00    +0.014 C 
ATOM      7  H   UNL     1       0.274   4.865  20.609  0.00  0.00    +0.044 HD
ATOM      8  H   UNL     1       1.799   4.619  21.465  0.00  0.00    +0.044 HD
ATOM      9  H   UNL     1       1.520   4.969  18.433  0.00  0.00    +0.048 HD
ATOM     10  H   UNL     1       2.088   6.167  19.616  0.00  0.00    +0.048 HD
ATOM     11  H   UNL     1       3.949   3.120  20.744  0.00  0.00    +0.048 HD
ATOM     12  H   UNL     1       4.300   2.617  19.077  0.00  0.00    +0.048 HD
ATOM     13  H   UNL     1       2.406   1.316  19.918  0.00  0.00    +0.044 HD
ATOM     14  H   UNL     1       1.950   2.319  18.564  0.00  0.00    +0.044 HD
ENDROOT
BRANCH   4  15
ATOM     15  C   UNL     1       4.458   5.259  18.739  0.00  0.00    +0.031 A 
ATOM     16  C   UNL     1       5.762   5.161  19.245  0.00  0.00    -0.023 A 
ATOM     17  C   UNL     1       6.827   5.896  18.700  0.00  0.00    +0.061 A 
ATOM     18  C   UNL     1       6.627   6.761  17.621  0.00  0.00    +0.134 A 
ATOM     19  C   UNL     1       5.339   6.875  17.105  0.00  0.00    -0.017 A 
ATOM     20  C   UNL     1       4.280   6.137  17.659  0.00  0.00    -0.037 A 
ATOM     21 BR   UNL     1       8.546   5.671  19.488  0.00  0.00    -0.046 Br
ATOM     22  H   UNL     1       5.965   4.520  20.098  0.00  0.00    +0.065 HD
ATOM     23  H   UNL     1       5.111   7.524  16.266  0.00  0.00    +0.065 HD
ATOM     24  H   UNL     1       3.301   6.250  17.199  0.00  0.00    +0.064 HD
BRANCH  18  25
ATOM     25  O   UNL     1       7.719   7.439  17.149  0.00  0.00    -0.494 OA
BRANCH  25  26
ATOM     26  C   UNL     1       7.987   8.721  17.699  0.00  0.00    +0.079 C 
ATOM     27  H   UNL     1       9.072   8.867  17.695  0.00  0.00    +0.066 HD
ATOM     28  H   UNL     1       7.648   8.784  18.738  0.00  0.00    +0.066 HD
ATOM     29  H   UNL     1       7.543   9.515  17.088  0.00  0.00    +0.066 HD
ENDBRANCH  25  26
ENDBRANCH  18  25
ENDBRANCH   4  15
BRANCH   1  30
ATOM     30  C   UNL     1       0.885   2.298  21.643  0.00  0.00    -0.013 C 
ATOM     31  H   UNL     1       0.390   2.982  22.340  0.00  0.00    +0.039 HD
ATOM     32  H   UNL     1       1.823   1.958  22.096  0.00  0.00    +0.039 HD
ATOM     33  H   UNL     1       0.224   1.432  21.530  0.00  0.00    +0.039 HD
ENDBRANCH   1  30
TORSDOF 4
ENDMDL
MODEL 26
REMARK VINA RESULT:    -4.407      3.865      5.644
REMARK INTER + INTRA:          -5.391
REMARK INTER:                  -5.160
REMARK INTRA:                  -0.230
REMARK UNBOUND:                -0.211
REMARK  Name = 
REMARK  4 active torsions:
REMARK  status: ('A' for Active; 'I' for Inactive)
REMARK    1  A    between atoms: C_1  and  N_2
REMARK    2  A    between atoms: N_5  and  C_6
REMARK    3  A    between atoms: C_9  and  O_12
REMARK    4  A    between atoms: O_12  and  C_13
REMARK                            x       y       z     vdW  Elec       q    Type
REMARK                         _______ _______ _______ _____ _____    ______ ____
ROOT
ATOM      1  N   UNL     1      -2.759  13.593  22.520  0.00  0.00    -0.302 NA
ATOM      2  C   UNL     1      -2.774  12.253  23.146  0.00  0.00    +0.014 C 
ATOM      3  C   UNL     1      -1.428  11.497  23.059  0.00  0.00    +0.025 C 
ATOM      4  N   UNL     1      -1.042  11.288  21.653  0.00  0.00    -0.327 N 
ATOM      5  C   UNL     1      -1.532  12.286  20.687  0.00  0.00    +0.025 C 
ATOM      6  C   UNL     1      -1.824  13.641  21.376  0.00  0.00    +0.014 C 
ATOM      7  H   UNL     1      -3.056  12.363  24.200  0.00  0.00    +0.044 HD
ATOM      8  H   UNL     1      -3.538  11.620  22.672  0.00  0.00    +0.044 HD
ATOM      9  H   UNL     1      -0.644  12.060  23.580  0.00  0.00    +0.048 HD
ATOM     10  H   UNL     1      -1.559  10.537  23.572  0.00  0.00    +0.048 HD
ATOM     11  H   UNL     1      -2.440  11.910  20.203  0.00  0.00    +0.048 HD
ATOM     12  H   UNL     1      -0.782  12.475  19.908  0.00  0.00    +0.048 HD
ATOM     13  H   UNL     1      -2.151  14.371  20.626  0.00  0.00    +0.044 HD
ATOM     14  H   UNL     1      -0.873  14.029  21.765  0.00  0.00    +0.044 HD
ENDROOT
BRANCH   4  15
ATOM     15  C   UNL     1      -0.212  10.250  21.267  0.00  0.00    +0.031 A 
ATOM     16  C   UNL     1       0.365  10.199  19.990  0.00  0.00    -0.023 A 
ATOM     17  C   UNL     1       1.205   9.144  19.597  0.00  0.00    +0.061 A 
ATOM     18  C   UNL     1       1.502   8.096  20.473  0.00  0.00    +0.134 A 
ATOM     19  C   UNL     1       0.937   8.127  21.745  0.00  0.00    -0.017 A 
ATOM     20  C   UNL     1       0.096   9.185  22.127  0.00  0.00    -0.037 A 
ATOM     21 BR   UNL     1       1.917   9.197  17.833  0.00  0.00    -0.046 Br
ATOM     22  H   UNL     1       0.147  10.977  19.266  0.00  0.00    +0.065 HD
ATOM     23  H   UNL     1       1.127   7.350  22.478  0.00  0.00    +0.065 HD
ATOM     24  H   UNL     1      -0.297   9.167  23.140  0.00  0.00    +0.064 HD
BRANCH  18  25
ATOM     25  O   UNL     1       2.330   7.108  20.011  0.00  0.00    -0.494 OA
BRANCH  25  26
ATOM     26  C   UNL     1       1.997   5.765  20.333  0.00  0.00    +0.079 C 
ATOM     27  H   UNL     1       0.969   5.756  20.709  0.00  0.00    +0.066 HD
ATOM     28  H   UNL     1       2.644   5.377  21.127  0.00  0.00    +0.066 HD
ATOM     29  H   UNL     1       2.031   5.125  19.445  0.00  0.00    +0.066 HD
ENDBRANCH  25  26
ENDBRANCH  18  25
ENDBRANCH   4  15
BRANCH   1  30
ATOM     30  C   UNL     1      -4.109  13.995  22.136  0.00  0.00    -0.013 C 
ATOM     31  H   UNL     1      -4.685  14.299  23.017  0.00  0.00    +0.039 HD
ATOM     32  H   UNL     1      -4.652  13.190  21.627  0.00  0.00    +0.039 HD
ATOM     33  H   UNL     1      -4.075  14.863  21.469  0.00  0.00    +0.039 HD
ENDBRANCH   1  30
TORSDOF 4
ENDMDL
MODEL 27
REMARK VINA RESULT:    -4.116      5.027      7.157
REMARK INTER + INTRA:          -5.048
REMARK INTER:                  -4.852
REMARK INTRA:                  -0.197
REMARK UNBOUND:                -0.211
REMARK  Name = 
REMARK  4 active torsions:
REMARK  status: ('A' for Active; 'I' for Inactive)
REMARK    1  A    between atoms: C_1  and  N_2
REMARK    2  A    between atoms: N_5  and  C_6
REMARK    3  A    between atoms: C_9  and  O_12
REMARK    4  A    between atoms: O_12  and  C_13
REMARK                            x       y       z     vdW  Elec       q    Type
REMARK                         _______ _______ _______ _____ _____    ______ ____
ROOT
ATOM      1  N   UNL     1      -3.462  14.034  23.625  0.00  0.00    -0.302 NA
ATOM      2  C   UNL     1      -2.662  14.627  22.531  0.00  0.00    +0.014 C 
ATOM      3  C   UNL     1      -2.557  13.739  21.269  0.00  0.00    +0.025 C 
ATOM      4  N   UNL     1      -1.917  12.452  21.594  0.00  0.00    -0.327 N 
ATOM      5  C   UNL     1      -2.089  11.968  22.975  0.00  0.00    +0.025 C 
ATOM      6  C   UNL     1      -3.364  12.559  23.623  0.00  0.00    +0.014 C 
ATOM      7  H   UNL     1      -3.106  15.590  22.255  0.00  0.00    +0.044 HD
ATOM      8  H   UNL     1      -1.637  14.831  22.876  0.00  0.00    +0.044 HD
ATOM      9  H   UNL     1      -3.554  13.562  20.847  0.00  0.00    +0.048 HD
ATOM     10  H   UNL     1      -1.964  14.291  20.530  0.00  0.00    +0.048 HD
ATOM     11  H   UNL     1      -1.209  12.239  23.569  0.00  0.00    +0.048 HD
ATOM     12  H   UNL     1      -2.193  10.876  22.994  0.00  0.00    +0.048 HD
ATOM     13  H   UNL     1      -3.483  12.153  24.635  0.00  0.00    +0.044 HD
ATOM     14  H   UNL     1      -4.229  12.189  23.056  0.00  0.00    +0.044 HD
ENDROOT
BRANCH   4  15
ATOM     15  C   UNL     1      -1.246  11.706  20.641  0.00  0.00    +0.031 A 
ATOM     16  C   UNL     1      -1.871  11.278  19.461  0.00  0.00    -0.023 A 
ATOM     17  C   UNL     1      -1.191  10.519  18.495  0.00  0.00    +0.061 A 
ATOM     18  C   UNL     1       0.148  10.158  18.674  0.00  0.00    +0.134 A 
ATOM     19  C   UNL     1       0.785  10.571  19.841  0.00  0.00    -0.017 A 
ATOM     20  C   UNL     1       0.095  11.328  20.801  0.00  0.00    -0.037 A 
ATOM     21 BR   UNL     1      -2.161   9.999  16.941  0.00  0.00    -0.046 Br
ATOM     22  H   UNL     1      -2.916  11.512  19.286  0.00  0.00    +0.065 HD
ATOM     23  H   UNL     1       1.824  10.331  20.044  0.00  0.00    +0.065 HD
ATOM     24  H   UNL     1       0.652  11.641  21.681  0.00  0.00    +0.064 HD
BRANCH  18  25
ATOM     25  O   UNL     1       0.736   9.418  17.683  0.00  0.00    -0.494 OA
BRANCH  25  26
ATOM     26  C   UNL     1       1.980   8.798  17.975  0.00  0.00    +0.079 C 
ATOM     27  H   UNL     1       2.253   9.062  19.002  0.00  0.00    +0.066 HD
ATOM     28  H   UNL     1       2.772   9.169  17.316  0.00  0.00    +0.066 HD
ATOM     29  H   UNL     1       1.901   7.707  17.923  0.00  0.00    +0.066 HD
ENDBRANCH  25  26
ENDBRANCH  18  25
ENDBRANCH   4  15
BRANCH   1  30
ATOM     30  C   UNL     1      -3.072  14.605  24.911  0.00  0.00    -0.013 C 
ATOM     31  H   UNL     1      -3.213  15.691  24.910  0.00  0.00    +0.039 HD
ATOM     32  H   UNL     1      -2.025  14.391  25.159  0.00  0.00    +0.039 HD
ATOM     33  H   UNL     1      -3.703  14.207  25.714  0.00  0.00    +0.039 HD
ENDBRANCH   1  30
TORSDOF 4
ENDMDL
MODEL 28
REMARK VINA RESULT:    -3.965      6.840      8.424
REMARK INTER + INTRA:          -4.871
REMARK INTER:                  -4.659
REMARK INTRA:                  -0.212
REMARK UNBOUND:                -0.211
REMARK  Name = 
REMARK  4 active torsions:
REMARK  status: ('A' for Active; 'I' for Inactive)
REMARK    1  A    between atoms: C_1  and  N_2
REMARK    2  A    between atoms: N_5  and  C_6
REMARK    3  A    between atoms: C_9  and  O_12
REMARK    4  A    between atoms: O_12  and  C_13
REMARK                            x       y       z     vdW  Elec       q    Type
REMARK                         _______ _______ _______ _____ _____    ______ ____
ROOT
ATOM      1  N   UNL     1      -3.870  14.046  23.752  0.00  0.00    -0.302 NA
ATOM      2  C   UNL     1      -3.946  14.725  22.440  0.00  0.00    +0.014 C 
ATOM      3  C   UNL     1      -4.280  13.785  21.258  0.00  0.00    +0.025 C 
ATOM      4  N   UNL     1      -3.249  12.742  21.119  0.00  0.00    -0.327 N 
ATOM      5  C   UNL     1      -2.542  12.355  22.353  0.00  0.00    +0.025 C 
ATOM      6  C   UNL     1      -3.398  12.652  23.608  0.00  0.00    +0.014 C 
ATOM      7  H   UNL     1      -4.707  15.512  22.498  0.00  0.00    +0.044 HD
ATOM      8  H   UNL     1      -2.990  15.217  22.209  0.00  0.00    +0.044 HD
ATOM      9  H   UNL     1      -5.261  13.320  21.410  0.00  0.00    +0.048 HD
ATOM     10  H   UNL     1      -4.330  14.404  20.354  0.00  0.00    +0.048 HD
ATOM     11  H   UNL     1      -1.591  12.896  22.414  0.00  0.00    +0.048 HD
ATOM     12  H   UNL     1      -2.326  11.280  22.357  0.00  0.00    +0.048 HD
ATOM     13  H   UNL     1      -2.861  12.321  24.505  0.00  0.00    +0.044 HD
ATOM     14  H   UNL     1      -4.296  12.022  23.556  0.00  0.00    +0.044 HD
ENDROOT
BRANCH   4  15
ATOM     15  C   UNL     1      -3.000  12.113  19.913  0.00  0.00    +0.031 A 
ATOM     16  C   UNL     1      -1.771  11.496  19.639  0.00  0.00    -0.023 A 
ATOM     17  C   UNL     1      -1.517  10.859  18.413  0.00  0.00    +0.061 A 
ATOM     18  C   UNL     1      -2.490  10.814  17.410  0.00  0.00    +0.134 A 
ATOM     19  C   UNL     1      -3.716  11.423  17.662  0.00  0.00    -0.017 A 
ATOM     20  C   UNL     1      -3.959  12.058  18.890  0.00  0.00    -0.037 A 
ATOM     21 BR   UNL     1       0.197  10.068  18.171  0.00  0.00    -0.046 Br
ATOM     22  H   UNL     1      -0.975  11.524  20.376  0.00  0.00    +0.065 HD
ATOM     23  H   UNL     1      -4.519  11.422  16.931  0.00  0.00    +0.065 HD
ATOM     24  H   UNL     1      -4.943  12.496  19.038  0.00  0.00    +0.064 HD
BRANCH  18  25
ATOM     25  O   UNL     1      -2.161  10.172  16.246  0.00  0.00    -0.494 OA
BRANCH  25  26
ATOM     26  C   UNL     1      -2.932  10.470  15.090  0.00  0.00    +0.079 C 
ATOM     27  H   UNL     1      -3.912   9.996  15.210  0.00  0.00    +0.066 HD
ATOM     28  H   UNL     1      -2.470  10.053  14.189  0.00  0.00    +0.066 HD
ATOM     29  H   UNL     1      -3.096  11.548  14.990  0.00  0.00    +0.066 HD
ENDBRANCH  25  26
ENDBRANCH  18  25
ENDBRANCH   4  15
BRANCH   1  30
ATOM     30  C   UNL     1      -3.037  14.810  24.676  0.00  0.00    -0.013 C 
ATOM     31  H   UNL     1      -3.581  15.017  25.604  0.00  0.00    +0.039 HD
ATOM     32  H   UNL     1      -2.708  15.764  24.247  0.00  0.00    +0.039 HD
ATOM     33  H   UNL     1      -2.147  14.234  24.955  0.00  0.00    +0.039 HD
ENDBRANCH   1  30
TORSDOF 4
ENDMDL
MODEL 29
REMARK VINA RESULT:    -3.865      4.844      7.183
REMARK INTER + INTRA:          -4.754
REMARK INTER:                  -4.564
REMARK INTRA:                  -0.190
REMARK UNBOUND:                -0.211
REMARK  Name = 
REMARK  4 active torsions:
REMARK  status: ('A' for Active; 'I' for Inactive)
REMARK    1  A    between atoms: C_1  and  N_2
REMARK    2  A    between atoms: N_5  and  C_6
REMARK    3  A    between atoms: C_9  and  O_12
REMARK    4  A    between atoms: O_12  and  C_13
REMARK                            x       y       z     vdW  Elec       q    Type
REMARK                         _______ _______ _______ _____ _____    ______ ____
ROOT
ATOM      1  N   UNL     1      -3.685  14.247  23.681  0.00  0.00    -0.302 NA
ATOM      2  C   UNL     1      -3.729  12.768  23.677  0.00  0.00    +0.014 C 
ATOM      3  C   UNL     1      -2.444  12.098  23.139  0.00  0.00    +0.025 C 
ATOM      4  N   UNL     1      -2.193  12.503  21.745  0.00  0.00    -0.327 N 
ATOM      5  C   UNL     1      -2.702  13.828  21.350  0.00  0.00    +0.025 C 
ATOM      6  C   UNL     1      -2.851  14.762  22.575  0.00  0.00    +0.014 C 
ATOM      7  H   UNL     1      -3.912  12.422  24.701  0.00  0.00    +0.044 HD
ATOM      8  H   UNL     1      -4.568  12.413  23.061  0.00  0.00    +0.044 HD
ATOM      9  H   UNL     1      -1.585  12.369  23.765  0.00  0.00    +0.048 HD
ATOM     10  H   UNL     1      -2.589  11.013  23.208  0.00  0.00    +0.048 HD
ATOM     11  H   UNL     1      -3.670  13.712  20.849  0.00  0.00    +0.048 HD
ATOM     12  H   UNL     1      -2.012  14.318  20.652  0.00  0.00    +0.048 HD
ATOM     13  H   UNL     1      -3.197  15.749  22.243  0.00  0.00    +0.044 HD
ATOM     14  H   UNL     1      -1.848  14.929  22.991  0.00  0.00    +0.044 HD
ENDROOT
BRANCH   4  15
ATOM     15  C   UNL     1      -1.464  11.715  20.872  0.00  0.00    +0.031 A 
ATOM     16  C   UNL     1      -0.655  10.663  21.324  0.00  0.00    -0.023 A 
ATOM     17  C   UNL     1       0.087   9.864  20.439  0.00  0.00    +0.061 A 
ATOM     18  C   UNL     1       0.045  10.088  19.059  0.00  0.00    +0.134 A 
ATOM     19  C   UNL     1      -0.751  11.130  18.591  0.00  0.00    -0.017 A 
ATOM     20  C   UNL     1      -1.487  11.924  19.486  0.00  0.00    -0.037 A 
ATOM     21 BR   UNL     1       1.149   8.473  21.187  0.00  0.00    -0.046 Br
ATOM     22  H   UNL     1      -0.570  10.463  22.388  0.00  0.00    +0.065 HD
ATOM     23  H   UNL     1      -0.834  11.358  17.534  0.00  0.00    +0.065 HD
ATOM     24  H   UNL     1      -2.108  12.708  19.059  0.00  0.00    +0.064 HD
BRANCH  18  25
ATOM     25  O   UNL     1       0.797   9.263  18.267  0.00  0.00    -0.494 OA
BRANCH  25  26
ATOM     26  C   UNL     1       2.068   9.736  17.842  0.00  0.00    +0.079 C 
ATOM     27  H   UNL     1       2.518  10.280  18.678  0.00  0.00    +0.066 HD
ATOM     28  H   UNL     1       1.970  10.435  17.005  0.00  0.00    +0.066 HD
ATOM     29  H   UNL     1       2.735   8.904  17.589  0.00  0.00    +0.066 HD
ENDBRANCH  25  26
ENDBRANCH  18  25
ENDBRANCH   4  15
BRANCH   1  30
ATOM     30  C   UNL     1      -5.037  14.799  23.646  0.00  0.00    -0.013 C 
ATOM     31  H   UNL     1      -5.193  15.378  22.729  0.00  0.00    +0.039 HD
ATOM     32  H   UNL     1      -5.242  15.447  24.505  0.00  0.00    +0.039 HD
ATOM     33  H   UNL     1      -5.780  13.993  23.637  0.00  0.00    +0.039 HD
ENDBRANCH   1  30
TORSDOF 4
ENDMDL
MODEL 30
REMARK VINA RESULT:    -3.718      7.948      9.649
REMARK INTER + INTRA:          -4.580
REMARK INTER:                  -4.346
REMARK INTRA:                  -0.235
REMARK UNBOUND:                -0.211
REMARK  Name = 
REMARK  4 active torsions:
REMARK  status: ('A' for Active; 'I' for Inactive)
REMARK    1  A    between atoms: C_1  and  N_2
REMARK    2  A    between atoms: N_5  and  C_6
REMARK    3  A    between atoms: C_9  and  O_12
REMARK    4  A    between atoms: O_12  and  C_13
REMARK                            x       y       z     vdW  Elec       q    Type
REMARK                         _______ _______ _______ _____ _____    ______ ____
ROOT
ATOM      1  N   UNL     1      -3.245  10.984  15.762  0.00  0.00    -0.302 NA
ATOM      2  C   UNL     1      -4.507  10.869  16.526  0.00  0.00    +0.014 C 
ATOM      3  C   UNL     1      -4.669  11.924  17.645  0.00  0.00    +0.025 C 
ATOM      4  N   UNL     1      -3.581  11.804  18.631  0.00  0.00    -0.327 N 
ATOM      5  C   UNL     1      -2.302  11.271  18.129  0.00  0.00    +0.025 C 
ATOM      6  C   UNL     1      -2.152  11.509  16.607  0.00  0.00    +0.014 C 
ATOM      7  H   UNL     1      -5.347  10.956  15.827  0.00  0.00    +0.044 HD
ATOM      8  H   UNL     1      -4.579   9.877  16.995  0.00  0.00    +0.044 HD
ATOM      9  H   UNL     1      -4.671  12.933  17.216  0.00  0.00    +0.048 HD
ATOM     10  H   UNL     1      -5.642  11.750  18.118  0.00  0.00    +0.048 HD
ATOM     11  H   UNL     1      -2.243  10.199  18.347  0.00  0.00    +0.048 HD
ATOM     12  H   UNL     1      -1.455  11.767  18.619  0.00  0.00    +0.048 HD
ATOM     13  H   UNL     1      -1.177  11.134  16.272  0.00  0.00    +0.044 HD
ATOM     14  H   UNL     1      -2.121  12.594  16.440  0.00  0.00    +0.044 HD
ENDROOT
BRANCH   4  15
ATOM     15  C   UNL     1      -3.728  12.226  19.940  0.00  0.00    +0.031 A 
ATOM     16  C   UNL     1      -2.625  12.559  20.739  0.00  0.00    -0.023 A 
ATOM     17  C   UNL     1      -2.773  12.985  22.069  0.00  0.00    +0.061 A 
ATOM     18  C   UNL     1      -4.039  13.098  22.652  0.00  0.00    +0.134 A 
ATOM     19  C   UNL     1      -5.147  12.770  21.875  0.00  0.00    -0.017 A 
ATOM     20  C   UNL     1      -4.987  12.343  20.547  0.00  0.00    -0.037 A 
ATOM     21 BR   UNL     1      -1.191  13.399  23.043  0.00  0.00    -0.046 Br
ATOM     22  H   UNL     1      -1.619  12.465  20.340  0.00  0.00    +0.065 HD
ATOM     23  H   UNL     1      -6.159  12.838  22.260  0.00  0.00    +0.065 HD
ATOM     24  H   UNL     1      -5.890  12.123  19.983  0.00  0.00    +0.064 HD
BRANCH  18  25
ATOM     25  O   UNL     1      -4.095  13.522  23.952  0.00  0.00    -0.494 OA
BRANCH  25  26
ATOM     26  C   UNL     1      -4.403  12.556  24.948  0.00  0.00    +0.079 C 
ATOM     27  H   UNL     1      -5.421  12.199  24.764  0.00  0.00    +0.066 HD
ATOM     28  H   UNL     1      -4.381  12.999  25.948  0.00  0.00    +0.066 HD
ATOM     29  H   UNL     1      -3.732  11.693  24.882  0.00  0.00    +0.066 HD
ENDBRANCH  25  26
ENDBRANCH  18  25
ENDBRANCH   4  15
BRANCH   1  30
ATOM     30  C   UNL     1      -2.896   9.703  15.154  0.00  0.00    -0.013 C 
ATOM     31  H   UNL     1      -2.735   8.942  15.925  0.00  0.00    +0.039 HD
ATOM     32  H   UNL     1      -1.992   9.769  14.537  0.00  0.00    +0.039 HD
ATOM     33  H   UNL     1      -3.717   9.342  14.523  0.00  0.00    +0.039 HD
ENDBRANCH   1  30
TORSDOF 4
ENDMDL
MODEL 31
REMARK VINA RESULT:    -3.665      7.266      8.998
REMARK INTER + INTRA:          -4.519
REMARK INTER:                  -4.308
REMARK INTRA:                  -0.211
REMARK UNBOUND:                -0.211
REMARK  Name = 
REMARK  4 active torsions:
REMARK  status: ('A' for Active; 'I' for Inactive)
REMARK    1  A    between atoms: C_1  and  N_2
REMARK    2  A    between atoms: N_5  and  C_6
REMARK    3  A    between atoms: C_9  and  O_12
REMARK    4  A    between atoms: O_12  and  C_13
REMARK                            x       y       z     vdW  Elec       q    Type
REMARK                         _______ _______ _______ _____ _____    ______ ____
ROOT
ATOM      1  N   UNL     1      -3.245   9.934  16.175  0.00  0.00    -0.302 NA
ATOM      2  C   UNL     1      -1.877  10.021  16.730  0.00  0.00    +0.014 C 
ATOM      3  C   UNL     1      -1.823  10.135  18.271  0.00  0.00    +0.025 C 
ATOM      4  N   UNL     1      -2.527  11.348  18.724  0.00  0.00    -0.327 N 
ATOM      5  C   UNL     1      -3.622  11.827  17.863  0.00  0.00    +0.025 C 
ATOM      6  C   UNL     1      -4.211  10.677  17.011  0.00  0.00    +0.014 C 
ATOM      7  H   UNL     1      -1.316   9.131  16.417  0.00  0.00    +0.044 HD
ATOM      8  H   UNL     1      -1.353  10.894  16.317  0.00  0.00    +0.044 HD
ATOM      9  H   UNL     1      -2.276   9.249  18.733  0.00  0.00    +0.048 HD
ATOM     10  H   UNL     1      -0.766  10.169  18.559  0.00  0.00    +0.048 HD
ATOM     11  H   UNL     1      -3.250  12.623  17.209  0.00  0.00    +0.048 HD
ATOM     12  H   UNL     1      -4.442  12.235  18.467  0.00  0.00    +0.048 HD
ATOM     13  H   UNL     1      -5.046  11.057  16.409  0.00  0.00    +0.044 HD
ATOM     14  H   UNL     1      -4.657   9.946  17.699  0.00  0.00    +0.044 HD
ENDROOT
BRANCH   4  15
ATOM     15  C   UNL     1      -2.222  11.968  19.923  0.00  0.00    +0.031 A 
ATOM     16  C   UNL     1      -3.179  12.694  20.646  0.00  0.00    -0.023 A 
ATOM     17  C   UNL     1      -2.869  13.325  21.862  0.00  0.00    +0.061 A 
ATOM     18  C   UNL     1      -1.582  13.252  22.403  0.00  0.00    +0.134 A 
ATOM     19  C   UNL     1      -0.617  12.538  21.699  0.00  0.00    -0.017 A 
ATOM     20  C   UNL     1      -0.937  11.912  20.484  0.00  0.00    -0.037 A 
ATOM     21 BR   UNL     1      -4.262  14.284  22.736  0.00  0.00    -0.046 Br
ATOM     22  H   UNL     1      -4.186  12.800  20.256  0.00  0.00    +0.065 HD
ATOM     23  H   UNL     1       0.401  12.435  22.062  0.00  0.00    +0.065 HD
ATOM     24  H   UNL     1      -0.147  11.349  19.991  0.00  0.00    +0.064 HD
BRANCH  18  25
ATOM     25  O   UNL     1      -1.364  13.895  23.592  0.00  0.00    -0.494 OA
BRANCH  25  26
ATOM     26  C   UNL     1      -0.730  15.165  23.548  0.00  0.00    +0.079 C 
ATOM     27  H   UNL     1      -1.381  15.882  24.058  0.00  0.00    +0.066 HD
ATOM     28  H   UNL     1      -0.602  15.508  22.517  0.00  0.00    +0.066 HD
ATOM     29  H   UNL     1       0.227  15.149  24.082  0.00  0.00    +0.066 HD
ENDBRANCH  25  26
ENDBRANCH  18  25
ENDBRANCH   4  15
BRANCH   1  30
ATOM     30  C   UNL     1      -3.264  10.387  14.787  0.00  0.00    -0.013 C 
ATOM     31  H   UNL     1      -4.193  10.926  14.571  0.00  0.00    +0.039 HD
ATOM     32  H   UNL     1      -3.172   9.555  14.078  0.00  0.00    +0.039 HD
ATOM     33  H   UNL     1      -2.444  11.088  14.602  0.00  0.00    +0.039 HD
ENDBRANCH   1  30
TORSDOF 4
ENDMDL
MODEL 32
REMARK VINA RESULT:    -3.650      6.967      9.018
REMARK INTER + INTRA:          -4.501
REMARK INTER:                  -4.291
REMARK INTRA:                  -0.210
REMARK UNBOUND:                -0.211
REMARK  Name = 
REMARK  4 active torsions:
REMARK  status: ('A' for Active; 'I' for Inactive)
REMARK    1  A    between atoms: C_1  and  N_2
REMARK    2  A    between atoms: N_5  and  C_6
REMARK    3  A    between atoms: C_9  and  O_12
REMARK    4  A    between atoms: O_12  and  C_13
REMARK                            x       y       z     vdW  Elec       q    Type
REMARK                         _______ _______ _______ _____ _____    ______ ____
ROOT
ATOM      1  N   UNL     1      -2.782   9.749  16.948  0.00  0.00    -0.302 NA
ATOM      2  C   UNL     1      -1.397  10.055  17.368  0.00  0.00    +0.014 C 
ATOM      3  C   UNL     1      -1.245  10.368  18.874  0.00  0.00    +0.025 C 
ATOM      4  N   UNL     1      -2.053  11.544  19.242  0.00  0.00    -0.327 N 
ATOM      5  C   UNL     1      -3.258  11.787  18.429  0.00  0.00    +0.025 C 
ATOM      6  C   UNL     1      -3.766  10.482  17.772  0.00  0.00    +0.014 C 
ATOM      7  H   UNL     1      -0.759   9.200  17.113  0.00  0.00    +0.044 HD
ATOM      8  H   UNL     1      -1.012  10.921  16.811  0.00  0.00    +0.044 HD
ATOM      9  H   UNL     1      -1.554   9.503  19.474  0.00  0.00    +0.048 HD
ATOM     10  H   UNL     1      -0.181  10.554  19.063  0.00  0.00    +0.048 HD
ATOM     11  H   UNL     1      -3.032  12.531  17.657  0.00  0.00    +0.048 HD
ATOM     12  H   UNL     1      -4.074  12.176  19.051  0.00  0.00    +0.048 HD
ATOM     13  H   UNL     1      -4.682  10.690  17.205  0.00  0.00    +0.044 HD
ATOM     14  H   UNL     1      -4.070   9.799  18.577  0.00  0.00    +0.044 HD
ENDROOT
BRANCH   4  15
ATOM     15  C   UNL     1      -1.737  12.340  20.329  0.00  0.00    +0.031 A 
ATOM     16  C   UNL     1      -0.505  13.003  20.427  0.00  0.00    -0.023 A 
ATOM     17  C   UNL     1      -0.183  13.809  21.531  0.00  0.00    +0.061 A 
ATOM     18  C   UNL     1      -1.086  13.984  22.583  0.00  0.00    +0.134 A 
ATOM     19  C   UNL     1      -2.314  13.332  22.505  0.00  0.00    -0.017 A 
ATOM     20  C   UNL     1      -2.625  12.526  21.398  0.00  0.00    -0.037 A 
ATOM     21 BR   UNL     1       1.526  14.647  21.540  0.00  0.00    -0.046 Br
ATOM     22  H   UNL     1       0.240  12.880  19.647  0.00  0.00    +0.065 HD
ATOM     23  H   UNL     1      -3.065  13.426  23.283  0.00  0.00    +0.065 HD
ATOM     24  H   UNL     1      -3.608  12.061  21.382  0.00  0.00    +0.064 HD
BRANCH  18  25
ATOM     25  O   UNL     1      -0.694  14.787  23.620  0.00  0.00    -0.494 OA
BRANCH  25  26
ATOM     26  C   UNL     1      -1.607  14.969  24.694  0.00  0.00    +0.079 C 
ATOM     27  H   UNL     1      -2.202  15.862  24.479  0.00  0.00    +0.066 HD
ATOM     28  H   UNL     1      -1.078  15.141  25.637  0.00  0.00    +0.066 HD
ATOM     29  H   UNL     1      -2.297  14.122  24.775  0.00  0.00    +0.066 HD
ENDBRANCH  25  26
ENDBRANCH  18  25
ENDBRANCH   4  15
BRANCH   1  30
ATOM     30  C   UNL     1      -2.957  10.018  15.523  0.00  0.00    -0.013 C 
ATOM     31  H   UNL     1      -3.936   9.666  15.183  0.00  0.00    +0.039 HD
ATOM     32  H   UNL     1      -2.183   9.538  14.913  0.00  0.00    +0.039 HD
ATOM     33  H   UNL     1      -2.926  11.097  15.331  0.00  0.00    +0.039 HD
ENDBRANCH   1  30
TORSDOF 4
ENDMDL
