MODEL 1
REMARK VINA RESULT:    -5.147      0.000      0.000
REMARK INTER + INTRA:          -5.598
REMARK INTER:                  -5.598
REMARK INTRA:                   0.000
REMARK UNBOUND:                 0.000
REMARK  Name = 
REMARK  3 active torsions:
REMARK  status: ('A' for Active; 'I' for Inactive)
REMARK    1  A    between atoms: C_1  and  N_2
REMARK    2  A    between atoms: N_9  and  C_14
REMARK    3  A    between atoms: N_12  and  C_13
REMARK                            x       y       z     vdW  Elec       q    Type
REMARK                         _______ _______ _______ _____ _____    ______ ____
ROOT
ATOM      1  N   UNL     1       4.829   4.993  16.648  0.00  0.00    -0.328 N 
ATOM      2  C   UNL     1       4.941   6.357  16.593  0.00  0.00    +0.099 A 
ATOM      3  N   UNL     1       4.172   6.943  17.491  0.00  0.00    -0.218 NA
ATOM      4  C   UNL     1       3.555   5.912  18.133  0.00  0.00    +0.168 A 
ATOM      5  C   UNL     1       3.937   4.703  17.639  0.00  0.00    +0.151 A 
ATOM      6  C   UNL     1       3.440   3.466  18.135  0.00  0.00    +0.282 A 
ATOM      7  O   UNL     1       3.792   2.381  17.683  0.00  0.00    -0.265 OA
ATOM      8  N   UNL     1       2.524   3.631  19.178  0.00  0.00    -0.262 N 
ATOM      9  C   UNL     1       2.104   4.865  19.716  0.00  0.00    +0.333 A 
ATOM     10  O   UNL     1       1.286   4.908  20.641  0.00  0.00    -0.246 OA
ATOM     11  N   UNL     1       2.650   6.023  19.161  0.00  0.00    -0.280 N 
ATOM     12  H   UNL     1       5.587   6.868  15.891  0.00  0.00    +0.103 HD
ENDROOT
BRANCH   1  13
ATOM     13  C   UNL     1       5.526   4.048  15.812  0.00  0.00    +0.013 C 
ATOM     14  H   UNL     1       5.765   3.165  16.409  0.00  0.00    +0.046 HD
ATOM     15  H   UNL     1       6.438   4.521  15.437  0.00  0.00    +0.046 HD
ATOM     16  H   UNL     1       4.888   3.764  14.972  0.00  0.00    +0.046 HD
ENDBRANCH   1  13
BRANCH  11  17
ATOM     17  C   UNL     1       2.269   7.333  19.657  0.00  0.00    +0.018 C 
ATOM     18  H   UNL     1       1.257   7.566  19.310  0.00  0.00    +0.046 HD
ATOM     19  H   UNL     1       2.947   8.115  19.303  0.00  0.00    +0.046 HD
ATOM     20  H   UNL     1       2.290   7.322  20.751  0.00  0.00    +0.046 HD
ENDBRANCH  11  17
BRANCH   8  21
ATOM     21  C   UNL     1       1.943   2.443  19.772  0.00  0.00    +0.020 C 
ATOM     22  H   UNL     1       1.308   1.948  19.030  0.00  0.00    +0.046 HD
ATOM     23  H   UNL     1       1.318   2.738  20.621  0.00  0.00    +0.046 HD
ATOM     24  H   UNL     1       2.699   1.733  20.118  0.00  0.00    +0.046 HD
ENDBRANCH   8  21
TORSDOF 3
ENDMDL
MODEL 2
REMARK VINA RESULT:    -5.041      1.716      4.350
REMARK INTER + INTRA:          -5.483
REMARK INTER:                  -5.483
REMARK INTRA:                   0.000
REMARK UNBOUND:                 0.000
REMARK  Name = 
REMARK  3 active torsions:
REMARK  status: ('A' for Active; 'I' for Inactive)
REMARK    1  A    between atoms: C_1  and  N_2
REMARK    2  A    between atoms: N_9  and  C_14
REMARK    3  A    between atoms: N_12  and  C_13
REMARK                            x       y       z     vdW  Elec       q    Type
REMARK                         _______ _______ _______ _____ _____    ______ ____
ROOT
ATOM      1  N   UNL     1       2.717   3.132  20.333  0.00  0.00    -0.328 N 
ATOM      2  C   UNL     1       3.515   2.177  19.761  0.00  0.00    +0.099 A 
ATOM      3  N   UNL     1       4.186   2.658  18.732  0.00  0.00    -0.218 NA
ATOM      4  C   UNL     1       3.798   3.962  18.655  0.00  0.00    +0.168 A 
ATOM      5  C   UNL     1       2.898   4.283  19.623  0.00  0.00    +0.151 A 
ATOM      6  C   UNL     1       2.334   5.581  19.763  0.00  0.00    +0.282 A 
ATOM      7  O   UNL     1       1.523   5.861  20.640  0.00  0.00    -0.265 OA
ATOM      8  N   UNL     1       2.805   6.482  18.803  0.00  0.00    -0.262 N 
ATOM      9  C   UNL     1       3.736   6.187  17.786  0.00  0.00    +0.333 A 
ATOM     10  O   UNL     1       4.092   7.053  16.980  0.00  0.00    -0.246 OA
ATOM     11  N   UNL     1       4.232   4.883  17.732  0.00  0.00    -0.280 N 
ATOM     12  H   UNL     1       3.570   1.160  20.125  0.00  0.00    +0.103 HD
ENDROOT
BRANCH   1  13
ATOM     13  C   UNL     1       1.854   2.948  21.472  0.00  0.00    +0.013 C 
ATOM     14  H   UNL     1       2.375   3.301  22.365  0.00  0.00    +0.046 HD
ATOM     15  H   UNL     1       1.613   1.885  21.558  0.00  0.00    +0.046 HD
ATOM     16  H   UNL     1       0.935   3.523  21.330  0.00  0.00    +0.046 HD
ENDBRANCH   1  13
BRANCH  11  17
ATOM     17  C   UNL     1       5.193   4.497  16.715  0.00  0.00    +0.018 C 
ATOM     18  H   UNL     1       5.728   3.603  17.051  0.00  0.00    +0.046 HD
ATOM     19  H   UNL     1       5.922   5.289  16.523  0.00  0.00    +0.046 HD
ATOM     20  H   UNL     1       4.661   4.279  15.784  0.00  0.00    +0.046 HD
ENDBRANCH  11  17
BRANCH   8  21
ATOM     21  C   UNL     1       2.305   7.842  18.838  0.00  0.00    +0.020 C 
ATOM     22  H   UNL     1       3.144   8.526  19.006  0.00  0.00    +0.046 HD
ATOM     23  H   UNL     1       1.605   7.942  19.674  0.00  0.00    +0.046 HD
ATOM     24  H   UNL     1       1.797   8.128  17.914  0.00  0.00    +0.046 HD
ENDBRANCH   8  21
TORSDOF 3
ENDMDL
MODEL 3
REMARK VINA RESULT:    -5.016      1.453      1.847
REMARK INTER + INTRA:          -5.456
REMARK INTER:                  -5.456
REMARK INTRA:                   0.000
REMARK UNBOUND:                 0.000
REMARK  Name = 
REMARK  3 active torsions:
REMARK  status: ('A' for Active; 'I' for Inactive)
REMARK    1  A    between atoms: C_1  and  N_2
REMARK    2  A    between atoms: N_9  and  C_14
REMARK    3  A    between atoms: N_12  and  C_13
REMARK                            x       y       z     vdW  Elec       q    Type
REMARK                         _______ _______ _______ _____ _____    ______ ____
ROOT
ATOM      1  N   UNL     1       4.165   6.323  17.168  0.00  0.00    -0.328 N 
ATOM      2  C   UNL     1       3.541   7.361  17.808  0.00  0.00    +0.099 A 
ATOM      3  N   UNL     1       2.761   6.932  18.781  0.00  0.00    -0.218 NA
ATOM      4  C   UNL     1       2.898   5.578  18.754  0.00  0.00    +0.168 A 
ATOM      5  C   UNL     1       3.753   5.173  17.775  0.00  0.00    +0.151 A 
ATOM      6  C   UNL     1       4.071   3.808  17.534  0.00  0.00    +0.282 A 
ATOM      7  O   UNL     1       4.844   3.453  16.649  0.00  0.00    -0.265 OA
ATOM      8  N   UNL     1       3.413   2.936  18.408  0.00  0.00    -0.262 N 
ATOM      9  C   UNL     1       2.522   3.318  19.432  0.00  0.00    +0.333 A 
ATOM     10  O   UNL     1       1.987   2.471  20.155  0.00  0.00    -0.246 OA
ATOM     11  N   UNL     1       2.275   4.682  19.589  0.00  0.00    -0.280 N 
ATOM     12  H   UNL     1       3.686   8.397  17.530  0.00  0.00    +0.103 HD
ENDROOT
BRANCH   1  13
ATOM     13  C   UNL     1       5.082   6.435  16.063  0.00  0.00    +0.013 C 
ATOM     14  H   UNL     1       5.474   7.454  16.037  0.00  0.00    +0.046 HD
ATOM     15  H   UNL     1       4.546   6.201  15.139  0.00  0.00    +0.046 HD
ATOM     16  H   UNL     1       5.905   5.727  16.199  0.00  0.00    +0.046 HD
ENDBRANCH   1  13
BRANCH  11  17
ATOM     17  C   UNL     1       1.369   5.157  20.619  0.00  0.00    +0.018 C 
ATOM     18  H   UNL     1       0.848   4.301  21.059  0.00  0.00    +0.046 HD
ATOM     19  H   UNL     1       0.625   5.850  20.218  0.00  0.00    +0.046 HD
ATOM     20  H   UNL     1       1.947   5.673  21.392  0.00  0.00    +0.046 HD
ENDBRANCH  11  17
BRANCH   8  21
ATOM     21  C   UNL     1       3.653   1.515  18.264  0.00  0.00    +0.020 C 
ATOM     22  H   UNL     1       3.060   1.136  17.425  0.00  0.00    +0.046 HD
ATOM     23  H   UNL     1       3.327   1.004  19.177  0.00  0.00    +0.046 HD
ATOM     24  H   UNL     1       4.706   1.281  18.086  0.00  0.00    +0.046 HD
ENDBRANCH   8  21
TORSDOF 3
ENDMDL
MODEL 4
REMARK VINA RESULT:    -4.942      1.492      3.006
REMARK INTER + INTRA:          -5.375
REMARK INTER:                  -5.375
REMARK INTRA:                   0.000
REMARK UNBOUND:                 0.000
REMARK  Name = 
REMARK  3 active torsions:
REMARK  status: ('A' for Active; 'I' for Inactive)
REMARK    1  A    between atoms: C_1  and  N_2
REMARK    2  A    between atoms: N_9  and  C_14
REMARK    3  A    between atoms: N_12  and  C_13
REMARK                            x       y       z     vdW  Elec       q    Type
REMARK                         _______ _______ _______ _____ _____    ______ ____
ROOT
ATOM      1  N   UNL     1       4.713   5.148  16.613  0.00  0.00    -0.328 N 
ATOM      2  C   UNL     1       4.907   3.793  16.535  0.00  0.00    +0.099 A 
ATOM      3  N   UNL     1       4.261   3.155  17.491  0.00  0.00    -0.218 NA
ATOM      4  C   UNL     1       3.638   4.140  18.196  0.00  0.00    +0.168 A 
ATOM      5  C   UNL     1       3.896   5.375  17.682  0.00  0.00    +0.151 A 
ATOM      6  C   UNL     1       3.367   6.574  18.233  0.00  0.00    +0.282 A 
ATOM      7  O   UNL     1       3.605   7.681  17.762  0.00  0.00    -0.265 OA
ATOM      8  N   UNL     1       2.559   6.345  19.351  0.00  0.00    -0.262 N 
ATOM      9  C   UNL     1       2.269   5.084  19.912  0.00  0.00    +0.333 A 
ATOM     10  O   UNL     1       1.541   4.984  20.905  0.00  0.00    -0.246 OA
ATOM     11  N   UNL     1       2.836   3.967  19.298  0.00  0.00    -0.280 N 
ATOM     12  H   UNL     1       5.519   3.329  15.773  0.00  0.00    +0.103 HD
ENDROOT
BRANCH   1  13
ATOM     13  C   UNL     1       5.271   6.139  15.728  0.00  0.00    +0.013 C 
ATOM     14  H   UNL     1       6.227   6.473  16.138  0.00  0.00    +0.046 HD
ATOM     15  H   UNL     1       4.569   6.973  15.652  0.00  0.00    +0.046 HD
ATOM     16  H   UNL     1       5.427   5.698  14.740  0.00  0.00    +0.046 HD
ENDBRANCH   1  13
BRANCH  11  17
ATOM     17  C   UNL     1       2.588   2.633  19.814  0.00  0.00    +0.018 C 
ATOM     18  H   UNL     1       1.869   2.696  20.638  0.00  0.00    +0.046 HD
ATOM     19  H   UNL     1       3.503   2.164  20.186  0.00  0.00    +0.046 HD
ATOM     20  H   UNL     1       2.177   2.010  19.013  0.00  0.00    +0.046 HD
ENDBRANCH  11  17
BRANCH   8  21
ATOM     21  C   UNL     1       1.958   7.490  20.005  0.00  0.00    +0.020 C 
ATOM     22  H   UNL     1       1.856   7.277  21.074  0.00  0.00    +0.046 HD
ATOM     23  H   UNL     1       0.958   7.655  19.589  0.00  0.00    +0.046 HD
ATOM     24  H   UNL     1       2.547   8.403  19.882  0.00  0.00    +0.046 HD
ENDBRANCH   8  21
TORSDOF 3
ENDMDL
MODEL 5
REMARK VINA RESULT:    -4.899      1.519      3.044
REMARK INTER + INTRA:          -5.329
REMARK INTER:                  -5.329
REMARK INTRA:                   0.000
REMARK UNBOUND:                 0.000
REMARK  Name = 
REMARK  3 active torsions:
REMARK  status: ('A' for Active; 'I' for Inactive)
REMARK    1  A    between atoms: C_1  and  N_2
REMARK    2  A    between atoms: N_9  and  C_14
REMARK    3  A    between atoms: N_12  and  C_13
REMARK                            x       y       z     vdW  Elec       q    Type
REMARK                         _______ _______ _______ _____ _____    ______ ____
ROOT
ATOM      1  N   UNL     1       4.704   5.547  16.886  0.00  0.00    -0.328 N 
ATOM      2  C   UNL     1       5.272   4.490  16.225  0.00  0.00    +0.099 A 
ATOM      3  N   UNL     1       4.901   3.336  16.746  0.00  0.00    -0.218 NA
ATOM      4  C   UNL     1       4.070   3.678  17.770  0.00  0.00    +0.168 A 
ATOM      5  C   UNL     1       3.929   5.027  17.882  0.00  0.00    +0.151 A 
ATOM      6  C   UNL     1       3.116   5.646  18.871  0.00  0.00    +0.282 A 
ATOM      7  O   UNL     1       2.995   6.863  18.963  0.00  0.00    -0.265 OA
ATOM      8  N   UNL     1       2.483   4.721  19.707  0.00  0.00    -0.262 N 
ATOM      9  C   UNL     1       2.605   3.318  19.622  0.00  0.00    +0.333 A 
ATOM     10  O   UNL     1       2.005   2.581  20.411  0.00  0.00    -0.246 OA
ATOM     11  N   UNL     1       3.427   2.808  18.617  0.00  0.00    -0.280 N 
ATOM     12  H   UNL     1       5.940   4.612  15.382  0.00  0.00    +0.103 HD
ENDROOT
BRANCH   1  13
ATOM     13  C   UNL     1       4.894   6.942  16.581  0.00  0.00    +0.013 C 
ATOM     14  H   UNL     1       5.942   7.100  16.313  0.00  0.00    +0.046 HD
ATOM     15  H   UNL     1       4.625   7.532  17.461  0.00  0.00    +0.046 HD
ATOM     16  H   UNL     1       4.253   7.222  15.740  0.00  0.00    +0.046 HD
ENDBRANCH   1  13
BRANCH  11  17
ATOM     17  C   UNL     1       3.607   1.376  18.462  0.00  0.00    +0.018 C 
ATOM     18  H   UNL     1       4.080   0.976  19.365  0.00  0.00    +0.046 HD
ATOM     19  H   UNL     1       4.238   1.136  17.602  0.00  0.00    +0.046 HD
ATOM     20  H   UNL     1       2.629   0.906  18.320  0.00  0.00    +0.046 HD
ENDBRANCH  11  17
BRANCH   8  21
ATOM     21  C   UNL     1       1.625   5.226  20.759  0.00  0.00    +0.020 C 
ATOM     22  H   UNL     1       1.065   4.392  21.195  0.00  0.00    +0.046 HD
ATOM     23  H   UNL     1       0.909   5.934  20.326  0.00  0.00    +0.046 HD
ATOM     24  H   UNL     1       2.183   5.730  21.553  0.00  0.00    +0.046 HD
ENDBRANCH   8  21
TORSDOF 3
ENDMDL
MODEL 6
REMARK VINA RESULT:    -4.882      0.882      3.367
REMARK INTER + INTRA:          -5.310
REMARK INTER:                  -5.310
REMARK INTRA:                   0.000
REMARK UNBOUND:                 0.000
REMARK  Name = 
REMARK  3 active torsions:
REMARK  status: ('A' for Active; 'I' for Inactive)
REMARK    1  A    between atoms: C_1  and  N_2
REMARK    2  A    between atoms: N_9  and  C_14
REMARK    3  A    between atoms: N_12  and  C_13
REMARK                            x       y       z     vdW  Elec       q    Type
REMARK                         _______ _______ _______ _____ _____    ______ ____
ROOT
ATOM      1  N   UNL     1       2.753   6.950  18.816  0.00  0.00    -0.328 N 
ATOM      2  C   UNL     1       3.619   7.412  17.860  0.00  0.00    +0.099 A 
ATOM      3  N   UNL     1       4.197   6.420  17.210  0.00  0.00    -0.218 NA
ATOM      4  C   UNL     1       3.677   5.296  17.775  0.00  0.00    +0.168 A 
ATOM      5  C   UNL     1       2.787   5.587  18.763  0.00  0.00    +0.151 A 
ATOM      6  C   UNL     1       2.102   4.592  19.513  0.00  0.00    +0.282 A 
ATOM      7  O   UNL     1       1.301   4.865  20.402  0.00  0.00    -0.265 OA
ATOM      8  N   UNL     1       2.440   3.292  19.124  0.00  0.00    -0.262 N 
ATOM      9  C   UNL     1       3.355   2.951  18.106  0.00  0.00    +0.333 A 
ATOM     10  O   UNL     1       3.590   1.769  17.835  0.00  0.00    -0.246 OA
ATOM     11  N   UNL     1       3.977   4.000  17.428  0.00  0.00    -0.280 N 
ATOM     12  H   UNL     1       3.791   8.465  17.680  0.00  0.00    +0.103 HD
ENDROOT
BRANCH   1  13
ATOM     13  C   UNL     1       1.958   7.759  19.705  0.00  0.00    +0.013 C 
ATOM     14  H   UNL     1       1.540   7.115  20.482  0.00  0.00    +0.046 HD
ATOM     15  H   UNL     1       1.162   8.235  19.125  0.00  0.00    +0.046 HD
ATOM     16  H   UNL     1       2.589   8.526  20.162  0.00  0.00    +0.046 HD
ENDBRANCH   1  13
BRANCH  11  17
ATOM     17  C   UNL     1       4.932   3.734  16.368  0.00  0.00    +0.018 C 
ATOM     18  H   UNL     1       4.390   3.572  15.430  0.00  0.00    +0.046 HD
ATOM     19  H   UNL     1       5.537   2.848  16.578  0.00  0.00    +0.046 HD
ATOM     20  H   UNL     1       5.599   4.595  16.263  0.00  0.00    +0.046 HD
ENDBRANCH  11  17
BRANCH   8  21
ATOM     21  C   UNL     1       1.808   2.186  19.814  0.00  0.00    +0.020 C 
ATOM     22  H   UNL     1       2.440   1.297  19.717  0.00  0.00    +0.046 HD
ATOM     23  H   UNL     1       0.842   1.977  19.341  0.00  0.00    +0.046 HD
ATOM     24  H   UNL     1       1.645   2.389  20.875  0.00  0.00    +0.046 HD
ENDBRANCH   8  21
TORSDOF 3
ENDMDL
MODEL 7
REMARK VINA RESULT:    -4.874      1.737      3.736
REMARK INTER + INTRA:          -5.302
REMARK INTER:                  -5.302
REMARK INTRA:                   0.000
REMARK UNBOUND:                 0.000
REMARK  Name = 
REMARK  3 active torsions:
REMARK  status: ('A' for Active; 'I' for Inactive)
REMARK    1  A    between atoms: C_1  and  N_2
REMARK    2  A    between atoms: N_9  and  C_14
REMARK    3  A    between atoms: N_12  and  C_13
REMARK                            x       y       z     vdW  Elec       q    Type
REMARK                         _______ _______ _______ _____ _____    ______ ____
ROOT
ATOM      1  N   UNL     1       2.569   4.168  20.457  0.00  0.00    -0.328 N 
ATOM      2  C   UNL     1       1.786   5.218  20.858  0.00  0.00    +0.099 A 
ATOM      3  N   UNL     1       1.958   6.274  20.087  0.00  0.00    -0.218 NA
ATOM      4  C   UNL     1       2.881   5.876  19.168  0.00  0.00    +0.168 A 
ATOM      5  C   UNL     1       3.276   4.589  19.368  0.00  0.00    +0.151 A 
ATOM      6  C   UNL     1       4.232   3.931  18.547  0.00  0.00    +0.282 A 
ATOM      7  O   UNL     1       4.581   2.770  18.735  0.00  0.00    -0.265 OA
ATOM      8  N   UNL     1       4.716   4.747  17.520  0.00  0.00    -0.262 N 
ATOM      9  C   UNL     1       4.332   6.083  17.281  0.00  0.00    +0.333 A 
ATOM     10  O   UNL     1       4.818   6.725  16.345  0.00  0.00    -0.246 OA
ATOM     11  N   UNL     1       3.386   6.639  18.143  0.00  0.00    -0.280 N 
ATOM     12  H   UNL     1       1.117   5.163  21.707  0.00  0.00    +0.103 HD
ENDROOT
BRANCH   1  13
ATOM     13  C   UNL     1       2.629   2.867  21.074  0.00  0.00    +0.013 C 
ATOM     14  H   UNL     1       3.401   2.884  21.847  0.00  0.00    +0.046 HD
ATOM     15  H   UNL     1       2.864   2.127  20.305  0.00  0.00    +0.046 HD
ATOM     16  H   UNL     1       1.661   2.633  21.526  0.00  0.00    +0.046 HD
ENDBRANCH   1  13
BRANCH  11  17
ATOM     17  C   UNL     1       2.938   8.009  17.967  0.00  0.00    +0.018 C 
ATOM     18  H   UNL     1       2.114   8.207  18.661  0.00  0.00    +0.046 HD
ATOM     19  H   UNL     1       2.587   8.194  16.948  0.00  0.00    +0.046 HD
ATOM     20  H   UNL     1       3.769   8.688  18.180  0.00  0.00    +0.046 HD
ENDBRANCH  11  17
BRANCH   8  21
ATOM     21  C   UNL     1       5.699   4.191  16.611  0.00  0.00    +0.020 C 
ATOM     22  H   UNL     1       6.656   4.700  16.767  0.00  0.00    +0.046 HD
ATOM     23  H   UNL     1       5.375   4.373  15.581  0.00  0.00    +0.046 HD
ATOM     24  H   UNL     1       5.843   3.117  16.753  0.00  0.00    +0.046 HD
ENDBRANCH   8  21
TORSDOF 3
ENDMDL
MODEL 8
REMARK VINA RESULT:    -4.837      1.720      4.620
REMARK INTER + INTRA:          -5.261
REMARK INTER:                  -5.261
REMARK INTRA:                   0.000
REMARK UNBOUND:                 0.000
REMARK  Name = 
REMARK  3 active torsions:
REMARK  status: ('A' for Active; 'I' for Inactive)
REMARK    1  A    between atoms: C_1  and  N_2
REMARK    2  A    between atoms: N_9  and  C_14
REMARK    3  A    between atoms: N_12  and  C_13
REMARK                            x       y       z     vdW  Elec       q    Type
REMARK                         _______ _______ _______ _____ _____    ______ ____
ROOT
ATOM      1  N   UNL     1       1.994   5.901  20.173  0.00  0.00    -0.328 N 
ATOM      2  C   UNL     1       1.597   4.730  20.764  0.00  0.00    +0.099 A 
ATOM      3  N   UNL     1       2.113   3.681  20.155  0.00  0.00    -0.218 NA
ATOM      4  C   UNL     1       2.860   4.207  19.146  0.00  0.00    +0.168 A 
ATOM      5  C   UNL     1       2.808   5.568  19.130  0.00  0.00    +0.151 A 
ATOM      6  C   UNL     1       3.500   6.363  18.176  0.00  0.00    +0.282 A 
ATOM      7  O   UNL     1       3.447   7.589  18.171  0.00  0.00    -0.265 OA
ATOM      8  N   UNL     1       4.235   5.598  17.265  0.00  0.00    -0.262 N 
ATOM      9  C   UNL     1       4.314   4.190  17.249  0.00  0.00    +0.333 A 
ATOM     10  O   UNL     1       4.991   3.602  16.400  0.00  0.00    -0.246 OA
ATOM     11  N   UNL     1       3.598   3.499  18.227  0.00  0.00    -0.280 N 
ATOM     12  H   UNL     1       0.940   4.698  21.623  0.00  0.00    +0.103 HD
ENDROOT
BRANCH   1  13
ATOM     13  C   UNL     1       1.617   7.230  20.582  0.00  0.00    +0.013 C 
ATOM     14  H   UNL     1       1.598   7.874  19.699  0.00  0.00    +0.046 HD
ATOM     15  H   UNL     1       2.348   7.591  21.310  0.00  0.00    +0.046 HD
ATOM     16  H   UNL     1       0.625   7.203  21.040  0.00  0.00    +0.046 HD
ENDBRANCH   1  13
BRANCH  11  17
ATOM     17  C   UNL     1       3.625   2.049  18.280  0.00  0.00    +0.018 C 
ATOM     18  H   UNL     1       3.231   1.719  19.247  0.00  0.00    +0.046 HD
ATOM     19  H   UNL     1       4.639   1.656  18.165  0.00  0.00    +0.046 HD
ATOM     20  H   UNL     1       3.003   1.650  17.473  0.00  0.00    +0.046 HD
ENDBRANCH  11  17
BRANCH   8  21
ATOM     21  C   UNL     1       4.987   6.293  16.239  0.00  0.00    +0.020 C 
ATOM     22  H   UNL     1       6.057   6.151  16.424  0.00  0.00    +0.046 HD
ATOM     23  H   UNL     1       4.764   7.364  16.298  0.00  0.00    +0.046 HD
ATOM     24  H   UNL     1       4.753   5.938  15.232  0.00  0.00    +0.046 HD
ENDBRANCH   8  21
TORSDOF 3
ENDMDL
MODEL 9
REMARK VINA RESULT:    -4.789      1.606      3.510
REMARK INTER + INTRA:          -5.209
REMARK INTER:                  -5.209
REMARK INTRA:                   0.000
REMARK UNBOUND:                 0.000
REMARK  Name = 
REMARK  3 active torsions:
REMARK  status: ('A' for Active; 'I' for Inactive)
REMARK    1  A    between atoms: C_1  and  N_2
REMARK    2  A    between atoms: N_9  and  C_14
REMARK    3  A    between atoms: N_12  and  C_13
REMARK                            x       y       z     vdW  Elec       q    Type
REMARK                         _______ _______ _______ _____ _____    ______ ____
ROOT
ATOM      1  N   UNL     1       3.040   2.673  19.033  0.00  0.00    -0.328 N 
ATOM      2  C   UNL     1       2.204   2.867  20.101  0.00  0.00    +0.099 A 
ATOM      3  N   UNL     1       1.958   4.148  20.298  0.00  0.00    -0.218 NA
ATOM      4  C   UNL     1       2.662   4.783  19.320  0.00  0.00    +0.168 A 
ATOM      5  C   UNL     1       3.336   3.905  18.527  0.00  0.00    +0.151 A 
ATOM      6  C   UNL     1       4.147   4.310  17.431  0.00  0.00    +0.282 A 
ATOM      7  O   UNL     1       4.750   3.511  16.722  0.00  0.00    -0.265 OA
ATOM      8  N   UNL     1       4.174   5.698  17.261  0.00  0.00    -0.262 N 
ATOM      9  C   UNL     1       3.490   6.637  18.061  0.00  0.00    +0.333 A 
ATOM     10  O   UNL     1       3.577   7.848  17.831  0.00  0.00    -0.246 OA
ATOM     11  N   UNL     1       2.720   6.140  19.113  0.00  0.00    -0.280 N 
ATOM     12  H   UNL     1       1.809   2.054  20.695  0.00  0.00    +0.103 HD
ENDROOT
BRANCH   1  13
ATOM     13  C   UNL     1       3.511   1.403  18.542  0.00  0.00    +0.013 C 
ATOM     14  H   UNL     1       4.587   1.337  18.723  0.00  0.00    +0.046 HD
ATOM     15  H   UNL     1       3.292   1.340  17.472  0.00  0.00    +0.046 HD
ATOM     16  H   UNL     1       2.998   0.595  19.070  0.00  0.00    +0.046 HD
ENDBRANCH   1  13
BRANCH  11  17
ATOM     17  C   UNL     1       1.985   7.040  19.983  0.00  0.00    +0.018 C 
ATOM     18  H   UNL     1       1.107   7.417  19.449  0.00  0.00    +0.046 HD
ATOM     19  H   UNL     1       2.595   7.892  20.295  0.00  0.00    +0.046 HD
ATOM     20  H   UNL     1       1.666   6.494  20.876  0.00  0.00    +0.046 HD
ENDBRANCH  11  17
BRANCH   8  21
ATOM     21  C   UNL     1       4.968   6.238  16.176  0.00  0.00    +0.020 C 
ATOM     22  H   UNL     1       5.776   5.538  15.943  0.00  0.00    +0.046 HD
ATOM     23  H   UNL     1       5.413   7.186  16.497  0.00  0.00    +0.046 HD
ATOM     24  H   UNL     1       4.380   6.412  15.271  0.00  0.00    +0.046 HD
ENDBRANCH   8  21
TORSDOF 3
ENDMDL
MODEL 10
REMARK VINA RESULT:    -4.709      1.678      3.182
REMARK INTER + INTRA:          -5.122
REMARK INTER:                  -5.122
REMARK INTRA:                   0.000
REMARK UNBOUND:                 0.000
REMARK  Name = 
REMARK  3 active torsions:
REMARK  status: ('A' for Active; 'I' for Inactive)
REMARK    1  A    between atoms: C_1  and  N_2
REMARK    2  A    between atoms: N_9  and  C_14
REMARK    3  A    between atoms: N_12  and  C_13
REMARK                            x       y       z     vdW  Elec       q    Type
REMARK                         _______ _______ _______ _____ _____    ______ ____
ROOT
ATOM      1  N   UNL     1       4.110   3.385  17.410  0.00  0.00    -0.328 N 
ATOM      2  C   UNL     1       3.857   2.123  17.879  0.00  0.00    +0.099 A 
ATOM      3  N   UNL     1       3.062   2.147  18.931  0.00  0.00    -0.218 NA
ATOM      4  C   UNL     1       2.804   3.469  19.130  0.00  0.00    +0.168 A 
ATOM      5  C   UNL     1       3.432   4.255  18.213  0.00  0.00    +0.151 A 
ATOM      6  C   UNL     1       3.328   5.673  18.199  0.00  0.00    +0.282 A 
ATOM      7  O   UNL     1       3.898   6.371  17.367  0.00  0.00    -0.265 OA
ATOM      8  N   UNL     1       2.514   6.166  19.223  0.00  0.00    -0.262 N 
ATOM      9  C   UNL     1       1.847   5.385  20.191  0.00  0.00    +0.333 A 
ATOM     10  O   UNL     1       1.148   5.915  21.061  0.00  0.00    -0.246 OA
ATOM     11  N   UNL     1       2.013   4.002  20.120  0.00  0.00    -0.280 N 
ATOM     12  H   UNL     1       4.272   1.232  17.427  0.00  0.00    +0.103 HD
ENDROOT
BRANCH   1  13
ATOM     13  C   UNL     1       4.936   3.721  16.278  0.00  0.00    +0.013 C 
ATOM     14  H   UNL     1       4.553   4.640  15.827  0.00  0.00    +0.046 HD
ATOM     15  H   UNL     1       4.903   2.894  15.563  0.00  0.00    +0.046 HD
ATOM     16  H   UNL     1       5.966   3.876  16.612  0.00  0.00    +0.046 HD
ENDBRANCH   1  13
BRANCH  11  17
ATOM     17  C   UNL     1       1.361   3.127  21.079  0.00  0.00    +0.018 C 
ATOM     18  H   UNL     1       0.626   2.508  20.555  0.00  0.00    +0.046 HD
ATOM     19  H   UNL     1       0.847   3.692  21.861  0.00  0.00    +0.046 HD
ATOM     20  H   UNL     1       2.114   2.487  21.548  0.00  0.00    +0.046 HD
ENDBRANCH  11  17
BRANCH   8  21
ATOM     21  C   UNL     1       2.326   7.599  19.318  0.00  0.00    +0.020 C 
ATOM     22  H   UNL     1       3.283   8.097  19.128  0.00  0.00    +0.046 HD
ATOM     23  H   UNL     1       2.001   7.850  20.333  0.00  0.00    +0.046 HD
ATOM     24  H   UNL     1       1.587   7.975  18.606  0.00  0.00    +0.046 HD
ENDBRANCH   8  21
TORSDOF 3
ENDMDL
MODEL 11
REMARK VINA RESULT:    -4.640      1.784      3.678
REMARK INTER + INTRA:          -5.046
REMARK INTER:                  -5.046
REMARK INTRA:                   0.000
REMARK UNBOUND:                 0.000
REMARK  Name = 
REMARK  3 active torsions:
REMARK  status: ('A' for Active; 'I' for Inactive)
REMARK    1  A    between atoms: C_1  and  N_2
REMARK    2  A    between atoms: N_9  and  C_14
REMARK    3  A    between atoms: N_12  and  C_13
REMARK                            x       y       z     vdW  Elec       q    Type
REMARK                         _______ _______ _______ _____ _____    ______ ____
ROOT
ATOM      1  N   UNL     1       2.356   7.438  19.032  0.00  0.00    -0.328 N 
ATOM      2  C   UNL     1       1.603   7.415  20.176  0.00  0.00    +0.099 A 
ATOM      3  N   UNL     1       1.656   6.237  20.767  0.00  0.00    -0.218 NA
ATOM      4  C   UNL     1       2.471   5.493  19.969  0.00  0.00    +0.168 A 
ATOM      5  C   UNL     1       2.917   6.202  18.895  0.00  0.00    +0.151 A 
ATOM      6  C   UNL     1       3.782   5.657  17.907  0.00  0.00    +0.282 A 
ATOM      7  O   UNL     1       4.179   6.305  16.944  0.00  0.00    -0.265 OA
ATOM      8  N   UNL     1       4.121   4.324  18.160  0.00  0.00    -0.262 N 
ATOM      9  C   UNL     1       3.679   3.558  19.259  0.00  0.00    +0.333 A 
ATOM     10  O   UNL     1       4.034   2.383  19.396  0.00  0.00    -0.246 OA
ATOM     11  N   UNL     1       2.832   4.183  20.174  0.00  0.00    -0.280 N 
ATOM     12  H   UNL     1       1.042   8.270  20.530  0.00  0.00    +0.103 HD
ENDROOT
BRANCH   1  13
ATOM     13  C   UNL     1       2.520   8.562  18.145  0.00  0.00    +0.013 C 
ATOM     14  H   UNL     1       1.621   8.656  17.531  0.00  0.00    +0.046 HD
ATOM     15  H   UNL     1       3.401   8.389  17.521  0.00  0.00    +0.046 HD
ATOM     16  H   UNL     1       2.661   9.473  18.733  0.00  0.00    +0.046 HD
ENDBRANCH   1  13
BRANCH  11  17
ATOM     17  C   UNL     1       2.332   3.464  21.332  0.00  0.00    +0.018 C 
ATOM     18  H   UNL     1       2.852   3.823  22.227  0.00  0.00    +0.046 HD
ATOM     19  H   UNL     1       2.495   2.387  21.243  0.00  0.00    +0.046 HD
ATOM     20  H   UNL     1       1.258   3.649  21.432  0.00  0.00    +0.046 HD
ENDBRANCH  11  17
BRANCH   8  21
ATOM     21  C   UNL     1       5.000   3.653  17.223  0.00  0.00    +0.020 C 
ATOM     22  H   UNL     1       4.773   2.582  17.226  0.00  0.00    +0.046 HD
ATOM     23  H   UNL     1       6.037   3.788  17.548  0.00  0.00    +0.046 HD
ATOM     24  H   UNL     1       4.897   4.033  16.203  0.00  0.00    +0.046 HD
ENDBRANCH   8  21
TORSDOF 3
ENDMDL
MODEL 12
REMARK VINA RESULT:    -4.639      1.444      3.736
REMARK INTER + INTRA:          -5.046
REMARK INTER:                  -5.046
REMARK INTRA:                   0.000
REMARK UNBOUND:                 0.000
REMARK  Name = 
REMARK  3 active torsions:
REMARK  status: ('A' for Active; 'I' for Inactive)
REMARK    1  A    between atoms: C_1  and  N_2
REMARK    2  A    between atoms: N_9  and  C_14
REMARK    3  A    between atoms: N_12  and  C_13
REMARK                            x       y       z     vdW  Elec       q    Type
REMARK                         _______ _______ _______ _____ _____    ______ ____
ROOT
ATOM      1  N   UNL     1       2.100   7.391  19.655  0.00  0.00    -0.328 N 
ATOM      2  C   UNL     1       2.290   8.332  18.678  0.00  0.00    +0.099 A 
ATOM      3  N   UNL     1       3.106   7.897  17.738  0.00  0.00    -0.218 NA
ATOM      4  C   UNL     1       3.441   6.638  18.136  0.00  0.00    +0.168 A 
ATOM      5  C   UNL     1       2.840   6.298  19.309  0.00  0.00    +0.151 A 
ATOM      6  C   UNL     1       3.023   5.038  19.941  0.00  0.00    +0.282 A 
ATOM      7  O   UNL     1       2.476   4.741  20.998  0.00  0.00    -0.265 OA
ATOM      8  N   UNL     1       3.882   4.195  19.230  0.00  0.00    -0.262 N 
ATOM      9  C   UNL     1       4.523   4.511  18.014  0.00  0.00    +0.333 A 
ATOM     10  O   UNL     1       5.268   3.697  17.459  0.00  0.00    -0.246 OA
ATOM     11  N   UNL     1       4.279   5.774  17.473  0.00  0.00    -0.280 N 
ATOM     12  H   UNL     1       1.818   9.306  18.698  0.00  0.00    +0.103 HD
ENDROOT
BRANCH   1  13
ATOM     13  C   UNL     1       1.271   7.535  20.825  0.00  0.00    +0.013 C 
ATOM     14  H   UNL     1       1.787   8.181  21.540  0.00  0.00    +0.046 HD
ATOM     15  H   UNL     1       1.096   6.545  21.253  0.00  0.00    +0.046 HD
ATOM     16  H   UNL     1       0.317   7.988  20.542  0.00  0.00    +0.046 HD
ENDBRANCH   1  13
BRANCH  11  17
ATOM     17  C   UNL     1       4.900   6.178  16.225  0.00  0.00    +0.018 C 
ATOM     18  H   UNL     1       4.133   6.590  15.560  0.00  0.00    +0.046 HD
ATOM     19  H   UNL     1       5.383   5.337  15.719  0.00  0.00    +0.046 HD
ATOM     20  H   UNL     1       5.656   6.941  16.432  0.00  0.00    +0.046 HD
ENDBRANCH  11  17
BRANCH   8  21
ATOM     21  C   UNL     1       4.151   2.878  19.772  0.00  0.00    +0.020 C 
ATOM     22  H   UNL     1       4.624   2.987  20.753  0.00  0.00    +0.046 HD
ATOM     23  H   UNL     1       4.848   2.355  19.108  0.00  0.00    +0.046 HD
ATOM     24  H   UNL     1       3.246   2.275  19.881  0.00  0.00    +0.046 HD
ENDBRANCH   8  21
TORSDOF 3
ENDMDL
MODEL 13
REMARK VINA RESULT:    -4.008      2.371      4.870
REMARK INTER + INTRA:          -4.360
REMARK INTER:                  -4.360
REMARK INTRA:                   0.000
REMARK UNBOUND:                 0.000
REMARK  Name = 
REMARK  3 active torsions:
REMARK  status: ('A' for Active; 'I' for Inactive)
REMARK    1  A    between atoms: C_1  and  N_2
REMARK    2  A    between atoms: N_9  and  C_14
REMARK    3  A    between atoms: N_12  and  C_13
REMARK                            x       y       z     vdW  Elec       q    Type
REMARK                         _______ _______ _______ _____ _____    ______ ____
ROOT
ATOM      1  N   UNL     1       3.332   3.865  18.529  0.00  0.00    -0.328 N 
ATOM      2  C   UNL     1       2.676   3.183  17.538  0.00  0.00    +0.099 A 
ATOM      3  N   UNL     1       3.321   3.256  16.390  0.00  0.00    -0.218 NA
ATOM      4  C   UNL     1       4.421   4.009  16.667  0.00  0.00    +0.168 A 
ATOM      5  C   UNL     1       4.457   4.399  17.971  0.00  0.00    +0.151 A 
ATOM      6  C   UNL     1       5.501   5.194  18.519  0.00  0.00    +0.282 A 
ATOM      7  O   UNL     1       5.524   5.539  19.696  0.00  0.00    -0.265 OA
ATOM      8  N   UNL     1       6.478   5.528  17.576  0.00  0.00    -0.262 N 
ATOM      9  C   UNL     1       6.476   5.144  16.218  0.00  0.00    +0.333 A 
ATOM     10  O   UNL     1       7.387   5.491  15.460  0.00  0.00    -0.246 OA
ATOM     11  N   UNL     1       5.407   4.363  15.777  0.00  0.00    -0.280 N 
ATOM     12  H   UNL     1       1.745   2.657  17.702  0.00  0.00    +0.103 HD
ENDROOT
BRANCH   1  13
ATOM     13  C   UNL     1       2.907   3.990  19.900  0.00  0.00    +0.013 C 
ATOM     14  H   UNL     1       2.526   3.022  20.236  0.00  0.00    +0.046 HD
ATOM     15  H   UNL     1       2.128   4.755  19.955  0.00  0.00    +0.046 HD
ATOM     16  H   UNL     1       3.757   4.286  20.520  0.00  0.00    +0.046 HD
ENDBRANCH   1  13
BRANCH  11  17
ATOM     17  C   UNL     1       5.329   3.927  14.395  0.00  0.00    +0.018 C 
ATOM     18  H   UNL     1       4.287   3.979  14.062  0.00  0.00    +0.046 HD
ATOM     19  H   UNL     1       5.683   2.900  14.272  0.00  0.00    +0.046 HD
ATOM     20  H   UNL     1       5.947   4.586  13.776  0.00  0.00    +0.046 HD
ENDBRANCH  11  17
BRANCH   8  21
ATOM     21  C   UNL     1       7.598   6.339  18.010  0.00  0.00    +0.020 C 
ATOM     22  H   UNL     1       8.370   5.685  18.428  0.00  0.00    +0.046 HD
ATOM     23  H   UNL     1       7.260   7.021  18.797  0.00  0.00    +0.046 HD
ATOM     24  H   UNL     1       8.034   6.925  17.197  0.00  0.00    +0.046 HD
ENDBRANCH   8  21
TORSDOF 3
ENDMDL
MODEL 14
REMARK VINA RESULT:    -4.000      2.258      4.200
REMARK INTER + INTRA:          -4.351
REMARK INTER:                  -4.351
REMARK INTRA:                   0.000
REMARK UNBOUND:                 0.000
REMARK  Name = 
REMARK  3 active torsions:
REMARK  status: ('A' for Active; 'I' for Inactive)
REMARK    1  A    between atoms: C_1  and  N_2
REMARK    2  A    between atoms: N_9  and  C_14
REMARK    3  A    between atoms: N_12  and  C_13
REMARK                            x       y       z     vdW  Elec       q    Type
REMARK                         _______ _______ _______ _____ _____    ______ ____
ROOT
ATOM      1  N   UNL     1       2.709   4.459  18.602  0.00  0.00    -0.328 N 
ATOM      2  C   UNL     1       2.945   5.003  19.837  0.00  0.00    +0.099 A 
ATOM      3  N   UNL     1       4.221   5.293  20.003  0.00  0.00    -0.218 NA
ATOM      4  C   UNL     1       4.809   4.920  18.833  0.00  0.00    +0.168 A 
ATOM      5  C   UNL     1       3.907   4.404  17.952  0.00  0.00    +0.151 A 
ATOM      6  C   UNL     1       4.263   3.940  16.656  0.00  0.00    +0.282 A 
ATOM      7  O   UNL     1       3.442   3.477  15.870  0.00  0.00    -0.265 OA
ATOM      8  N   UNL     1       5.629   4.070  16.390  0.00  0.00    -0.262 N 
ATOM      9  C   UNL     1       6.592   4.598  17.275  0.00  0.00    +0.333 A 
ATOM     10  O   UNL     1       7.781   4.672  16.948  0.00  0.00    -0.246 OA
ATOM     11  N   UNL     1       6.144   5.028  18.524  0.00  0.00    -0.280 N 
ATOM     12  H   UNL     1       2.165   5.164  20.569  0.00  0.00    +0.103 HD
ENDROOT
BRANCH   1  13
ATOM     13  C   UNL     1       1.431   4.030  18.092  0.00  0.00    +0.013 C 
ATOM     14  H   UNL     1       0.652   4.655  18.534  0.00  0.00    +0.046 HD
ATOM     15  H   UNL     1       1.285   2.980  18.360  0.00  0.00    +0.046 HD
ATOM     16  H   UNL     1       1.418   4.138  17.005  0.00  0.00    +0.046 HD
ENDBRANCH   1  13
BRANCH  11  17
ATOM     17  C   UNL     1       7.071   5.583  19.494  0.00  0.00    +0.018 C 
ATOM     18  H   UNL     1       7.342   6.599  19.188  0.00  0.00    +0.046 HD
ATOM     19  H   UNL     1       7.985   4.987  19.570  0.00  0.00    +0.046 HD
ATOM     20  H   UNL     1       6.589   5.610  20.476  0.00  0.00    +0.046 HD
ENDBRANCH  11  17
BRANCH   8  21
ATOM     21  C   UNL     1       6.119   3.631  15.099  0.00  0.00    +0.020 C 
ATOM     22  H   UNL     1       6.660   2.687  15.225  0.00  0.00    +0.046 HD
ATOM     23  H   UNL     1       6.816   4.379  14.708  0.00  0.00    +0.046 HD
ATOM     24  H   UNL     1       5.316   3.482  14.372  0.00  0.00    +0.046 HD
ENDBRANCH   8  21
TORSDOF 3
ENDMDL
MODEL 15
REMARK VINA RESULT:    -3.927      6.653      8.998
REMARK INTER + INTRA:          -4.272
REMARK INTER:                  -4.272
REMARK INTRA:                   0.000
REMARK UNBOUND:                 0.000
REMARK  Name = 
REMARK  3 active torsions:
REMARK  status: ('A' for Active; 'I' for Inactive)
REMARK    1  A    between atoms: C_1  and  N_2
REMARK    2  A    between atoms: N_9  and  C_14
REMARK    3  A    between atoms: N_12  and  C_13
REMARK                            x       y       z     vdW  Elec       q    Type
REMARK                         _______ _______ _______ _____ _____    ______ ____
ROOT
ATOM      1  N   UNL     1      -3.522  10.974  17.432  0.00  0.00    -0.328 N 
ATOM      2  C   UNL     1      -2.989  10.095  16.526  0.00  0.00    +0.099 A 
ATOM      3  N   UNL     1      -1.744   9.783  16.829  0.00  0.00    -0.218 NA
ATOM      4  C   UNL     1      -1.484  10.488  17.965  0.00  0.00    +0.168 A 
ATOM      5  C   UNL     1      -2.556  11.229  18.360  0.00  0.00    +0.151 A 
ATOM      6  C   UNL     1      -2.547  12.056  19.517  0.00  0.00    +0.282 A 
ATOM      7  O   UNL     1      -3.518  12.719  19.865  0.00  0.00    -0.265 OA
ATOM      8  N   UNL     1      -1.325  12.024  20.196  0.00  0.00    -0.262 N 
ATOM      9  C   UNL     1      -0.194  11.271  19.817  0.00  0.00    +0.333 A 
ATOM     10  O   UNL     1       0.845  11.308  20.485  0.00  0.00    -0.246 OA
ATOM     11  N   UNL     1      -0.302  10.489  18.667  0.00  0.00    -0.280 N 
ATOM     12  H   UNL     1      -3.541   9.719  15.675  0.00  0.00    +0.103 HD
ENDROOT
BRANCH   1  13
ATOM     13  C   UNL     1      -4.856  11.520  17.403  0.00  0.00    +0.013 C 
ATOM     14  H   UNL     1      -5.168  11.730  18.429  0.00  0.00    +0.046 HD
ATOM     15  H   UNL     1      -5.522  10.790  16.936  0.00  0.00    +0.046 HD
ATOM     16  H   UNL     1      -4.858  12.445  16.821  0.00  0.00    +0.046 HD
ENDBRANCH   1  13
BRANCH  11  17
ATOM     17  C   UNL     1       0.816   9.686  18.208  0.00  0.00    +0.018 C 
ATOM     18  H   UNL     1       0.750   9.568  17.122  0.00  0.00    +0.046 HD
ATOM     19  H   UNL     1       0.818   8.693  18.666  0.00  0.00    +0.046 HD
ATOM     20  H   UNL     1       1.751  10.192  18.467  0.00  0.00    +0.046 HD
ENDBRANCH  11  17
BRANCH   8  21
ATOM     21  C   UNL     1      -1.187  12.827  21.394  0.00  0.00    +0.020 C 
ATOM     22  H   UNL     1      -0.668  13.757  21.142  0.00  0.00    +0.046 HD
ATOM     23  H   UNL     1      -0.581  12.278  22.123  0.00  0.00    +0.046 HD
ATOM     24  H   UNL     1      -2.150  13.072  21.849  0.00  0.00    +0.046 HD
ENDBRANCH   8  21
TORSDOF 3
ENDMDL
MODEL 16
REMARK VINA RESULT:    -3.905      5.475      7.363
REMARK INTER + INTRA:          -4.247
REMARK INTER:                  -4.247
REMARK INTRA:                   0.000
REMARK UNBOUND:                 0.000
REMARK  Name = 
REMARK  3 active torsions:
REMARK  status: ('A' for Active; 'I' for Inactive)
REMARK    1  A    between atoms: C_1  and  N_2
REMARK    2  A    between atoms: N_9  and  C_14
REMARK    3  A    between atoms: N_12  and  C_13
REMARK                            x       y       z     vdW  Elec       q    Type
REMARK                         _______ _______ _______ _____ _____    ______ ____
ROOT
ATOM      1  N   UNL     1       1.333   9.146  19.197  0.00  0.00    -0.328 N 
ATOM      2  C   UNL     1       1.757   8.151  20.038  0.00  0.00    +0.099 A 
ATOM      3  N   UNL     1       1.291   8.318  21.260  0.00  0.00    -0.218 NA
ATOM      4  C   UNL     1       0.548   9.457  21.187  0.00  0.00    +0.168 A 
ATOM      5  C   UNL     1       0.554   9.989  19.934  0.00  0.00    +0.151 A 
ATOM      6  C   UNL     1      -0.145  11.178  19.590  0.00  0.00    +0.282 A 
ATOM      7  O   UNL     1      -0.134  11.649  18.457  0.00  0.00    -0.265 OA
ATOM      8  N   UNL     1      -0.833  11.735  20.672  0.00  0.00    -0.262 N 
ATOM      9  C   UNL     1      -0.862  11.214  21.983  0.00  0.00    +0.333 A 
ATOM     10  O   UNL     1      -1.501  11.780  22.876  0.00  0.00    -0.246 OA
ATOM     11  N   UNL     1      -0.144  10.041  22.220  0.00  0.00    -0.280 N 
ATOM     12  H   UNL     1       2.396   7.339  19.715  0.00  0.00    +0.103 HD
ENDROOT
BRANCH   1  13
ATOM     13  C   UNL     1       1.654   9.271  17.798  0.00  0.00    +0.013 C 
ATOM     14  H   UNL     1       1.058   8.547  17.237  0.00  0.00    +0.046 HD
ATOM     15  H   UNL     1       2.722   9.078  17.666  0.00  0.00    +0.046 HD
ATOM     16  H   UNL     1       1.419  10.283  17.459  0.00  0.00    +0.046 HD
ENDBRANCH   1  13
BRANCH  11  17
ATOM     17  C   UNL     1      -0.123   9.441  23.542  0.00  0.00    +0.018 C 
ATOM     18  H   UNL     1      -0.465   8.403  23.468  0.00  0.00    +0.046 HD
ATOM     19  H   UNL     1      -0.773   9.973  24.241  0.00  0.00    +0.046 HD
ATOM     20  H   UNL     1       0.900   9.464  23.929  0.00  0.00    +0.046 HD
ENDBRANCH  11  17
BRANCH   8  21
ATOM     21  C   UNL     1      -1.586  12.953  20.450  0.00  0.00    +0.020 C 
ATOM     22  H   UNL     1      -2.383  12.752  19.727  0.00  0.00    +0.046 HD
ATOM     23  H   UNL     1      -0.919  13.712  20.028  0.00  0.00    +0.046 HD
ATOM     24  H   UNL     1      -2.032  13.345  21.368  0.00  0.00    +0.046 HD
ENDBRANCH   8  21
TORSDOF 3
ENDMDL
MODEL 17
REMARK VINA RESULT:    -3.900      1.999      4.361
REMARK INTER + INTRA:          -4.242
REMARK INTER:                  -4.242
REMARK INTRA:                   0.000
REMARK UNBOUND:                 0.000
REMARK  Name = 
REMARK  3 active torsions:
REMARK  status: ('A' for Active; 'I' for Inactive)
REMARK    1  A    between atoms: C_1  and  N_2
REMARK    2  A    between atoms: N_9  and  C_14
REMARK    3  A    between atoms: N_12  and  C_13
REMARK                            x       y       z     vdW  Elec       q    Type
REMARK                         _______ _______ _______ _____ _____    ______ ____
ROOT
ATOM      1  N   UNL     1       1.329   9.143  19.238  0.00  0.00    -0.328 N 
ATOM      2  C   UNL     1       1.874   9.680  18.102  0.00  0.00    +0.099 A 
ATOM      3  N   UNL     1       2.724   8.849  17.532  0.00  0.00    -0.218 NA
ATOM      4  C   UNL     1       2.714   7.750  18.336  0.00  0.00    +0.168 A 
ATOM      5  C   UNL     1       1.868   7.899  19.392  0.00  0.00    +0.151 A 
ATOM      6  C   UNL     1       1.673   6.897  20.382  0.00  0.00    +0.282 A 
ATOM      7  O   UNL     1       0.907   7.041  21.329  0.00  0.00    -0.265 OA
ATOM      8  N   UNL     1       2.440   5.751  20.151  0.00  0.00    -0.262 N 
ATOM      9  C   UNL     1       3.327   5.560  19.070  0.00  0.00    +0.333 A 
ATOM     10  O   UNL     1       3.964   4.508  18.952  0.00  0.00    -0.246 OA
ATOM     11  N   UNL     1       3.449   6.603  18.152  0.00  0.00    -0.280 N 
ATOM     12  H   UNL     1       1.622  10.667  17.738  0.00  0.00    +0.103 HD
ENDROOT
BRANCH   1  13
ATOM     13  C   UNL     1       0.366   9.778  20.103  0.00  0.00    +0.013 C 
ATOM     14  H   UNL     1      -0.637   9.501  19.770  0.00  0.00    +0.046 HD
ATOM     15  H   UNL     1       0.509  10.861  20.046  0.00  0.00    +0.046 HD
ATOM     16  H   UNL     1       0.521   9.440  21.131  0.00  0.00    +0.046 HD
ENDBRANCH   1  13
BRANCH  11  17
ATOM     17  C   UNL     1       4.340   6.486  17.012  0.00  0.00    +0.018 C 
ATOM     18  H   UNL     1       3.789   6.737  16.100  0.00  0.00    +0.046 HD
ATOM     19  H   UNL     1       4.740   5.473  16.910  0.00  0.00    +0.046 HD
ATOM     20  H   UNL     1       5.176   7.180  17.140  0.00  0.00    +0.046 HD
ENDBRANCH  11  17
BRANCH   8  21
ATOM     21  C   UNL     1       2.331   4.654  21.091  0.00  0.00    +0.020 C 
ATOM     22  H   UNL     1       2.612   5.009  22.088  0.00  0.00    +0.046 HD
ATOM     23  H   UNL     1       3.027   3.862  20.797  0.00  0.00    +0.046 HD
ATOM     24  H   UNL     1       1.321   4.238  21.137  0.00  0.00    +0.046 HD
ENDBRANCH   8  21
TORSDOF 3
ENDMDL
MODEL 18
REMARK VINA RESULT:    -3.894      6.140      8.466
REMARK INTER + INTRA:          -4.235
REMARK INTER:                  -4.235
REMARK INTRA:                   0.000
REMARK UNBOUND:                 0.000
REMARK  Name = 
REMARK  3 active torsions:
REMARK  status: ('A' for Active; 'I' for Inactive)
REMARK    1  A    between atoms: C_1  and  N_2
REMARK    2  A    between atoms: N_9  and  C_14
REMARK    3  A    between atoms: N_12  and  C_13
REMARK                            x       y       z     vdW  Elec       q    Type
REMARK                         _______ _______ _______ _____ _____    ______ ____
ROOT
ATOM      1  N   UNL     1       0.402   9.236  21.748  0.00  0.00    -0.328 N 
ATOM      2  C   UNL     1       0.120   9.337  23.085  0.00  0.00    +0.099 A 
ATOM      3  N   UNL     1      -0.714  10.329  23.330  0.00  0.00    -0.218 NA
ATOM      4  C   UNL     1      -0.967  10.871  22.107  0.00  0.00    +0.168 A 
ATOM      5  C   UNL     1      -0.297  10.222  21.115  0.00  0.00    +0.151 A 
ATOM      6  C   UNL     1      -0.387  10.589  19.744  0.00  0.00    +0.282 A 
ATOM      7  O   UNL     1       0.220   9.998  18.858  0.00  0.00    -0.265 OA
ATOM      8  N   UNL     1      -1.234  11.681  19.531  0.00  0.00    -0.262 N 
ATOM      9  C   UNL     1      -1.944  12.378  20.532  0.00  0.00    +0.333 A 
ATOM     10  O   UNL     1      -2.670  13.335  20.244  0.00  0.00    -0.246 OA
ATOM     11  N   UNL     1      -1.789  11.941  21.847  0.00  0.00    -0.280 N 
ATOM     12  H   UNL     1       0.542   8.674  23.828  0.00  0.00    +0.103 HD
ENDROOT
BRANCH   1  13
ATOM     13  C   UNL     1       1.273   8.266  21.134  0.00  0.00    +0.013 C 
ATOM     14  H   UNL     1       1.380   8.514  20.075  0.00  0.00    +0.046 HD
ATOM     15  H   UNL     1       0.832   7.273  21.258  0.00  0.00    +0.046 HD
ATOM     16  H   UNL     1       2.252   8.296  21.620  0.00  0.00    +0.046 HD
ENDBRANCH   1  13
BRANCH  11  17
ATOM     17  C   UNL     1      -2.484  12.604  22.935  0.00  0.00    +0.018 C 
ATOM     18  H   UNL     1      -2.088  13.619  23.046  0.00  0.00    +0.046 HD
ATOM     19  H   UNL     1      -2.355  12.075  23.883  0.00  0.00    +0.046 HD
ATOM     20  H   UNL     1      -3.552  12.649  22.703  0.00  0.00    +0.046 HD
ENDBRANCH  11  17
BRANCH   8  21
ATOM     21  C   UNL     1      -1.411  12.155  18.173  0.00  0.00    +0.020 C 
ATOM     22  H   UNL     1      -1.358  13.248  18.167  0.00  0.00    +0.046 HD
ATOM     23  H   UNL     1      -2.403  11.855  17.818  0.00  0.00    +0.046 HD
ATOM     24  H   UNL     1      -0.656  11.760  17.488  0.00  0.00    +0.046 HD
ENDBRANCH   8  21
TORSDOF 3
ENDMDL
MODEL 19
REMARK VINA RESULT:    -3.890      4.238      6.142
REMARK INTER + INTRA:          -4.232
REMARK INTER:                  -4.232
REMARK INTRA:                   0.000
REMARK UNBOUND:                 0.000
REMARK  Name = 
REMARK  3 active torsions:
REMARK  status: ('A' for Active; 'I' for Inactive)
REMARK    1  A    between atoms: C_1  and  N_2
REMARK    2  A    between atoms: N_9  and  C_14
REMARK    3  A    between atoms: N_12  and  C_13
REMARK                            x       y       z     vdW  Elec       q    Type
REMARK                         _______ _______ _______ _____ _____    ______ ____
ROOT
ATOM      1  N   UNL     1       1.989   8.173  19.015  0.00  0.00    -0.328 N 
ATOM      2  C   UNL     1       2.122   8.805  17.807  0.00  0.00    +0.099 A 
ATOM      3  N   UNL     1       1.501   9.968  17.797  0.00  0.00    -0.218 NA
ATOM      4  C   UNL     1       0.957  10.073  19.041  0.00  0.00    +0.168 A 
ATOM      5  C   UNL     1       1.239   8.987  19.813  0.00  0.00    +0.151 A 
ATOM      6  C   UNL     1       0.789   8.846  21.154  0.00  0.00    +0.282 A 
ATOM      7  O   UNL     1       1.049   7.864  21.841  0.00  0.00    -0.265 OA
ATOM      8  N   UNL     1       0.031   9.939  21.588  0.00  0.00    -0.262 N 
ATOM      9  C   UNL     1      -0.281  11.080  20.820  0.00  0.00    +0.333 A 
ATOM     10  O   UNL     1      -0.960  11.997  21.293  0.00  0.00    -0.246 OA
ATOM     11  N   UNL     1       0.207  11.123  19.513  0.00  0.00    -0.280 N 
ATOM     12  H   UNL     1       2.675   8.382  16.978  0.00  0.00    +0.103 HD
ENDROOT
BRANCH   1  13
ATOM     13  C   UNL     1       2.541   6.890  19.368  0.00  0.00    +0.013 C 
ATOM     14  H   UNL     1       2.281   6.172  18.586  0.00  0.00    +0.046 HD
ATOM     15  H   UNL     1       2.123   6.583  20.331  0.00  0.00    +0.046 HD
ATOM     16  H   UNL     1       3.628   6.970  19.448  0.00  0.00    +0.046 HD
ENDBRANCH   1  13
BRANCH  11  17
ATOM     17  C   UNL     1      -0.070  12.262  18.656  0.00  0.00    +0.018 C 
ATOM     18  H   UNL     1      -0.551  13.047  19.249  0.00  0.00    +0.046 HD
ATOM     19  H   UNL     1      -0.733  11.995  17.828  0.00  0.00    +0.046 HD
ATOM     20  H   UNL     1       0.871  12.637  18.244  0.00  0.00    +0.046 HD
ENDBRANCH  11  17
BRANCH   8  21
ATOM     21  C   UNL     1      -0.487   9.917  22.941  0.00  0.00    +0.020 C 
ATOM     22  H   UNL     1      -1.011  10.858  23.137  0.00  0.00    +0.046 HD
ATOM     23  H   UNL     1       0.350   9.835  23.642  0.00  0.00    +0.046 HD
ATOM     24  H   UNL     1      -1.176   9.086  23.114  0.00  0.00    +0.046 HD
ENDBRANCH   8  21
TORSDOF 3
ENDMDL
MODEL 20
REMARK VINA RESULT:    -3.884      7.198      8.881
REMARK INTER + INTRA:          -4.225
REMARK INTER:                  -4.225
REMARK INTRA:                   0.000
REMARK UNBOUND:                 0.000
REMARK  Name = 
REMARK  3 active torsions:
REMARK  status: ('A' for Active; 'I' for Inactive)
REMARK    1  A    between atoms: C_1  and  N_2
REMARK    2  A    between atoms: N_9  and  C_14
REMARK    3  A    between atoms: N_12  and  C_13
REMARK                            x       y       z     vdW  Elec       q    Type
REMARK                         _______ _______ _______ _____ _____    ______ ____
ROOT
ATOM      1  N   UNL     1      -3.252  10.595  16.538  0.00  0.00    -0.328 N 
ATOM      2  C   UNL     1      -4.439  11.267  16.668  0.00  0.00    +0.099 A 
ATOM      3  N   UNL     1      -4.505  11.917  17.813  0.00  0.00    -0.218 NA
ATOM      4  C   UNL     1      -3.319  11.647  18.425  0.00  0.00    +0.168 A 
ATOM      5  C   UNL     1      -2.528  10.839  17.668  0.00  0.00    +0.151 A 
ATOM      6  C   UNL     1      -1.237  10.407  18.078  0.00  0.00    +0.282 A 
ATOM      7  O   UNL     1      -0.531   9.678  17.387  0.00  0.00    -0.265 OA
ATOM      8  N   UNL     1      -0.874  10.901  19.334  0.00  0.00    -0.262 N 
ATOM      9  C   UNL     1      -1.665  11.740  20.147  0.00  0.00    +0.333 A 
ATOM     10  O   UNL     1      -1.256  12.126  21.247  0.00  0.00    -0.246 OA
ATOM     11  N   UNL     1      -2.917  12.109  19.656  0.00  0.00    -0.280 N 
ATOM     12  H   UNL     1      -5.212  11.249  15.911  0.00  0.00    +0.103 HD
ENDROOT
BRANCH   1  13
ATOM     13  C   UNL     1      -2.852   9.787  15.414  0.00  0.00    +0.013 C 
ATOM     14  H   UNL     1      -2.807   8.743  15.735  0.00  0.00    +0.046 HD
ATOM     15  H   UNL     1      -1.873  10.129  15.069  0.00  0.00    +0.046 HD
ATOM     16  H   UNL     1      -3.583   9.894  14.609  0.00  0.00    +0.046 HD
ENDBRANCH   1  13
BRANCH  11  17
ATOM     17  C   UNL     1      -3.793  12.969  20.431  0.00  0.00    +0.018 C 
ATOM     18  H   UNL     1      -3.725  13.991  20.043  0.00  0.00    +0.046 HD
ATOM     19  H   UNL     1      -3.520  12.980  21.490  0.00  0.00    +0.046 HD
ATOM     20  H   UNL     1      -4.822  12.608  20.339  0.00  0.00    +0.046 HD
ENDBRANCH  11  17
BRANCH   8  21
ATOM     21  C   UNL     1       0.423  10.532  19.866  0.00  0.00    +0.020 C 
ATOM     22  H   UNL     1       0.607   9.474  19.653  0.00  0.00    +0.046 HD
ATOM     23  H   UNL     1       0.415  10.670  20.952  0.00  0.00    +0.046 HD
ATOM     24  H   UNL     1       1.237  11.124  19.440  0.00  0.00    +0.046 HD
ENDBRANCH   8  21
TORSDOF 3
ENDMDL
MODEL 21
REMARK VINA RESULT:    -3.780      6.667      8.494
REMARK INTER + INTRA:          -4.111
REMARK INTER:                  -4.111
REMARK INTRA:                   0.000
REMARK UNBOUND:                 0.000
REMARK  Name = 
REMARK  3 active torsions:
REMARK  status: ('A' for Active; 'I' for Inactive)
REMARK    1  A    between atoms: C_1  and  N_2
REMARK    2  A    between atoms: N_9  and  C_14
REMARK    3  A    between atoms: N_12  and  C_13
REMARK                            x       y       z     vdW  Elec       q    Type
REMARK                         _______ _______ _______ _____ _____    ______ ____
ROOT
ATOM      1  N   UNL     1       0.322  10.434  18.999  0.00  0.00    -0.328 N 
ATOM      2  C   UNL     1       0.781  11.018  20.150  0.00  0.00    +0.099 A 
ATOM      3  N   UNL     1      -0.151  11.751  20.726  0.00  0.00    -0.218 NA
ATOM      4  C   UNL     1      -1.235  11.624  19.911  0.00  0.00    +0.168 A 
ATOM      5  C   UNL     1      -0.976  10.822  18.842  0.00  0.00    +0.151 A 
ATOM      6  C   UNL     1      -1.939  10.526  17.839  0.00  0.00    +0.282 A 
ATOM      7  O   UNL     1      -1.697   9.801  16.880  0.00  0.00    -0.265 OA
ATOM      8  N   UNL     1      -3.171  11.146  18.072  0.00  0.00    -0.262 N 
ATOM      9  C   UNL     1      -3.477  11.982  19.166  0.00  0.00    +0.333 A 
ATOM     10  O   UNL     1      -4.598  12.486  19.285  0.00  0.00    -0.246 OA
ATOM     11  N   UNL     1      -2.463  12.212  20.097  0.00  0.00    -0.280 N 
ATOM     12  H   UNL     1       1.789  10.880  20.520  0.00  0.00    +0.103 HD
ENDROOT
BRANCH   1  13
ATOM     13  C   UNL     1       1.076   9.571  18.124  0.00  0.00    +0.013 C 
ATOM     14  H   UNL     1       1.124  10.034  17.135  0.00  0.00    +0.046 HD
ATOM     15  H   UNL     1       0.576   8.601  18.075  0.00  0.00    +0.046 HD
ATOM     16  H   UNL     1       2.087   9.444  18.521  0.00  0.00    +0.046 HD
ENDBRANCH   1  13
BRANCH  11  17
ATOM     17  C   UNL     1      -2.696  13.061  21.251  0.00  0.00    +0.018 C 
ATOM     18  H   UNL     1      -3.643  13.594  21.117  0.00  0.00    +0.046 HD
ATOM     19  H   UNL     1      -1.898  13.798  21.381  0.00  0.00    +0.046 HD
ATOM     20  H   UNL     1      -2.747  12.439  22.149  0.00  0.00    +0.046 HD
ENDBRANCH  11  17
BRANCH   8  21
ATOM     21  C   UNL     1      -4.240  10.922  17.118  0.00  0.00    +0.020 C 
ATOM     22  H   UNL     1      -4.846  11.831  17.043  0.00  0.00    +0.046 HD
ATOM     23  H   UNL     1      -4.878  10.110  17.482  0.00  0.00    +0.046 HD
ATOM     24  H   UNL     1      -3.869  10.662  16.124  0.00  0.00    +0.046 HD
ENDBRANCH   8  21
TORSDOF 3
ENDMDL
MODEL 22
REMARK VINA RESULT:    -3.752      6.630      8.774
REMARK INTER + INTRA:          -4.081
REMARK INTER:                  -4.081
REMARK INTRA:                   0.000
REMARK UNBOUND:                 0.000
REMARK  Name = 
REMARK  3 active torsions:
REMARK  status: ('A' for Active; 'I' for Inactive)
REMARK    1  A    between atoms: C_1  and  N_2
REMARK    2  A    between atoms: N_9  and  C_14
REMARK    3  A    between atoms: N_12  and  C_13
REMARK                            x       y       z     vdW  Elec       q    Type
REMARK                         _______ _______ _______ _____ _____    ______ ____
ROOT
ATOM      1  N   UNL     1      -3.695  11.513  18.284  0.00  0.00    -0.328 N 
ATOM      2  C   UNL     1      -4.172  12.356  19.253  0.00  0.00    +0.099 A 
ATOM      3  N   UNL     1      -3.256  12.612  20.167  0.00  0.00    -0.218 NA
ATOM      4  C   UNL     1      -2.164  11.907  19.759  0.00  0.00    +0.168 A 
ATOM      5  C   UNL     1      -2.402  11.223  18.606  0.00  0.00    +0.151 A 
ATOM      6  C   UNL     1      -1.426  10.408  17.968  0.00  0.00    +0.282 A 
ATOM      7  O   UNL     1      -1.650   9.796  16.929  0.00  0.00    -0.265 OA
ATOM      8  N   UNL     1      -0.206  10.390  18.651  0.00  0.00    -0.262 N 
ATOM      9  C   UNL     1       0.078  11.085  19.845  0.00  0.00    +0.333 A 
ATOM     10  O   UNL     1       1.190  11.005  20.376  0.00  0.00    -0.246 OA
ATOM     11  N   UNL     1      -0.946  11.858  20.393  0.00  0.00    -0.280 N 
ATOM     12  H   UNL     1      -5.180  12.748  19.249  0.00  0.00    +0.103 HD
ENDROOT
BRANCH   1  13
ATOM     13  C   UNL     1      -4.429  11.030  17.141  0.00  0.00    +0.013 C 
ATOM     14  H   UNL     1      -4.003  10.072  16.833  0.00  0.00    +0.046 HD
ATOM     15  H   UNL     1      -4.348  11.767  16.338  0.00  0.00    +0.046 HD
ATOM     16  H   UNL     1      -5.479  10.896  17.413  0.00  0.00    +0.046 HD
ENDBRANCH   1  13
BRANCH  11  17
ATOM     17  C   UNL     1      -0.736  12.603  21.621  0.00  0.00    +0.018 C 
ATOM     18  H   UNL     1       0.327  12.568  21.883  0.00  0.00    +0.046 HD
ATOM     19  H   UNL     1      -1.313  12.188  22.453  0.00  0.00    +0.046 HD
ATOM     20  H   UNL     1      -1.043  13.642  21.467  0.00  0.00    +0.046 HD
ENDBRANCH  11  17
BRANCH   8  21
ATOM     21  C   UNL     1       0.873   9.595  18.101  0.00  0.00    +0.020 C 
ATOM     22  H   UNL     1       0.532   8.561  17.988  0.00  0.00    +0.046 HD
ATOM     23  H   UNL     1       1.716   9.606  18.800  0.00  0.00    +0.046 HD
ATOM     24  H   UNL     1       1.214   9.962  17.130  0.00  0.00    +0.046 HD
ENDBRANCH   8  21
TORSDOF 3
ENDMDL
MODEL 23
REMARK VINA RESULT:    -3.741      7.427      9.280
REMARK INTER + INTRA:          -4.070
REMARK INTER:                  -4.070
REMARK INTRA:                   0.000
REMARK UNBOUND:                 0.000
REMARK  Name = 
REMARK  3 active torsions:
REMARK  status: ('A' for Active; 'I' for Inactive)
REMARK    1  A    between atoms: C_1  and  N_2
REMARK    2  A    between atoms: N_9  and  C_14
REMARK    3  A    between atoms: N_12  and  C_13
REMARK                            x       y       z     vdW  Elec       q    Type
REMARK                         _______ _______ _______ _____ _____    ______ ____
ROOT
ATOM      1  N   UNL     1      -0.410  11.163  19.692  0.00  0.00    -0.328 N 
ATOM      2  C   UNL     1       0.257  10.373  18.793  0.00  0.00    +0.099 A 
ATOM      3  N   UNL     1      -0.514  10.041  17.776  0.00  0.00    -0.218 NA
ATOM      4  C   UNL     1      -1.706  10.642  18.042  0.00  0.00    +0.168 A 
ATOM      5  C   UNL     1      -1.675  11.338  19.212  0.00  0.00    +0.151 A 
ATOM      6  C   UNL     1      -2.791  12.057  19.720  0.00  0.00    +0.282 A 
ATOM      7  O   UNL     1      -2.752  12.683  20.775  0.00  0.00    -0.265 OA
ATOM      8  N   UNL     1      -3.914  11.970  18.892  0.00  0.00    -0.262 N 
ATOM      9  C   UNL     1      -3.985  11.259  17.676  0.00  0.00    +0.333 A 
ATOM     10  O   UNL     1      -5.027  11.241  17.012  0.00  0.00    -0.246 OA
ATOM     11  N   UNL     1      -2.836  10.586  17.262  0.00  0.00    -0.280 N 
ATOM     12  H   UNL     1       1.288  10.073  18.924  0.00  0.00    +0.103 HD
ENDROOT
BRANCH   1  13
ATOM     13  C   UNL     1       0.131  11.704  20.914  0.00  0.00    +0.013 C 
ATOM     14  H   UNL     1       0.236  10.892  21.638  0.00  0.00    +0.046 HD
ATOM     15  H   UNL     1      -0.551  12.472  21.287  0.00  0.00    +0.046 HD
ATOM     16  H   UNL     1       1.110  12.147  20.714  0.00  0.00    +0.046 HD
ENDBRANCH   1  13
BRANCH  11  17
ATOM     17  C   UNL     1      -2.826   9.830  16.022  0.00  0.00    +0.018 C 
ATOM     18  H   UNL     1      -1.843   9.931  15.550  0.00  0.00    +0.046 HD
ATOM     19  H   UNL     1      -3.586  10.187  15.322  0.00  0.00    +0.046 HD
ATOM     20  H   UNL     1      -3.022   8.777  16.244  0.00  0.00    +0.046 HD
ENDBRANCH  11  17
BRANCH   8  21
ATOM     21  C   UNL     1      -5.120  12.662  19.301  0.00  0.00    +0.020 C 
ATOM     22  H   UNL     1      -5.111  13.673  18.880  0.00  0.00    +0.046 HD
ATOM     23  H   UNL     1      -5.132  12.742  20.393  0.00  0.00    +0.046 HD
ATOM     24  H   UNL     1      -6.030  12.151  18.974  0.00  0.00    +0.046 HD
ENDBRANCH   8  21
TORSDOF 3
ENDMDL
MODEL 24
REMARK VINA RESULT:    -3.716      5.354      7.535
REMARK INTER + INTRA:          -4.042
REMARK INTER:                  -4.042
REMARK INTRA:                   0.000
REMARK UNBOUND:                 0.000
REMARK  Name = 
REMARK  3 active torsions:
REMARK  status: ('A' for Active; 'I' for Inactive)
REMARK    1  A    between atoms: C_1  and  N_2
REMARK    2  A    between atoms: N_9  and  C_14
REMARK    3  A    between atoms: N_12  and  C_13
REMARK                            x       y       z     vdW  Elec       q    Type
REMARK                         _______ _______ _______ _____ _____    ______ ____
ROOT
ATOM      1  N   UNL     1       1.180   8.866  20.074  0.00  0.00    -0.328 N 
ATOM      2  C   UNL     1       1.511   9.191  18.785  0.00  0.00    +0.099 A 
ATOM      3  N   UNL     1       0.956  10.329  18.415  0.00  0.00    -0.218 NA
ATOM      4  C   UNL     1       0.253  10.735  19.508  0.00  0.00    +0.168 A 
ATOM      5  C   UNL     1       0.370   9.859  20.543  0.00  0.00    +0.151 A 
ATOM      6  C   UNL     1      -0.268  10.048  21.800  0.00  0.00    +0.282 A 
ATOM      7  O   UNL     1      -0.155   9.252  22.727  0.00  0.00    -0.265 OA
ATOM      8  N   UNL     1      -1.020  11.225  21.853  0.00  0.00    -0.262 N 
ATOM      9  C   UNL     1      -1.165  12.156  20.803  0.00  0.00    +0.333 A 
ATOM     10  O   UNL     1      -1.855  13.171  20.947  0.00  0.00    -0.246 OA
ATOM     11  N   UNL     1      -0.500  11.881  19.609  0.00  0.00    -0.280 N 
ATOM     12  H   UNL     1       2.149   8.574  18.167  0.00  0.00    +0.103 HD
ENDROOT
BRANCH   1  13
ATOM     13  C   UNL     1       1.611   7.694  20.793  0.00  0.00    +0.013 C 
ATOM     14  H   UNL     1       2.116   8.013  21.708  0.00  0.00    +0.046 HD
ATOM     15  H   UNL     1       2.290   7.123  20.153  0.00  0.00    +0.046 HD
ATOM     16  H   UNL     1       0.742   7.081  21.046  0.00  0.00    +0.046 HD
ENDBRANCH   1  13
BRANCH  11  17
ATOM     17  C   UNL     1      -0.598  12.788  18.479  0.00  0.00    +0.018 C 
ATOM     18  H   UNL     1       0.252  12.619  17.811  0.00  0.00    +0.046 HD
ATOM     19  H   UNL     1      -0.590  13.834  18.796  0.00  0.00    +0.046 HD
ATOM     20  H   UNL     1      -1.532  12.592  17.943  0.00  0.00    +0.046 HD
ENDBRANCH  11  17
BRANCH   8  21
ATOM     21  C   UNL     1      -1.721  11.534  23.084  0.00  0.00    +0.020 C 
ATOM     22  H   UNL     1      -1.275  12.427  23.533  0.00  0.00    +0.046 HD
ATOM     23  H   UNL     1      -1.599  10.698  23.781  0.00  0.00    +0.046 HD
ATOM     24  H   UNL     1      -2.787  11.712  22.928  0.00  0.00    +0.046 HD
ENDBRANCH   8  21
TORSDOF 3
ENDMDL
MODEL 25
REMARK VINA RESULT:    -3.705      6.464      8.209
REMARK INTER + INTRA:          -4.030
REMARK INTER:                  -4.030
REMARK INTRA:                   0.000
REMARK UNBOUND:                 0.000
REMARK  Name = 
REMARK  3 active torsions:
REMARK  status: ('A' for Active; 'I' for Inactive)
REMARK    1  A    between atoms: C_1  and  N_2
REMARK    2  A    between atoms: N_9  and  C_14
REMARK    3  A    between atoms: N_12  and  C_13
REMARK                            x       y       z     vdW  Elec       q    Type
REMARK                         _______ _______ _______ _____ _____    ______ ____
ROOT
ATOM      1  N   UNL     1       1.418  11.844  18.906  0.00  0.00    -0.328 N 
ATOM      2  C   UNL     1       1.628  10.554  18.496  0.00  0.00    +0.099 A 
ATOM      3  N   UNL     1       1.096   9.686  19.334  0.00  0.00    -0.218 NA
ATOM      4  C   UNL     1       0.530  10.455  20.304  0.00  0.00    +0.168 A 
ATOM      5  C   UNL     1       0.710  11.784  20.071  0.00  0.00    +0.151 A 
ATOM      6  C   UNL     1       0.217  12.801  20.933  0.00  0.00    +0.282 A 
ATOM      7  O   UNL     1       0.384  13.996  20.713  0.00  0.00    -0.265 OA
ATOM      8  N   UNL     1      -0.469  12.287  22.039  0.00  0.00    -0.262 N 
ATOM      9  C   UNL     1      -0.675  10.919  22.315  0.00  0.00    +0.333 A 
ATOM     10  O   UNL     1      -1.295  10.562  23.322  0.00  0.00    -0.246 OA
ATOM     11  N   UNL     1      -0.152   9.998  21.407  0.00  0.00    -0.280 N 
ATOM     12  H   UNL     1       2.169  10.303  17.592  0.00  0.00    +0.103 HD
ENDROOT
BRANCH   1  13
ATOM     13  C   UNL     1       1.863  13.035  18.227  0.00  0.00    +0.013 C 
ATOM     14  H   UNL     1       1.005  13.696  18.086  0.00  0.00    +0.046 HD
ATOM     15  H   UNL     1       2.295  12.747  17.265  0.00  0.00    +0.046 HD
ATOM     16  H   UNL     1       2.620  13.538  18.834  0.00  0.00    +0.046 HD
ENDBRANCH   1  13
BRANCH  11  17
ATOM     17  C   UNL     1      -0.320   8.572  21.618  0.00  0.00    +0.018 C 
ATOM     18  H   UNL     1      -0.926   8.159  20.804  0.00  0.00    +0.046 HD
ATOM     19  H   UNL     1      -0.819   8.357  22.567  0.00  0.00    +0.046 HD
ATOM     20  H   UNL     1       0.663   8.093  21.624  0.00  0.00    +0.046 HD
ENDBRANCH  11  17
BRANCH   8  21
ATOM     21  C   UNL     1      -1.021  13.224  22.996  0.00  0.00    +0.020 C 
ATOM     22  H   UNL     1      -0.334  14.070  23.104  0.00  0.00    +0.046 HD
ATOM     23  H   UNL     1      -1.114  12.728  23.968  0.00  0.00    +0.046 HD
ATOM     24  H   UNL     1      -2.002  13.602  22.697  0.00  0.00    +0.046 HD
ENDBRANCH   8  21
TORSDOF 3
ENDMDL
MODEL 26
REMARK VINA RESULT:    -3.703      5.517      8.469
REMARK INTER + INTRA:          -4.027
REMARK INTER:                  -4.027
REMARK INTRA:                   0.000
REMARK UNBOUND:                 0.000
REMARK  Name = 
REMARK  3 active torsions:
REMARK  status: ('A' for Active; 'I' for Inactive)
REMARK    1  A    between atoms: C_1  and  N_2
REMARK    2  A    between atoms: N_9  and  C_14
REMARK    3  A    between atoms: N_12  and  C_13
REMARK                            x       y       z     vdW  Elec       q    Type
REMARK                         _______ _______ _______ _____ _____    ______ ____
ROOT
ATOM      1  N   UNL     1      -1.084  10.856  22.733  0.00  0.00    -0.328 N 
ATOM      2  C   UNL     1      -0.324   9.901  23.356  0.00  0.00    +0.099 A 
ATOM      3  N   UNL     1       0.416   9.232  22.493  0.00  0.00    -0.218 NA
ATOM      4  C   UNL     1       0.112   9.783  21.286  0.00  0.00    +0.168 A 
ATOM      5  C   UNL     1      -0.806  10.782  21.399  0.00  0.00    +0.151 A 
ATOM      6  C   UNL     1      -1.294  11.521  20.287  0.00  0.00    +0.282 A 
ATOM      7  O   UNL     1      -2.121  12.421  20.399  0.00  0.00    -0.265 OA
ATOM      8  N   UNL     1      -0.730  11.111  19.075  0.00  0.00    -0.262 N 
ATOM      9  C   UNL     1       0.221  10.082  18.918  0.00  0.00    +0.333 A 
ATOM     10  O   UNL     1       0.661   9.790  17.801  0.00  0.00    -0.246 OA
ATOM     11  N   UNL     1       0.638   9.416  20.070  0.00  0.00    -0.280 N 
ATOM     12  H   UNL     1      -0.346   9.736  24.425  0.00  0.00    +0.103 HD
ENDROOT
BRANCH   1  13
ATOM     13  C   UNL     1      -2.003  11.762  23.373  0.00  0.00    +0.013 C 
ATOM     14  H   UNL     1      -2.943  11.235  23.555  0.00  0.00    +0.046 HD
ATOM     15  H   UNL     1      -2.161  12.621  22.716  0.00  0.00    +0.046 HD
ATOM     16  H   UNL     1      -1.580  12.099  24.323  0.00  0.00    +0.046 HD
ENDBRANCH   1  13
BRANCH  11  17
ATOM     17  C   UNL     1       1.614   8.344  19.995  0.00  0.00    +0.018 C 
ATOM     18  H   UNL     1       2.130   8.398  19.031  0.00  0.00    +0.046 HD
ATOM     19  H   UNL     1       1.146   7.360  20.085  0.00  0.00    +0.046 HD
ATOM     20  H   UNL     1       2.338   8.462  20.807  0.00  0.00    +0.046 HD
ENDBRANCH  11  17
BRANCH   8  21
ATOM     21  C   UNL     1      -1.147  11.788  17.863  0.00  0.00    +0.020 C 
ATOM     22  H   UNL     1      -1.987  11.242  17.421  0.00  0.00    +0.046 HD
ATOM     23  H   UNL     1      -0.317  11.783  17.149  0.00  0.00    +0.046 HD
ATOM     24  H   UNL     1      -1.454  12.822  18.043  0.00  0.00    +0.046 HD
ENDBRANCH   8  21
TORSDOF 3
ENDMDL
MODEL 27
REMARK VINA RESULT:    -3.682      5.743      8.319
REMARK INTER + INTRA:          -4.004
REMARK INTER:                  -4.004
REMARK INTRA:                   0.000
REMARK UNBOUND:                 0.000
REMARK  Name = 
REMARK  3 active torsions:
REMARK  status: ('A' for Active; 'I' for Inactive)
REMARK    1  A    between atoms: C_1  and  N_2
REMARK    2  A    between atoms: N_9  and  C_14
REMARK    3  A    between atoms: N_12  and  C_13
REMARK                            x       y       z     vdW  Elec       q    Type
REMARK                         _______ _______ _______ _____ _____    ______ ____
ROOT
ATOM      1  N   UNL     1      -1.323  12.887  20.149  0.00  0.00    -0.328 N 
ATOM      2  C   UNL     1      -0.987  12.894  18.821  0.00  0.00    +0.099 A 
ATOM      3  N   UNL     1      -0.240  11.855  18.504  0.00  0.00    -0.218 NA
ATOM      4  C   UNL     1      -0.100  11.169  19.672  0.00  0.00    +0.168 A 
ATOM      5  C   UNL     1      -0.753  11.776  20.700  0.00  0.00    +0.151 A 
ATOM      6  C   UNL     1      -0.766  11.263  22.027  0.00  0.00    +0.282 A 
ATOM      7  O   UNL     1      -1.358  11.818  22.947  0.00  0.00    -0.265 OA
ATOM      8  N   UNL     1      -0.038  10.076  22.155  0.00  0.00    -0.262 N 
ATOM      9  C   UNL     1       0.651   9.418  21.114  0.00  0.00    +0.333 A 
ATOM     10  O   UNL     1       1.268   8.369  21.327  0.00  0.00    -0.246 OA
ATOM     11  N   UNL     1       0.602  10.001  19.848  0.00  0.00    -0.280 N 
ATOM     12  H   UNL     1      -1.308  13.669  18.137  0.00  0.00    +0.103 HD
ENDROOT
BRANCH   1  13
ATOM     13  C   UNL     1      -2.128  13.870  20.828  0.00  0.00    +0.013 C 
ATOM     14  H   UNL     1      -2.635  13.387  21.667  0.00  0.00    +0.046 HD
ATOM     15  H   UNL     1      -2.853  14.278  20.119  0.00  0.00    +0.046 HD
ATOM     16  H   UNL     1      -1.486  14.673  21.199  0.00  0.00    +0.046 HD
ENDBRANCH   1  13
BRANCH  11  17
ATOM     17  C   UNL     1       1.285   9.387  18.723  0.00  0.00    +0.018 C 
ATOM     18  H   UNL     1       1.003   8.331  18.667  0.00  0.00    +0.046 HD
ATOM     19  H   UNL     1       2.372   9.452  18.823  0.00  0.00    +0.046 HD
ATOM     20  H   UNL     1       0.988   9.897  17.802  0.00  0.00    +0.046 HD
ENDBRANCH  11  17
BRANCH   8  21
ATOM     21  C   UNL     1       0.026   9.452  23.461  0.00  0.00    +0.020 C 
ATOM     22  H   UNL     1      -0.927   9.605  23.977  0.00  0.00    +0.046 HD
ATOM     23  H   UNL     1       0.817   9.932  24.046  0.00  0.00    +0.046 HD
ATOM     24  H   UNL     1       0.229   8.379  23.405  0.00  0.00    +0.046 HD
ENDBRANCH   8  21
TORSDOF 3
ENDMDL
MODEL 28
REMARK VINA RESULT:    -3.680      7.662      9.167
REMARK INTER + INTRA:          -4.003
REMARK INTER:                  -4.003
REMARK INTRA:                   0.000
REMARK UNBOUND:                 0.000
REMARK  Name = 
REMARK  3 active torsions:
REMARK  status: ('A' for Active; 'I' for Inactive)
REMARK    1  A    between atoms: C_1  and  N_2
REMARK    2  A    between atoms: N_9  and  C_14
REMARK    3  A    between atoms: N_12  and  C_13
REMARK                            x       y       z     vdW  Elec       q    Type
REMARK                         _______ _______ _______ _____ _____    ______ ____
ROOT
ATOM      1  N   UNL     1      -0.679  11.548  20.324  0.00  0.00    -0.328 N 
ATOM      2  C   UNL     1      -1.304  12.321  21.267  0.00  0.00    +0.099 A 
ATOM      3  N   UNL     1      -2.544  12.604  20.918  0.00  0.00    -0.218 NA
ATOM      4  C   UNL     1      -2.706  11.988  19.714  0.00  0.00    +0.168 A 
ATOM      5  C   UNL     1      -1.579  11.331  19.322  0.00  0.00    +0.151 A 
ATOM      6  C   UNL     1      -1.484  10.607  18.103  0.00  0.00    +0.282 A 
ATOM      7  O   UNL     1      -0.464  10.018  17.759  0.00  0.00    -0.265 OA
ATOM      8  N   UNL     1      -2.667  10.643  17.358  0.00  0.00    -0.262 N 
ATOM      9  C   UNL     1      -3.852  11.311  17.730  0.00  0.00    +0.333 A 
ATOM     10  O   UNL     1      -4.850  11.286  17.001  0.00  0.00    -0.246 OA
ATOM     11  N   UNL     1      -3.846  11.994  18.946  0.00  0.00    -0.280 N 
ATOM     12  H   UNL     1      -0.818  12.647  22.177  0.00  0.00    +0.103 HD
ENDROOT
BRANCH   1  13
ATOM     13  C   UNL     1       0.676  11.060  20.387  0.00  0.00    +0.013 C 
ATOM     14  H   UNL     1       0.694  10.036  20.007  0.00  0.00    +0.046 HD
ATOM     15  H   UNL     1       1.011  11.095  21.426  0.00  0.00    +0.046 HD
ATOM     16  H   UNL     1       1.320  11.693  19.771  0.00  0.00    +0.046 HD
ENDBRANCH   1  13
BRANCH  11  17
ATOM     17  C   UNL     1      -5.025  12.708  19.402  0.00  0.00    +0.018 C 
ATOM     18  H   UNL     1      -4.733  13.715  19.717  0.00  0.00    +0.046 HD
ATOM     19  H   UNL     1      -5.504  12.205  20.246  0.00  0.00    +0.046 HD
ATOM     20  H   UNL     1      -5.744  12.773  18.579  0.00  0.00    +0.046 HD
ENDBRANCH  11  17
BRANCH   8  21
ATOM     21  C   UNL     1      -2.699   9.941  16.091  0.00  0.00    +0.020 C 
ATOM     22  H   UNL     1      -1.674   9.692  15.796  0.00  0.00    +0.046 HD
ATOM     23  H   UNL     1      -3.128  10.600  15.329  0.00  0.00    +0.046 HD
ATOM     24  H   UNL     1      -3.287   9.020  16.134  0.00  0.00    +0.046 HD
ENDBRANCH   8  21
TORSDOF 3
ENDMDL
MODEL 29
REMARK VINA RESULT:    -3.660      6.698      9.108
REMARK INTER + INTRA:          -3.981
REMARK INTER:                  -3.981
REMARK INTRA:                   0.000
REMARK UNBOUND:                 0.000
REMARK  Name = 
REMARK  3 active torsions:
REMARK  status: ('A' for Active; 'I' for Inactive)
REMARK    1  A    between atoms: C_1  and  N_2
REMARK    2  A    between atoms: N_9  and  C_14
REMARK    3  A    between atoms: N_12  and  C_13
REMARK                            x       y       z     vdW  Elec       q    Type
REMARK                         _______ _______ _______ _____ _____    ______ ____
ROOT
ATOM      1  N   UNL     1      -1.574  12.777  21.233  0.00  0.00    -0.328 N 
ATOM      2  C   UNL     1      -2.864  13.224  21.112  0.00  0.00    +0.099 A 
ATOM      3  N   UNL     1      -3.453  12.720  20.045  0.00  0.00    -0.218 NA
ATOM      4  C   UNL     1      -2.503  11.928  19.476  0.00  0.00    +0.168 A 
ATOM      5  C   UNL     1      -1.339  11.941  20.181  0.00  0.00    +0.151 A 
ATOM      6  C   UNL     1      -0.188  11.199  19.800  0.00  0.00    +0.282 A 
ATOM      7  O   UNL     1       0.857  11.218  20.443  0.00  0.00    -0.265 OA
ATOM      8  N   UNL     1      -0.385  10.458  18.630  0.00  0.00    -0.262 N 
ATOM      9  C   UNL     1      -1.574  10.419  17.873  0.00  0.00    +0.333 A 
ATOM     10  O   UNL     1      -1.651   9.732  16.848  0.00  0.00    -0.246 OA
ATOM     11  N   UNL     1      -2.648  11.183  18.330  0.00  0.00    -0.280 N 
ATOM     12  H   UNL     1      -3.319  13.907  21.817  0.00  0.00    +0.103 HD
ENDROOT
BRANCH   1  13
ATOM     13  C   UNL     1      -0.648  13.129  22.280  0.00  0.00    +0.013 C 
ATOM     14  H   UNL     1      -1.202  13.227  23.217  0.00  0.00    +0.046 HD
ATOM     15  H   UNL     1      -0.163  14.072  22.014  0.00  0.00    +0.046 HD
ATOM     16  H   UNL     1       0.106  12.343  22.378  0.00  0.00    +0.046 HD
ENDBRANCH   1  13
BRANCH  11  17
ATOM     17  C   UNL     1      -3.907  11.198  17.608  0.00  0.00    +0.018 C 
ATOM     18  H   UNL     1      -4.358  10.201  17.656  0.00  0.00    +0.046 HD
ATOM     19  H   UNL     1      -3.771  11.468  16.557  0.00  0.00    +0.046 HD
ATOM     20  H   UNL     1      -4.578  11.928  18.072  0.00  0.00    +0.046 HD
ENDBRANCH  11  17
BRANCH   8  21
ATOM     21  C   UNL     1       0.716   9.657  18.135  0.00  0.00    +0.020 C 
ATOM     22  H   UNL     1       1.317  10.262  17.448  0.00  0.00    +0.046 HD
ATOM     23  H   UNL     1       0.314   8.802  17.582  0.00  0.00    +0.046 HD
ATOM     24  H   UNL     1       1.362   9.288  18.936  0.00  0.00    +0.046 HD
ENDBRANCH   8  21
TORSDOF 3
ENDMDL
MODEL 30
REMARK VINA RESULT:    -3.650      6.615      7.836
REMARK INTER + INTRA:          -3.970
REMARK INTER:                  -3.970
REMARK INTRA:                   0.000
REMARK UNBOUND:                 0.000
REMARK  Name = 
REMARK  3 active torsions:
REMARK  status: ('A' for Active; 'I' for Inactive)
REMARK    1  A    between atoms: C_1  and  N_2
REMARK    2  A    between atoms: N_9  and  C_14
REMARK    3  A    between atoms: N_12  and  C_13
REMARK                            x       y       z     vdW  Elec       q    Type
REMARK                         _______ _______ _______ _____ _____    ______ ____
ROOT
ATOM      1  N   UNL     1       1.541  12.453  19.288  0.00  0.00    -0.328 N 
ATOM      2  C   UNL     1       1.352  13.772  19.609  0.00  0.00    +0.099 A 
ATOM      3  N   UNL     1       0.604  13.906  20.686  0.00  0.00    -0.218 NA
ATOM      4  C   UNL     1       0.312  12.628  21.058  0.00  0.00    +0.168 A 
ATOM      5  C   UNL     1       0.873  11.714  20.219  0.00  0.00    +0.151 A 
ATOM      6  C   UNL     1       0.722  10.310  20.384  0.00  0.00    +0.282 A 
ATOM      7  O   UNL     1       1.232   9.494  19.623  0.00  0.00    -0.265 OA
ATOM      8  N   UNL     1      -0.060   9.976  21.495  0.00  0.00    -0.262 N 
ATOM      9  C   UNL     1      -0.657  10.894  22.385  0.00  0.00    +0.333 A 
ATOM     10  O   UNL     1      -1.334  10.501  23.340  0.00  0.00    -0.246 OA
ATOM     11  N   UNL     1      -0.449  12.251  22.138  0.00  0.00    -0.280 N 
ATOM     12  H   UNL     1       1.774  14.585  19.033  0.00  0.00    +0.103 HD
ENDROOT
BRANCH   1  13
ATOM     13  C   UNL     1       2.305  11.951  18.173  0.00  0.00    +0.013 C 
ATOM     14  H   UNL     1       2.530  10.897  18.353  0.00  0.00    +0.046 HD
ATOM     15  H   UNL     1       3.225  12.536  18.089  0.00  0.00    +0.046 HD
ATOM     16  H   UNL     1       1.720  12.052  17.256  0.00  0.00    +0.046 HD
ENDBRANCH   1  13
BRANCH  11  17
ATOM     17  C   UNL     1      -1.030  13.259  23.006  0.00  0.00    +0.018 C 
ATOM     18  H   UNL     1      -1.937  12.855  23.466  0.00  0.00    +0.046 HD
ATOM     19  H   UNL     1      -1.293  14.167  22.456  0.00  0.00    +0.046 HD
ATOM     20  H   UNL     1      -0.306  13.520  23.784  0.00  0.00    +0.046 HD
ENDBRANCH  11  17
BRANCH   8  21
ATOM     21  C   UNL     1      -0.290   8.573  21.772  0.00  0.00    +0.020 C 
ATOM     22  H   UNL     1      -1.284   8.455  22.215  0.00  0.00    +0.046 HD
ATOM     23  H   UNL     1       0.455   8.226  22.496  0.00  0.00    +0.046 HD
ATOM     24  H   UNL     1      -0.228   7.951  20.875  0.00  0.00    +0.046 HD
ENDBRANCH   8  21
TORSDOF 3
ENDMDL
MODEL 31
REMARK VINA RESULT:    -3.602      6.672      9.196
REMARK INTER + INTRA:          -3.917
REMARK INTER:                  -3.917
REMARK INTRA:                   0.000
REMARK UNBOUND:                 0.000
REMARK  Name = 
REMARK  3 active torsions:
REMARK  status: ('A' for Active; 'I' for Inactive)
REMARK    1  A    between atoms: C_1  and  N_2
REMARK    2  A    between atoms: N_9  and  C_14
REMARK    3  A    between atoms: N_12  and  C_13
REMARK                            x       y       z     vdW  Elec       q    Type
REMARK                         _______ _______ _______ _____ _____    ______ ____
ROOT
ATOM      1  N   UNL     1      -1.311  12.545  21.156  0.00  0.00    -0.328 N 
ATOM      2  C   UNL     1      -0.013  12.179  21.400  0.00  0.00    +0.099 A 
ATOM      3  N   UNL     1       0.443  11.364  20.468  0.00  0.00    -0.218 NA
ATOM      4  C   UNL     1      -0.602  11.212  19.609  0.00  0.00    +0.168 A 
ATOM      5  C   UNL     1      -1.693  11.925  20.003  0.00  0.00    +0.151 A 
ATOM      6  C   UNL     1      -2.917  11.938  19.281  0.00  0.00    +0.282 A 
ATOM      7  O   UNL     1      -3.895  12.584  19.644  0.00  0.00    -0.265 OA
ATOM      8  N   UNL     1      -2.875  11.146  18.129  0.00  0.00    -0.262 N 
ATOM      9  C   UNL     1      -1.765  10.395  17.689  0.00  0.00    +0.333 A 
ATOM     10  O   UNL     1      -1.826   9.722  16.654  0.00  0.00    -0.246 OA
ATOM     11  N   UNL     1      -0.609  10.447  18.467  0.00  0.00    -0.280 N 
ATOM     12  H   UNL     1       0.547  12.528  22.257  0.00  0.00    +0.103 HD
ENDROOT
BRANCH   1  13
ATOM     13  C   UNL     1      -2.113  13.423  21.971  0.00  0.00    +0.013 C 
ATOM     14  H   UNL     1      -1.473  14.217  22.363  0.00  0.00    +0.046 HD
ATOM     15  H   UNL     1      -2.551  12.839  22.785  0.00  0.00    +0.046 HD
ATOM     16  H   UNL     1      -2.909  13.858  21.361  0.00  0.00    +0.046 HD
ENDBRANCH   1  13
BRANCH  11  17
ATOM     17  C   UNL     1       0.577   9.702  18.084  0.00  0.00    +0.018 C 
ATOM     18  H   UNL     1       0.827   8.994  18.881  0.00  0.00    +0.046 HD
ATOM     19  H   UNL     1       1.435  10.360  17.920  0.00  0.00    +0.046 HD
ATOM     20  H   UNL     1       0.373   9.157  17.158  0.00  0.00    +0.046 HD
ENDBRANCH  11  17
BRANCH   8  21
ATOM     21  C   UNL     1      -4.064  11.075  17.304  0.00  0.00    +0.020 C 
ATOM     22  H   UNL     1      -4.707  10.269  17.673  0.00  0.00    +0.046 HD
ATOM     23  H   UNL     1      -3.771  10.840  16.276  0.00  0.00    +0.046 HD
ATOM     24  H   UNL     1      -4.633  12.009  17.305  0.00  0.00    +0.046 HD
ENDBRANCH   8  21
TORSDOF 3
ENDMDL
MODEL 32
REMARK VINA RESULT:    -3.543      5.859      8.448
REMARK INTER + INTRA:          -3.853
REMARK INTER:                  -3.853
REMARK INTRA:                   0.000
REMARK UNBOUND:                 0.000
REMARK  Name = 
REMARK  3 active torsions:
REMARK  status: ('A' for Active; 'I' for Inactive)
REMARK    1  A    between atoms: C_1  and  N_2
REMARK    2  A    between atoms: N_9  and  C_14
REMARK    3  A    between atoms: N_12  and  C_13
REMARK                            x       y       z     vdW  Elec       q    Type
REMARK                         _______ _______ _______ _____ _____    ______ ____
ROOT
ATOM      1  N   UNL     1      -1.184  13.038  21.026  0.00  0.00    -0.328 N 
ATOM      2  C   UNL     1      -1.532  13.027  22.351  0.00  0.00    +0.099 A 
ATOM      3  N   UNL     1      -1.116  11.930  22.952  0.00  0.00    -0.218 NA
ATOM      4  C   UNL     1      -0.484  11.225  21.973  0.00  0.00    +0.168 A 
ATOM      5  C   UNL     1      -0.509  11.879  20.779  0.00  0.00    +0.151 A 
ATOM      6  C   UNL     1       0.081  11.359  19.594  0.00  0.00    +0.282 A 
ATOM      7  O   UNL     1       0.053  11.956  18.523  0.00  0.00    -0.265 OA
ATOM      8  N   UNL     1       0.684  10.113  19.791  0.00  0.00    -0.262 N 
ATOM      9  C   UNL     1       0.730   9.406  21.011  0.00  0.00    +0.333 A 
ATOM     10  O   UNL     1       1.287   8.306  21.085  0.00  0.00    -0.246 OA
ATOM     11  N   UNL     1       0.122  10.000  22.117  0.00  0.00    -0.280 N 
ATOM     12  H   UNL     1      -2.081  13.832  22.823  0.00  0.00    +0.103 HD
ENDROOT
BRANCH   1  13
ATOM     13  C   UNL     1      -1.480  14.083  20.078  0.00  0.00    +0.013 C 
ATOM     14  H   UNL     1      -0.733  14.873  20.187  0.00  0.00    +0.046 HD
ATOM     15  H   UNL     1      -2.483  14.465  20.282  0.00  0.00    +0.046 HD
ATOM     16  H   UNL     1      -1.440  13.676  19.064  0.00  0.00    +0.046 HD
ENDBRANCH   1  13
BRANCH  11  17
ATOM     17  C   UNL     1       0.125   9.337  23.408  0.00  0.00    +0.018 C 
ATOM     18  H   UNL     1       0.182  10.094  24.198  0.00  0.00    +0.046 HD
ATOM     19  H   UNL     1       0.974   8.657  23.515  0.00  0.00    +0.046 HD
ATOM     20  H   UNL     1      -0.800   8.762  23.517  0.00  0.00    +0.046 HD
ENDBRANCH  11  17
BRANCH   8  21
ATOM     21  C   UNL     1       1.321   9.475  18.657  0.00  0.00    +0.020 C 
ATOM     22  H   UNL     1       1.390   8.399  18.845  0.00  0.00    +0.046 HD
ATOM     23  H   UNL     1       2.336   9.873  18.548  0.00  0.00    +0.046 HD
ATOM     24  H   UNL     1       0.777   9.636  17.723  0.00  0.00    +0.046 HD
ENDBRANCH   8  21
TORSDOF 3
ENDMDL
