MODEL 1
REMARK VINA RESULT:    -9.162      0.000      0.000
REMARK INTER + INTRA:         -11.488
REMARK INTER:                 -11.054
REMARK INTRA:                  -0.433
REMARK UNBOUND:                 0.621
REMARK  Name = 
REMARK  6 active torsions:
REMARK  status: ('A' for Active; 'I' for Inactive)
REMARK    1  A    between atoms: C_1  and  C_2
REMARK    2  A    between atoms: C_4  and  C_5
REMARK    3  A    between atoms: C_5  and  O_6
REMARK    4  A    between atoms: O_6  and  C_7
REMARK    5  A    between atoms: C_11  and  C_12
REMARK    6  A    between atoms: C_19  and  C_20
REMARK                            x       y       z     vdW  Elec       q    Type
REMARK                         _______ _______ _______ _____ _____    ______ ____
ROOT
ATOM      1  C   UNL     1       2.988   6.999  18.030  0.00  0.00    +0.247 C 
ATOM      2  O   UNL     1       3.659   7.627  17.212  0.00  0.00    -0.270 OA
ATOM      3  N   UNL     1       2.998   5.602  18.142  0.00  0.00    -0.290 N 
ATOM      4  C   UNL     1       1.838   4.851  18.628  0.00  0.00    +0.016 C 
ATOM      5  C   UNL     1       2.235   3.496  19.198  0.00  0.00    -0.037 C 
ATOM      6  C   UNL     1       3.059   2.655  18.223  0.00  0.00    -0.050 C 
ATOM      7  C   UNL     1       3.518   3.436  16.993  0.00  0.00    -0.030 C 
ATOM      8  C   UNL     1       3.958   4.876  17.301  0.00  0.00    +0.054 C 
ATOM      9  H   UNL     1       1.155   4.725  17.778  0.00  0.00    +0.046 HD
ATOM     10  H   UNL     1       1.283   5.411  19.384  0.00  0.00    +0.046 HD
ATOM     11  H   UNL     1       2.813   3.649  20.117  0.00  0.00    +0.028 HD
ATOM     12  H   UNL     1       1.337   2.941  19.495  0.00  0.00    +0.028 HD
ATOM     13  H   UNL     1       3.926   2.240  18.751  0.00  0.00    +0.027 HD
ATOM     14  H   UNL     1       2.470   1.791  17.893  0.00  0.00    +0.027 HD
ATOM     15  H   UNL     1       4.315   2.882  16.480  0.00  0.00    +0.029 HD
ATOM     16  H   UNL     1       2.676   3.478  16.288  0.00  0.00    +0.029 HD
ATOM     17  H   UNL     1       4.018   5.397  16.336  0.00  0.00    +0.055 HD
ENDROOT
BRANCH   1  22
ATOM     18  C   UNL     1       0.667   9.662  19.337  0.00  0.00    +0.122 A 
ATOM     19  C   UNL     1       0.563   9.289  20.680  0.00  0.00    -0.020 A 
ATOM     20  C   UNL     1       1.256   8.171  21.161  0.00  0.00    -0.058 A 
ATOM     21  C   UNL     1       2.048   7.414  20.301  0.00  0.00    -0.049 A 
ATOM     22  C   UNL     1       2.136   7.776  18.954  0.00  0.00    +0.040 A 
ATOM     23  C   UNL     1       1.469   8.907  18.478  0.00  0.00    -0.008 A 
ATOM     24  H   UNL     1      -0.025   9.860  21.392  0.00  0.00    +0.065 HD
ATOM     25  H   UNL     1       1.189   7.905  22.213  0.00  0.00    +0.062 HD
ATOM     26  H   UNL     1       2.606   6.561  20.678  0.00  0.00    +0.063 HD
ATOM     27  H   UNL     1       1.580   9.204  17.437  0.00  0.00    +0.066 HD
BRANCH  18  28
ATOM     28  O   UNL     1       0.063  10.737  18.748  0.00  0.00    -0.484 OA
BRANCH  28  29
ATOM     29  C   UNL     1      -1.327  10.977  19.018  0.00  0.00    +0.152 C 
ATOM     30  H   UNL     1      -1.459  11.908  19.584  0.00  0.00    +0.078 HD
ATOM     31  H   UNL     1      -1.640  10.173  19.694  0.00  0.00    +0.078 HD
BRANCH  29  34
ATOM     32  C   UNL     1      -2.961  10.514  15.908  0.00  0.00    +0.224 A 
ATOM     33  N   UNL     1      -1.909  10.271  16.656  0.00  0.00    -0.193 NA
ATOM     34  C   UNL     1      -2.221  10.930  17.822  0.00  0.00    +0.209 A 
ATOM     35  N   UNL     1      -3.408  11.558  17.807  0.00  0.00    -0.058 NA
ATOM     36  O   UNL     1      -3.903  11.278  16.532  0.00  0.00    -0.338 OA
BRANCH  32  37
ATOM     37  C   UNL     1      -3.259  10.084  14.532  0.00  0.00    +0.015 C 
ATOM     38  H   UNL     1      -3.029  10.883  13.819  0.00  0.00    +0.032 HD
ATOM     39  H   UNL     1      -2.660   9.207  14.268  0.00  0.00    +0.032 HD
ATOM     40  H   UNL     1      -4.317   9.827  14.428  0.00  0.00    +0.032 HD
ENDBRANCH  32  37
ENDBRANCH  29  34
ENDBRANCH  28  29
ENDBRANCH  18  28
ENDBRANCH   1  22
BRANCH   8  41
ATOM     41  C   UNL     1       5.320   4.940  17.936  0.00  0.00    +0.010 A 
ATOM     42  C   UNL     1       6.595   4.773  17.346  0.00  0.00    +0.054 A 
ATOM     43  N   UNL     1       7.598   4.897  18.222  0.00  0.00    -0.182 NA
ATOM     44  N   UNL     1       6.969   5.109  19.388  0.00  0.00    -0.284 N 
ATOM     45  C   UNL     1       5.612   5.165  19.268  0.00  0.00    +0.027 A 
ATOM     46  H   UNL     1       6.838   4.565  16.314  0.00  0.00    +0.085 HD
ATOM     47  H   UNL     1       7.530   5.208  20.228  0.00  0.00    +0.188 HD
ATOM     48  H   UNL     1       4.978   5.328  20.128  0.00  0.00    +0.083 HD
ENDBRANCH   8  41
TORSDOF 6
ENDMDL
MODEL 2
REMARK VINA RESULT:    -8.681      0.896      1.100
REMARK INTER + INTRA:         -10.852
REMARK INTER:                 -10.627
REMARK INTRA:                  -0.225
REMARK UNBOUND:                 0.621
REMARK  Name = 
REMARK  6 active torsions:
REMARK  status: ('A' for Active; 'I' for Inactive)
REMARK    1  A    between atoms: C_1  and  C_2
REMARK    2  A    between atoms: C_4  and  C_5
REMARK    3  A    between atoms: C_5  and  O_6
REMARK    4  A    between atoms: O_6  and  C_7
REMARK    5  A    between atoms: C_11  and  C_12
REMARK    6  A    between atoms: C_19  and  C_20
REMARK                            x       y       z     vdW  Elec       q    Type
REMARK                         _______ _______ _______ _____ _____    ______ ____
ROOT
ATOM      1  C   UNL     1       3.071   6.914  18.078  0.00  0.00    +0.247 C 
ATOM      2  O   UNL     1       3.709   7.552  17.242  0.00  0.00    -0.270 OA
ATOM      3  N   UNL     1       3.106   5.518  18.191  0.00  0.00    -0.290 N 
ATOM      4  C   UNL     1       1.972   4.748  18.709  0.00  0.00    +0.016 C 
ATOM      5  C   UNL     1       2.406   3.401  19.269  0.00  0.00    -0.037 C 
ATOM      6  C   UNL     1       3.217   2.573  18.274  0.00  0.00    -0.050 C 
ATOM      7  C   UNL     1       3.631   3.359  17.031  0.00  0.00    -0.030 C 
ATOM      8  C   UNL     1       4.055   4.807  17.325  0.00  0.00    +0.054 C 
ATOM      9  H   UNL     1       1.268   4.611  17.878  0.00  0.00    +0.046 HD
ATOM     10  H   UNL     1       1.428   5.301  19.479  0.00  0.00    +0.046 HD
ATOM     11  H   UNL     1       3.006   3.565  20.173  0.00  0.00    +0.028 HD
ATOM     12  H   UNL     1       1.526   2.832  19.591  0.00  0.00    +0.028 HD
ATOM     13  H   UNL     1       4.105   2.172  18.778  0.00  0.00    +0.027 HD
ATOM     14  H   UNL     1       2.633   1.699  17.961  0.00  0.00    +0.027 HD
ATOM     15  H   UNL     1       4.423   2.817  16.497  0.00  0.00    +0.029 HD
ATOM     16  H   UNL     1       2.769   3.387  16.349  0.00  0.00    +0.029 HD
ATOM     17  H   UNL     1       4.080   5.327  16.358  0.00  0.00    +0.055 HD
ENDROOT
BRANCH   1  22
ATOM     18  C   UNL     1       0.911   9.650  19.507  0.00  0.00    +0.122 A 
ATOM     19  C   UNL     1       0.687   9.165  20.798  0.00  0.00    -0.020 A 
ATOM     20  C   UNL     1       1.246   7.948  21.206  0.00  0.00    -0.058 A 
ATOM     21  C   UNL     1       2.024   7.203  20.321  0.00  0.00    -0.049 A 
ATOM     22  C   UNL     1       2.231   7.679  19.024  0.00  0.00    +0.040 A 
ATOM     23  C   UNL     1       1.699   8.907  18.624  0.00  0.00    -0.008 A 
ATOM     24  H   UNL     1       0.106   9.720  21.528  0.00  0.00    +0.065 HD
ATOM     25  H   UNL     1       1.087   7.592  22.220  0.00  0.00    +0.062 HD
ATOM     26  H   UNL     1       2.478   6.270  20.645  0.00  0.00    +0.063 HD
ATOM     27  H   UNL     1       1.904   9.287  17.626  0.00  0.00    +0.066 HD
BRANCH  18  28
ATOM     28  O   UNL     1       0.444  10.827  18.993  0.00  0.00    -0.484 OA
BRANCH  28  29
ATOM     29  C   UNL     1      -0.810  11.336  19.472  0.00  0.00    +0.152 C 
ATOM     30  H   UNL     1      -0.722  12.396  19.745  0.00  0.00    +0.078 HD
ATOM     31  H   UNL     1      -1.005  10.805  20.411  0.00  0.00    +0.078 HD
BRANCH  29  34
ATOM     32  C   UNL     1      -3.825  11.311  17.611  0.00  0.00    +0.224 A 
ATOM     33  N   UNL     1      -3.079  11.916  18.507  0.00  0.00    -0.193 NA
ATOM     34  C   UNL     1      -1.977  11.096  18.571  0.00  0.00    +0.209 A 
ATOM     35  N   UNL     1      -2.029  10.028  17.759  0.00  0.00    -0.058 NA
ATOM     36  O   UNL     1      -3.261  10.172  17.117  0.00  0.00    -0.338 OA
BRANCH  32  37
ATOM     37  C   UNL     1      -5.146  11.684  17.079  0.00  0.00    +0.015 C 
ATOM     38  H   UNL     1      -5.815  10.817  17.062  0.00  0.00    +0.032 HD
ATOM     39  H   UNL     1      -5.605  12.458  17.703  0.00  0.00    +0.032 HD
ATOM     40  H   UNL     1      -5.057  12.068  16.058  0.00  0.00    +0.032 HD
ENDBRANCH  32  37
ENDBRANCH  29  34
ENDBRANCH  28  29
ENDBRANCH  18  28
ENDBRANCH   1  22
BRANCH   8  41
ATOM     41  C   UNL     1       5.433   4.893  17.924  0.00  0.00    +0.010 A 
ATOM     42  C   UNL     1       6.694   4.751  17.299  0.00  0.00    +0.054 A 
ATOM     43  N   UNL     1       7.717   4.891  18.147  0.00  0.00    -0.182 NA
ATOM     44  N   UNL     1       7.117   5.089  19.330  0.00  0.00    -0.284 N 
ATOM     45  C   UNL     1       5.756   5.120  19.248  0.00  0.00    +0.027 A 
ATOM     46  H   UNL     1       6.912   4.551  16.259  0.00  0.00    +0.085 HD
ATOM     47  H   UNL     1       7.698   5.195  20.155  0.00  0.00    +0.188 HD
ATOM     48  H   UNL     1       5.143   5.269  20.125  0.00  0.00    +0.083 HD
ENDBRANCH   8  41
TORSDOF 6
ENDMDL
MODEL 3
REMARK VINA RESULT:    -8.557      2.466      3.356
REMARK INTER + INTRA:         -10.688
REMARK INTER:                 -10.235
REMARK INTRA:                  -0.453
REMARK UNBOUND:                 0.621
REMARK  Name = 
REMARK  6 active torsions:
REMARK  status: ('A' for Active; 'I' for Inactive)
REMARK    1  A    between atoms: C_1  and  C_2
REMARK    2  A    between atoms: C_4  and  C_5
REMARK    3  A    between atoms: C_5  and  O_6
REMARK    4  A    between atoms: O_6  and  C_7
REMARK    5  A    between atoms: C_11  and  C_12
REMARK    6  A    between atoms: C_19  and  C_20
REMARK                            x       y       z     vdW  Elec       q    Type
REMARK                         _______ _______ _______ _____ _____    ______ ____
ROOT
ATOM      1  C   UNL     1       3.116   6.941  17.903  0.00  0.00    +0.247 C 
ATOM      2  O   UNL     1       3.792   7.542  17.070  0.00  0.00    -0.270 OA
ATOM      3  N   UNL     1       3.126   5.549  18.062  0.00  0.00    -0.290 N 
ATOM      4  C   UNL     1       1.962   4.813  18.563  0.00  0.00    +0.016 C 
ATOM      5  C   UNL     1       2.356   3.478  19.182  0.00  0.00    -0.037 C 
ATOM      6  C   UNL     1       3.188   2.606  18.243  0.00  0.00    -0.050 C 
ATOM      7  C   UNL     1       3.657   3.345  16.990  0.00  0.00    -0.030 C 
ATOM      8  C   UNL     1       4.093   4.796  17.253  0.00  0.00    +0.054 C 
ATOM      9  H   UNL     1       1.286   4.659  17.713  0.00  0.00    +0.046 HD
ATOM     10  H   UNL     1       1.401   5.398  19.296  0.00  0.00    +0.046 HD
ATOM     11  H   UNL     1       2.926   3.663  20.100  0.00  0.00    +0.028 HD
ATOM     12  H   UNL     1       1.456   2.933  19.490  0.00  0.00    +0.028 HD
ATOM     13  H   UNL     1       4.052   2.210  18.791  0.00  0.00    +0.027 HD
ATOM     14  H   UNL     1       2.602   1.731  17.937  0.00  0.00    +0.027 HD
ATOM     15  H   UNL     1       4.458   2.775  16.503  0.00  0.00    +0.029 HD
ATOM     16  H   UNL     1       2.820   3.364  16.278  0.00  0.00    +0.029 HD
ATOM     17  H   UNL     1       4.160   5.284  16.272  0.00  0.00    +0.055 HD
ENDROOT
BRANCH   1  22
ATOM     18  C   UNL     1       0.830   9.678  19.117  0.00  0.00    +0.122 A 
ATOM     19  C   UNL     1       0.669   9.315  20.457  0.00  0.00    -0.020 A 
ATOM     20  C   UNL     1       1.312   8.181  20.968  0.00  0.00    -0.058 A 
ATOM     21  C   UNL     1       2.111   7.396  20.138  0.00  0.00    -0.049 A 
ATOM     22  C   UNL     1       2.255   7.748  18.793  0.00  0.00    +0.040 A 
ATOM     23  C   UNL     1       1.639   8.895  18.290  0.00  0.00    -0.008 A 
ATOM     24  H   UNL     1       0.075   9.907  21.146  0.00  0.00    +0.065 HD
ATOM     25  H   UNL     1       1.202   7.922  22.017  0.00  0.00    +0.062 HD
ATOM     26  H   UNL     1       2.631   6.530  20.539  0.00  0.00    +0.063 HD
ATOM     27  H   UNL     1       1.794   9.183  17.252  0.00  0.00    +0.066 HD
BRANCH  18  28
ATOM     28  O   UNL     1       0.279  10.766  18.503  0.00  0.00    -0.484 OA
BRANCH  28  29
ATOM     29  C   UNL     1       0.174  11.993  19.242  0.00  0.00    +0.152 C 
ATOM     30  H   UNL     1      -0.243  11.813  20.241  0.00  0.00    +0.078 HD
ATOM     31  H   UNL     1      -0.575  12.594  18.713  0.00  0.00    +0.078 HD
BRANCH  29  34
ATOM     32  C   UNL     1       3.112  13.909  18.740  0.00  0.00    +0.224 A 
ATOM     33  N   UNL     1       2.082  13.296  18.204  0.00  0.00    -0.193 NA
ATOM     34  C   UNL     1       1.429  12.801  19.308  0.00  0.00    +0.209 A 
ATOM     35  N   UNL     1       2.020  13.086  20.479  0.00  0.00    -0.058 NA
ATOM     36  O   UNL     1       3.141  13.828  20.102  0.00  0.00    -0.338 OA
BRANCH  32  37
ATOM     37  C   UNL     1       4.205  14.656  18.095  0.00  0.00    +0.015 C 
ATOM     38  H   UNL     1       3.806  15.428  17.429  0.00  0.00    +0.032 HD
ATOM     39  H   UNL     1       4.831  15.144  18.849  0.00  0.00    +0.032 HD
ATOM     40  H   UNL     1       4.834  13.984  17.503  0.00  0.00    +0.032 HD
ENDBRANCH  32  37
ENDBRANCH  29  34
ENDBRANCH  28  29
ENDBRANCH  18  28
ENDBRANCH   1  22
BRANCH   8  41
ATOM     41  C   UNL     1       5.450   4.882  17.897  0.00  0.00    +0.010 A 
ATOM     42  C   UNL     1       6.731   4.718  17.319  0.00  0.00    +0.054 A 
ATOM     43  N   UNL     1       7.726   4.865  18.199  0.00  0.00    -0.182 NA
ATOM     44  N   UNL     1       7.087   5.090  19.357  0.00  0.00    -0.284 N 
ATOM     45  C   UNL     1       5.730   5.131  19.227  0.00  0.00    +0.027 A 
ATOM     46  H   UNL     1       6.983   4.496  16.291  0.00  0.00    +0.085 HD
ATOM     47  H   UNL     1       7.641   5.207  20.200  0.00  0.00    +0.188 HD
ATOM     48  H   UNL     1       5.088   5.302  20.080  0.00  0.00    +0.083 HD
ENDBRANCH   8  41
TORSDOF 6
ENDMDL
MODEL 4
REMARK VINA RESULT:    -8.552      1.125      1.762
REMARK INTER + INTRA:         -10.681
REMARK INTER:                 -10.283
REMARK INTRA:                  -0.398
REMARK UNBOUND:                 0.621
REMARK  Name = 
REMARK  6 active torsions:
REMARK  status: ('A' for Active; 'I' for Inactive)
REMARK    1  A    between atoms: C_1  and  C_2
REMARK    2  A    between atoms: C_4  and  C_5
REMARK    3  A    between atoms: C_5  and  O_6
REMARK    4  A    between atoms: O_6  and  C_7
REMARK    5  A    between atoms: C_11  and  C_12
REMARK    6  A    between atoms: C_19  and  C_20
REMARK                            x       y       z     vdW  Elec       q    Type
REMARK                         _______ _______ _______ _____ _____    ______ ____
ROOT
ATOM      1  C   UNL     1       3.123   6.959  17.943  0.00  0.00    +0.247 C 
ATOM      2  O   UNL     1       3.796   7.559  17.106  0.00  0.00    -0.270 OA
ATOM      3  N   UNL     1       3.149   5.570  18.119  0.00  0.00    -0.290 N 
ATOM      4  C   UNL     1       1.992   4.825  18.624  0.00  0.00    +0.016 C 
ATOM      5  C   UNL     1       2.399   3.503  19.260  0.00  0.00    -0.037 C 
ATOM      6  C   UNL     1       3.247   2.631  18.336  0.00  0.00    -0.050 C 
ATOM      7  C   UNL     1       3.713   3.360  17.077  0.00  0.00    -0.030 C 
ATOM      8  C   UNL     1       4.130   4.819  17.325  0.00  0.00    +0.054 C 
ATOM      9  H   UNL     1       1.322   4.652  17.772  0.00  0.00    +0.046 HD
ATOM     10  H   UNL     1       1.420   5.412  19.346  0.00  0.00    +0.046 HD
ATOM     11  H   UNL     1       2.963   3.706  20.179  0.00  0.00    +0.028 HD
ATOM     12  H   UNL     1       1.505   2.950  19.570  0.00  0.00    +0.028 HD
ATOM     13  H   UNL     1       4.113   2.252  18.893  0.00  0.00    +0.027 HD
ATOM     14  H   UNL     1       2.674   1.744  18.038  0.00  0.00    +0.027 HD
ATOM     15  H   UNL     1       4.524   2.795  16.601  0.00  0.00    +0.029 HD
ATOM     16  H   UNL     1       2.880   3.359  16.361  0.00  0.00    +0.029 HD
ATOM     17  H   UNL     1       4.196   5.296  16.337  0.00  0.00    +0.055 HD
ENDROOT
BRANCH   1  22
ATOM     18  C   UNL     1       0.770   9.663  19.103  0.00  0.00    +0.122 A 
ATOM     19  C   UNL     1       0.633   9.334  20.455  0.00  0.00    -0.020 A 
ATOM     20  C   UNL     1       1.314   8.234  20.990  0.00  0.00    -0.058 A 
ATOM     21  C   UNL     1       2.127   7.449  20.175  0.00  0.00    -0.049 A 
ATOM     22  C   UNL     1       2.248   7.766  18.819  0.00  0.00    +0.040 A 
ATOM     23  C   UNL     1       1.593   8.880  18.290  0.00  0.00    -0.008 A 
ATOM     24  H   UNL     1       0.028   9.928  21.133  0.00  0.00    +0.065 HD
ATOM     25  H   UNL     1       1.221   8.002  22.048  0.00  0.00    +0.062 HD
ATOM     26  H   UNL     1       2.675   6.610  20.595  0.00  0.00    +0.063 HD
ATOM     27  H   UNL     1       1.730   9.142  17.243  0.00  0.00    +0.066 HD
BRANCH  18  28
ATOM     28  O   UNL     1       0.181  10.717  18.464  0.00  0.00    -0.484 OA
BRANCH  28  29
ATOM     29  C   UNL     1      -1.057  10.495  17.771  0.00  0.00    +0.152 C 
ATOM     30  H   UNL     1      -1.253   9.421  17.655  0.00  0.00    +0.078 HD
ATOM     31  H   UNL     1      -0.900  10.877  16.755  0.00  0.00    +0.078 HD
BRANCH  29  34
ATOM     32  C   UNL     1      -3.442  12.372  19.599  0.00  0.00    +0.224 A 
ATOM     33  N   UNL     1      -2.199  11.961  19.492  0.00  0.00    -0.193 NA
ATOM     34  C   UNL     1      -2.238  11.211  18.340  0.00  0.00    +0.209 A 
ATOM     35  N   UNL     1      -3.445  11.150  17.755  0.00  0.00    -0.058 NA
ATOM     36  O   UNL     1      -4.248  11.927  18.593  0.00  0.00    -0.338 OA
BRANCH  32  37
ATOM     37  C   UNL     1      -4.067  13.225  20.624  0.00  0.00    +0.015 C 
ATOM     38  H   UNL     1      -5.110  12.935  20.785  0.00  0.00    +0.032 HD
ATOM     39  H   UNL     1      -3.535  13.133  21.575  0.00  0.00    +0.032 HD
ATOM     40  H   UNL     1      -4.048  14.275  20.315  0.00  0.00    +0.032 HD
ENDBRANCH  32  37
ENDBRANCH  29  34
ENDBRANCH  28  29
ENDBRANCH  18  28
ENDBRANCH   1  22
BRANCH   8  41
ATOM     41  C   UNL     1       5.483   4.930  17.974  0.00  0.00    +0.010 A 
ATOM     42  C   UNL     1       6.768   4.774  17.404  0.00  0.00    +0.054 A 
ATOM     43  N   UNL     1       7.756   4.945  18.287  0.00  0.00    -0.182 NA
ATOM     44  N   UNL     1       7.109   5.177  19.439  0.00  0.00    -0.284 N 
ATOM     45  C   UNL     1       5.753   5.200  19.302  0.00  0.00    +0.027 A 
ATOM     46  H   UNL     1       7.028   4.542  16.381  0.00  0.00    +0.085 HD
ATOM     47  H   UNL     1       7.657   5.311  20.283  0.00  0.00    +0.188 HD
ATOM     48  H   UNL     1       5.104   5.374  20.149  0.00  0.00    +0.083 HD
ENDBRANCH   8  41
TORSDOF 6
ENDMDL
MODEL 5
REMARK VINA RESULT:    -8.322      2.439      8.313
REMARK INTER + INTRA:         -10.377
REMARK INTER:                  -9.827
REMARK INTRA:                  -0.550
REMARK UNBOUND:                 0.621
REMARK  Name = 
REMARK  6 active torsions:
REMARK  status: ('A' for Active; 'I' for Inactive)
REMARK    1  A    between atoms: C_1  and  C_2
REMARK    2  A    between atoms: C_4  and  C_5
REMARK    3  A    between atoms: C_5  and  O_6
REMARK    4  A    between atoms: O_6  and  C_7
REMARK    5  A    between atoms: C_11  and  C_12
REMARK    6  A    between atoms: C_19  and  C_20
REMARK                            x       y       z     vdW  Elec       q    Type
REMARK                         _______ _______ _______ _____ _____    ______ ____
ROOT
ATOM      1  C   UNL     1       2.079   8.890  18.323  0.00  0.00    +0.247 C 
ATOM      2  O   UNL     1       2.461   9.721  17.501  0.00  0.00    -0.270 OA
ATOM      3  N   UNL     1       1.238   9.187  19.403  0.00  0.00    -0.290 N 
ATOM      4  C   UNL     1       1.276   8.425  20.654  0.00  0.00    +0.016 C 
ATOM      5  C   UNL     1      -0.036   8.521  21.420  0.00  0.00    -0.037 C 
ATOM      6  C   UNL     1      -0.476   9.962  21.674  0.00  0.00    -0.050 C 
ATOM      7  C   UNL     1       0.349  10.990  20.902  0.00  0.00    -0.030 C 
ATOM      8  C   UNL     1       0.703  10.552  19.471  0.00  0.00    +0.054 C 
ATOM      9  H   UNL     1       2.102   8.828  21.254  0.00  0.00    +0.046 HD
ATOM     10  H   UNL     1       1.514   7.373  20.478  0.00  0.00    +0.046 HD
ATOM     11  H   UNL     1      -0.820   8.000  20.856  0.00  0.00    +0.028 HD
ATOM     12  H   UNL     1       0.052   7.989  22.375  0.00  0.00    +0.028 HD
ATOM     13  H   UNL     1      -1.538  10.064  21.418  0.00  0.00    +0.027 HD
ATOM     14  H   UNL     1      -0.405  10.185  22.745  0.00  0.00    +0.027 HD
ATOM     15  H   UNL     1      -0.171  11.956  20.901  0.00  0.00    +0.029 HD
ATOM     16  H   UNL     1       1.287  11.149  21.452  0.00  0.00    +0.029 HD
ATOM     17  H   UNL     1       1.487  11.237  19.121  0.00  0.00    +0.055 HD
ENDROOT
BRANCH   1  22
ATOM     18  C   UNL     1       4.332   5.927  17.743  0.00  0.00    +0.122 A 
ATOM     19  C   UNL     1       3.404   4.882  17.746  0.00  0.00    -0.020 A 
ATOM     20  C   UNL     1       2.040   5.145  17.930  0.00  0.00    -0.058 A 
ATOM     21  C   UNL     1       1.599   6.452  18.124  0.00  0.00    -0.049 A 
ATOM     22  C   UNL     1       2.530   7.494  18.141  0.00  0.00    +0.040 A 
ATOM     23  C   UNL     1       3.886   7.238  17.928  0.00  0.00    -0.008 A 
ATOM     24  H   UNL     1       3.697   3.851  17.578  0.00  0.00    +0.065 HD
ATOM     25  H   UNL     1       1.324   4.328  17.905  0.00  0.00    +0.062 HD
ATOM     26  H   UNL     1       0.539   6.660  18.243  0.00  0.00    +0.063 HD
ATOM     27  H   UNL     1       4.595   8.062  17.900  0.00  0.00    +0.066 HD
BRANCH  18  28
ATOM     28  O   UNL     1       5.680   5.810  17.554  0.00  0.00    -0.484 OA
BRANCH  28  29
ATOM     29  C   UNL     1       6.201   4.558  17.081  0.00  0.00    +0.152 C 
ATOM     30  H   UNL     1       5.614   3.718  17.473  0.00  0.00    +0.078 HD
ATOM     31  H   UNL     1       7.195   4.461  17.535  0.00  0.00    +0.078 HD
BRANCH  29  34
ATOM     32  C   UNL     1       6.121   3.896  13.601  0.00  0.00    +0.224 A 
ATOM     33  N   UNL     1       5.604   3.666  14.786  0.00  0.00    -0.193 NA
ATOM     34  C   UNL     1       6.374   4.463  15.600  0.00  0.00    +0.209 A 
ATOM     35  N   UNL     1       7.329   5.157  14.959  0.00  0.00    -0.058 NA
ATOM     36  O   UNL     1       7.158   4.781  13.625  0.00  0.00    -0.338 OA
BRANCH  32  37
ATOM     37  C   UNL     1       5.743   3.350  12.287  0.00  0.00    +0.015 C 
ATOM     38  H   UNL     1       4.696   3.576  12.060  0.00  0.00    +0.032 HD
ATOM     39  H   UNL     1       6.366   3.785  11.499  0.00  0.00    +0.032 HD
ATOM     40  H   UNL     1       5.869   2.263  12.269  0.00  0.00    +0.032 HD
ENDBRANCH  32  37
ENDBRANCH  29  34
ENDBRANCH  28  29
ENDBRANCH  18  28
ENDBRANCH   1  22
BRANCH   8  41
ATOM     41  C   UNL     1      -0.462  10.675  18.526  0.00  0.00    +0.010 A 
ATOM     42  C   UNL     1      -1.154   9.665  17.817  0.00  0.00    +0.054 A 
ATOM     43  N   UNL     1      -2.147  10.143  17.062  0.00  0.00    -0.182 NA
ATOM     44  N   UNL     1      -2.076  11.469  17.253  0.00  0.00    -0.284 N 
ATOM     45  C   UNL     1      -1.102  11.835  18.134  0.00  0.00    +0.027 A 
ATOM     46  H   UNL     1      -0.977   8.599  17.819  0.00  0.00    +0.085 HD
ATOM     47  H   UNL     1      -2.724  12.066  16.750  0.00  0.00    +0.188 HD
ATOM     48  H   UNL     1      -0.929  12.873  18.382  0.00  0.00    +0.083 HD
ENDBRANCH   8  41
TORSDOF 6
ENDMDL
MODEL 6
REMARK VINA RESULT:    -8.284      2.759      4.234
REMARK INTER + INTRA:         -10.327
REMARK INTER:                 -10.342
REMARK INTRA:                   0.015
REMARK UNBOUND:                 0.621
REMARK  Name = 
REMARK  6 active torsions:
REMARK  status: ('A' for Active; 'I' for Inactive)
REMARK    1  A    between atoms: C_1  and  C_2
REMARK    2  A    between atoms: C_4  and  C_5
REMARK    3  A    between atoms: C_5  and  O_6
REMARK    4  A    between atoms: O_6  and  C_7
REMARK    5  A    between atoms: C_11  and  C_12
REMARK    6  A    between atoms: C_19  and  C_20
REMARK                            x       y       z     vdW  Elec       q    Type
REMARK                         _______ _______ _______ _____ _____    ______ ____
ROOT
ATOM      1  C   UNL     1       3.174   6.221  19.522  0.00  0.00    +0.247 C 
ATOM      2  O   UNL     1       3.012   5.641  20.594  0.00  0.00    -0.270 OA
ATOM      3  N   UNL     1       4.080   5.805  18.537  0.00  0.00    -0.290 N 
ATOM      4  C   UNL     1       4.706   6.747  17.605  0.00  0.00    +0.016 C 
ATOM      5  C   UNL     1       5.162   6.062  16.324  0.00  0.00    -0.037 C 
ATOM      6  C   UNL     1       6.073   4.862  16.579  0.00  0.00    -0.050 C 
ATOM      7  C   UNL     1       6.134   4.453  18.050  0.00  0.00    -0.030 C 
ATOM      8  C   UNL     1       4.780   4.537  18.773  0.00  0.00    +0.054 C 
ATOM      9  H   UNL     1       5.560   7.198  18.126  0.00  0.00    +0.046 HD
ATOM     10  H   UNL     1       4.034   7.571  17.353  0.00  0.00    +0.046 HD
ATOM     11  H   UNL     1       4.281   5.731  15.761  0.00  0.00    +0.028 HD
ATOM     12  H   UNL     1       5.677   6.785  15.680  0.00  0.00    +0.028 HD
ATOM     13  H   UNL     1       5.735   4.017  15.968  0.00  0.00    +0.027 HD
ATOM     14  H   UNL     1       7.089   5.091  16.234  0.00  0.00    +0.027 HD
ATOM     15  H   UNL     1       6.566   3.448  18.136  0.00  0.00    +0.029 HD
ATOM     16  H   UNL     1       6.836   5.130  18.558  0.00  0.00    +0.029 HD
ATOM     17  H   UNL     1       4.997   4.469  19.848  0.00  0.00    +0.055 HD
ENDROOT
BRANCH   1  22
ATOM     18  C   UNL     1       0.858   9.137  20.094  0.00  0.00    +0.122 A 
ATOM     19  C   UNL     1       0.748   9.647  18.797  0.00  0.00    -0.020 A 
ATOM     20  C   UNL     1       1.424   9.036  17.734  0.00  0.00    -0.058 A 
ATOM     21  C   UNL     1       2.224   7.917  17.963  0.00  0.00    -0.049 A 
ATOM     22  C   UNL     1       2.350   7.419  19.262  0.00  0.00    +0.040 A 
ATOM     23  C   UNL     1       1.652   8.009  20.319  0.00  0.00    -0.008 A 
ATOM     24  H   UNL     1       0.121  10.502  18.567  0.00  0.00    +0.065 HD
ATOM     25  H   UNL     1       1.311   9.425  16.726  0.00  0.00    +0.062 HD
ATOM     26  H   UNL     1       2.729   7.427  17.135  0.00  0.00    +0.063 HD
ATOM     27  H   UNL     1       1.724   7.586  21.319  0.00  0.00    +0.066 HD
BRANCH  18  28
ATOM     28  O   UNL     1       0.238   9.623  21.209  0.00  0.00    -0.484 OA
BRANCH  28  29
ATOM     29  C   UNL     1       0.222  11.043  21.422  0.00  0.00    +0.152 C 
ATOM     30  H   UNL     1       0.623  11.573  20.549  0.00  0.00    +0.078 HD
ATOM     31  H   UNL     1       0.936  11.228  22.234  0.00  0.00    +0.078 HD
BRANCH  29  34
ATOM     32  C   UNL     1      -2.728  12.164  23.034  0.00  0.00    +0.224 A 
ATOM     33  N   UNL     1      -1.552  11.590  23.146  0.00  0.00    -0.193 NA
ATOM     34  C   UNL     1      -1.095  11.604  21.849  0.00  0.00    +0.209 A 
ATOM     35  N   UNL     1      -1.943  12.156  20.965  0.00  0.00    -0.058 NA
ATOM     36  O   UNL     1      -3.031  12.532  21.756  0.00  0.00    -0.338 OA
BRANCH  32  37
ATOM     37  C   UNL     1      -3.734  12.461  24.068  0.00  0.00    +0.015 C 
ATOM     38  H   UNL     1      -4.685  11.974  23.833  0.00  0.00    +0.032 HD
ATOM     39  H   UNL     1      -3.396  12.100  25.044  0.00  0.00    +0.032 HD
ATOM     40  H   UNL     1      -3.909  13.539  24.137  0.00  0.00    +0.032 HD
ENDBRANCH  32  37
ENDBRANCH  29  34
ENDBRANCH  28  29
ENDBRANCH  18  28
ENDBRANCH   1  22
BRANCH   8  41
ATOM     41  C   UNL     1       3.867   3.393  18.421  0.00  0.00    +0.010 A 
ATOM     42  C   UNL     1       2.852   3.325  17.438  0.00  0.00    +0.054 A 
ATOM     43  N   UNL     1       2.235   2.140  17.405  0.00  0.00    -0.182 NA
ATOM     44  N   UNL     1       2.828   1.451  18.392  0.00  0.00    -0.284 N 
ATOM     45  C   UNL     1       3.822   2.147  19.014  0.00  0.00    +0.027 A 
ATOM     46  H   UNL     1       2.534   4.089  16.743  0.00  0.00    +0.085 HD
ATOM     47  H   UNL     1       2.503   0.510  18.587  0.00  0.00    +0.188 HD
ATOM     48  H   UNL     1       4.384   1.715  19.831  0.00  0.00    +0.083 HD
ENDBRANCH   8  41
TORSDOF 6
ENDMDL
MODEL 7
REMARK VINA RESULT:    -8.207      2.131      8.346
REMARK INTER + INTRA:         -10.225
REMARK INTER:                 -10.388
REMARK INTRA:                   0.163
REMARK UNBOUND:                 0.621
REMARK  Name = 
REMARK  6 active torsions:
REMARK  status: ('A' for Active; 'I' for Inactive)
REMARK    1  A    between atoms: C_1  and  C_2
REMARK    2  A    between atoms: C_4  and  C_5
REMARK    3  A    between atoms: C_5  and  O_6
REMARK    4  A    between atoms: O_6  and  C_7
REMARK    5  A    between atoms: C_11  and  C_12
REMARK    6  A    between atoms: C_19  and  C_20
REMARK                            x       y       z     vdW  Elec       q    Type
REMARK                         _______ _______ _______ _____ _____    ______ ____
ROOT
ATOM      1  C   UNL     1       1.632   9.285  19.053  0.00  0.00    +0.247 C 
ATOM      2  O   UNL     1       2.020   9.859  18.036  0.00  0.00    -0.270 OA
ATOM      3  N   UNL     1       0.864   9.897  20.052  0.00  0.00    -0.290 N 
ATOM      4  C   UNL     1       0.921   9.468  21.452  0.00  0.00    +0.016 C 
ATOM      5  C   UNL     1      -0.345   9.838  22.213  0.00  0.00    -0.037 C 
ATOM      6  C   UNL     1      -0.691  11.323  22.111  0.00  0.00    -0.050 C 
ATOM      7  C   UNL     1       0.152  12.070  21.079  0.00  0.00    -0.030 C 
ATOM      8  C   UNL     1       0.410  11.269  19.793  0.00  0.00    +0.054 C 
ATOM      9  H   UNL     1       1.797   9.952  21.902  0.00  0.00    +0.046 HD
ATOM     10  H   UNL     1       1.091   8.392  21.537  0.00  0.00    +0.046 HD
ATOM     11  H   UNL     1      -1.183   9.247  21.824  0.00  0.00    +0.028 HD
ATOM     12  H   UNL     1      -0.239   9.556  23.267  0.00  0.00    +0.028 HD
ATOM     13  H   UNL     1      -1.756  11.429  21.875  0.00  0.00    +0.027 HD
ATOM     14  H   UNL     1      -0.554  11.800  23.090  0.00  0.00    +0.027 HD
ATOM     15  H   UNL     1      -0.312  13.039  20.854  0.00  0.00    +0.029 HD
ATOM     16  H   UNL     1       1.124  12.298  21.540  0.00  0.00    +0.029 HD
ATOM     17  H   UNL     1       1.213  11.791  19.256  0.00  0.00    +0.055 HD
ENDROOT
BRANCH   1  22
ATOM     18  C   UNL     1       3.040   5.870  18.316  0.00  0.00    +0.122 A 
ATOM     19  C   UNL     1       2.650   5.169  19.460  0.00  0.00    -0.020 A 
ATOM     20  C   UNL     1       1.920   5.808  20.470  0.00  0.00    -0.058 A 
ATOM     21  C   UNL     1       1.587   7.156  20.347  0.00  0.00    -0.049 A 
ATOM     22  C   UNL     1       1.995   7.862  19.212  0.00  0.00    +0.040 A 
ATOM     23  C   UNL     1       2.697   7.218  18.190  0.00  0.00    -0.008 A 
ATOM     24  H   UNL     1       2.867   4.113  19.590  0.00  0.00    +0.065 HD
ATOM     25  H   UNL     1       1.599   5.247  21.343  0.00  0.00    +0.062 HD
ATOM     26  H   UNL     1       0.999   7.647  21.118  0.00  0.00    +0.063 HD
ATOM     27  H   UNL     1       2.971   7.767  17.292  0.00  0.00    +0.066 HD
BRANCH  18  28
ATOM     28  O   UNL     1       3.733   5.361  17.253  0.00  0.00    -0.484 OA
BRANCH  28  29
ATOM     29  C   UNL     1       4.993   4.718  17.499  0.00  0.00    +0.152 C 
ATOM     30  H   UNL     1       5.241   4.023  16.687  0.00  0.00    +0.078 HD
ATOM     31  H   UNL     1       4.837   4.092  18.386  0.00  0.00    +0.078 HD
BRANCH  29  34
ATOM     32  C   UNL     1       7.370   7.327  17.808  0.00  0.00    +0.224 A 
ATOM     33  N   UNL     1       6.231   6.919  17.298  0.00  0.00    -0.193 NA
ATOM     34  C   UNL     1       6.128   5.642  17.798  0.00  0.00    +0.209 A 
ATOM     35  N   UNL     1       7.152   5.266  18.580  0.00  0.00    -0.058 NA
ATOM     36  O   UNL     1       7.979   6.391  18.590  0.00  0.00    -0.338 OA
BRANCH  32  37
ATOM     37  C   UNL     1       8.057   8.621  17.661  0.00  0.00    +0.015 C 
ATOM     38  H   UNL     1       7.365   9.450  17.842  0.00  0.00    +0.032 HD
ATOM     39  H   UNL     1       8.881   8.700  18.378  0.00  0.00    +0.032 HD
ATOM     40  H   UNL     1       8.464   8.730  16.651  0.00  0.00    +0.032 HD
ENDBRANCH  32  37
ENDBRANCH  29  34
ENDBRANCH  28  29
ENDBRANCH  18  28
ENDBRANCH   1  22
BRANCH   8  41
ATOM     41  C   UNL     1      -0.791  11.230  18.887  0.00  0.00    +0.010 A 
ATOM     42  C   UNL     1      -1.619  10.137  18.539  0.00  0.00    +0.054 A 
ATOM     43  N   UNL     1      -2.604  10.473  17.701  0.00  0.00    -0.182 NA
ATOM     44  N   UNL     1      -2.393  11.779  17.477  0.00  0.00    -0.284 N 
ATOM     45  C   UNL     1      -1.337  12.283  18.177  0.00  0.00    +0.027 A 
ATOM     46  H   UNL     1      -1.547   9.108  18.861  0.00  0.00    +0.085 HD
ATOM     47  H   UNL     1      -3.008  12.265  16.833  0.00  0.00    +0.188 HD
ATOM     48  H   UNL     1      -1.049  13.321  18.092  0.00  0.00    +0.083 HD
ENDBRANCH   8  41
TORSDOF 6
ENDMDL
MODEL 8
REMARK VINA RESULT:    -8.168      2.787      3.592
REMARK INTER + INTRA:         -10.173
REMARK INTER:                  -9.989
REMARK INTRA:                  -0.184
REMARK UNBOUND:                 0.621
REMARK  Name = 
REMARK  6 active torsions:
REMARK  status: ('A' for Active; 'I' for Inactive)
REMARK    1  A    between atoms: C_1  and  C_2
REMARK    2  A    between atoms: C_4  and  C_5
REMARK    3  A    between atoms: C_5  and  O_6
REMARK    4  A    between atoms: O_6  and  C_7
REMARK    5  A    between atoms: C_11  and  C_12
REMARK    6  A    between atoms: C_19  and  C_20
REMARK                            x       y       z     vdW  Elec       q    Type
REMARK                         _______ _______ _______ _____ _____    ______ ____
ROOT
ATOM      1  C   UNL     1       3.508   6.918  17.512  0.00  0.00    +0.247 C 
ATOM      2  O   UNL     1       4.305   7.409  16.714  0.00  0.00    -0.270 OA
ATOM      3  N   UNL     1       3.469   5.557  17.842  0.00  0.00    -0.290 N 
ATOM      4  C   UNL     1       2.233   4.891  18.262  0.00  0.00    +0.016 C 
ATOM      5  C   UNL     1       2.511   3.644  19.090  0.00  0.00    -0.037 C 
ATOM      6  C   UNL     1       3.450   2.660  18.393  0.00  0.00    -0.050 C 
ATOM      7  C   UNL     1       4.102   3.236  17.137  0.00  0.00    -0.030 C 
ATOM      8  C   UNL     1       4.525   4.707  17.277  0.00  0.00    +0.054 C 
ATOM      9  H   UNL     1       1.679   4.632  17.350  0.00  0.00    +0.046 HD
ATOM     10  H   UNL     1       1.586   5.564  18.830  0.00  0.00    +0.046 HD
ATOM     11  H   UNL     1       2.951   3.941  20.050  0.00  0.00    +0.028 HD
ATOM     12  H   UNL     1       1.567   3.143  19.334  0.00  0.00    +0.028 HD
ATOM     13  H   UNL     1       4.221   2.334  19.102  0.00  0.00    +0.027 HD
ATOM     14  H   UNL     1       2.895   1.754  18.119  0.00  0.00    +0.027 HD
ATOM     15  H   UNL     1       4.953   2.608  16.842  0.00  0.00    +0.029 HD
ATOM     16  H   UNL     1       3.374   3.166  16.318  0.00  0.00    +0.029 HD
ATOM     17  H   UNL     1       4.738   5.068  16.262  0.00  0.00    +0.055 HD
ENDROOT
BRANCH   1  22
ATOM     18  C   UNL     1       1.336   8.500  20.152  0.00  0.00    +0.122 A 
ATOM     19  C   UNL     1       0.705   9.503  19.411  0.00  0.00    -0.020 A 
ATOM     20  C   UNL     1       0.982   9.659  18.047  0.00  0.00    -0.058 A 
ATOM     21  C   UNL     1       1.901   8.820  17.419  0.00  0.00    -0.049 A 
ATOM     22  C   UNL     1       2.547   7.831  18.165  0.00  0.00    +0.040 A 
ATOM     23  C   UNL     1       2.249   7.654  19.518  0.00  0.00    -0.008 A 
ATOM     24  H   UNL     1      -0.034  10.166  19.851  0.00  0.00    +0.065 HD
ATOM     25  H   UNL     1       0.467  10.425  17.474  0.00  0.00    +0.062 HD
ATOM     26  H   UNL     1       2.099   8.925  16.356  0.00  0.00    +0.063 HD
ATOM     27  H   UNL     1       2.726   6.853  20.078  0.00  0.00    +0.066 HD
BRANCH  18  28
ATOM     28  O   UNL     1       1.139   8.229  21.477  0.00  0.00    -0.484 OA
BRANCH  28  29
ATOM     29  C   UNL     1       1.329   9.286  22.430  0.00  0.00    +0.152 C 
ATOM     30  H   UNL     1       2.230   9.868  22.194  0.00  0.00    +0.078 HD
ATOM     31  H   UNL     1       1.540   8.789  23.384  0.00  0.00    +0.078 HD
BRANCH  29  34
ATOM     32  C   UNL     1      -1.146  11.818  22.563  0.00  0.00    +0.224 A 
ATOM     33  N   UNL     1       0.025  11.434  22.109  0.00  0.00    -0.193 NA
ATOM     34  C   UNL     1       0.144  10.170  22.639  0.00  0.00    +0.209 A 
ATOM     35  N   UNL     1      -0.899   9.781  23.390  0.00  0.00    -0.058 NA
ATOM     36  O   UNL     1      -1.761  10.879  23.338  0.00  0.00    -0.338 OA
BRANCH  32  37
ATOM     37  C   UNL     1      -1.869  13.084  22.353  0.00  0.00    +0.015 C 
ATOM     38  H   UNL     1      -2.587  13.257  23.160  0.00  0.00    +0.032 HD
ATOM     39  H   UNL     1      -1.169  13.925  22.332  0.00  0.00    +0.032 HD
ATOM     40  H   UNL     1      -2.416  13.063  21.406  0.00  0.00    +0.032 HD
ENDBRANCH  32  37
ENDBRANCH  29  34
ENDBRANCH  28  29
ENDBRANCH  18  28
ENDBRANCH   1  22
BRANCH   8  41
ATOM     41  C   UNL     1       5.781   4.872  18.090  0.00  0.00    +0.010 A 
ATOM     42  C   UNL     1       7.131   4.717  17.698  0.00  0.00    +0.054 A 
ATOM     43  N   UNL     1       7.994   4.943  18.692  0.00  0.00    -0.182 NA
ATOM     44  N   UNL     1       7.200   5.210  19.740  0.00  0.00    -0.284 N 
ATOM     45  C   UNL     1       5.873   5.201  19.428  0.00  0.00    +0.027 A 
ATOM     46  H   UNL     1       7.525   4.448  16.727  0.00  0.00    +0.085 HD
ATOM     47  H   UNL     1       7.632   5.390  20.641  0.00  0.00    +0.188 HD
ATOM     48  H   UNL     1       5.118   5.397  20.177  0.00  0.00    +0.083 HD
ENDBRANCH   8  41
TORSDOF 6
ENDMDL
MODEL 9
REMARK VINA RESULT:    -8.079      2.369      8.412
REMARK INTER + INTRA:         -10.057
REMARK INTER:                 -10.320
REMARK INTRA:                   0.263
REMARK UNBOUND:                 0.621
REMARK  Name = 
REMARK  6 active torsions:
REMARK  status: ('A' for Active; 'I' for Inactive)
REMARK    1  A    between atoms: C_1  and  C_2
REMARK    2  A    between atoms: C_4  and  C_5
REMARK    3  A    between atoms: C_5  and  O_6
REMARK    4  A    between atoms: O_6  and  C_7
REMARK    5  A    between atoms: C_11  and  C_12
REMARK    6  A    between atoms: C_19  and  C_20
REMARK                            x       y       z     vdW  Elec       q    Type
REMARK                         _______ _______ _______ _____ _____    ______ ____
ROOT
ATOM      1  C   UNL     1       1.603   9.394  19.193  0.00  0.00    +0.247 C 
ATOM      2  O   UNL     1       2.023   9.978  18.194  0.00  0.00    -0.270 OA
ATOM      3  N   UNL     1       0.833  10.005  20.191  0.00  0.00    -0.290 N 
ATOM      4  C   UNL     1       0.855   9.547  21.583  0.00  0.00    +0.016 C 
ATOM      5  C   UNL     1      -0.413   9.935  22.330  0.00  0.00    -0.037 C 
ATOM      6  C   UNL     1      -0.719  11.431  22.253  0.00  0.00    -0.050 C 
ATOM      7  C   UNL     1       0.161  12.175  21.251  0.00  0.00    -0.030 C 
ATOM      8  C   UNL     1       0.420  11.394  19.952  0.00  0.00    +0.054 C 
ATOM      9  H   UNL     1       1.735   9.999  22.058  0.00  0.00    +0.046 HD
ATOM     10  H   UNL     1       0.996   8.466  21.649  0.00  0.00    +0.046 HD
ATOM     11  H   UNL     1      -1.260   9.374  21.915  0.00  0.00    +0.028 HD
ATOM     12  H   UNL     1      -0.334   9.629  23.380  0.00  0.00    +0.028 HD
ATOM     13  H   UNL     1      -1.777  11.569  22.001  0.00  0.00    +0.027 HD
ATOM     14  H   UNL     1      -0.587  11.884  23.243  0.00  0.00    +0.027 HD
ATOM     15  H   UNL     1      -0.275  13.160  21.037  0.00  0.00    +0.029 HD
ATOM     16  H   UNL     1       1.129  12.369  21.732  0.00  0.00    +0.029 HD
ATOM     17  H   UNL     1       1.245  11.906  19.440  0.00  0.00    +0.055 HD
ENDROOT
BRANCH   1  22
ATOM     18  C   UNL     1       2.929   5.957  18.407  0.00  0.00    +0.122 A 
ATOM     19  C   UNL     1       2.506   5.245  19.533  0.00  0.00    -0.020 A 
ATOM     20  C   UNL     1       1.781   5.884  20.546  0.00  0.00    -0.058 A 
ATOM     21  C   UNL     1       1.485   7.243  20.445  0.00  0.00    -0.049 A 
ATOM     22  C   UNL     1       1.926   7.959  19.329  0.00  0.00    +0.040 A 
ATOM     23  C   UNL     1       2.623   7.316  18.303  0.00  0.00    -0.008 A 
ATOM     24  H   UNL     1       2.694   4.182  19.646  0.00  0.00    +0.065 HD
ATOM     25  H   UNL     1       1.435   5.316  21.405  0.00  0.00    +0.062 HD
ATOM     26  H   UNL     1       0.902   7.734  21.219  0.00  0.00    +0.063 HD
ATOM     27  H   UNL     1       2.922   7.874  17.419  0.00  0.00    +0.066 HD
BRANCH  18  28
ATOM     28  O   UNL     1       3.620   5.450  17.343  0.00  0.00    -0.484 OA
BRANCH  28  29
ATOM     29  C   UNL     1       5.049   5.347  17.438  0.00  0.00    +0.152 C 
ATOM     30  H   UNL     1       5.339   4.690  18.268  0.00  0.00    +0.078 HD
ATOM     31  H   UNL     1       5.400   6.348  17.719  0.00  0.00    +0.078 HD
BRANCH  29  34
ATOM     32  C   UNL     1       6.114   4.189  14.264  0.00  0.00    +0.224 A 
ATOM     33  N   UNL     1       5.133   4.313  15.128  0.00  0.00    -0.193 NA
ATOM     34  C   UNL     1       5.743   4.970  16.170  0.00  0.00    +0.209 A 
ATOM     35  N   UNL     1       7.043   5.243  15.973  0.00  0.00    -0.058 NA
ATOM     36  O   UNL     1       7.290   4.725  14.700  0.00  0.00    -0.338 OA
BRANCH  32  37
ATOM     37  C   UNL     1       6.119   3.574  12.926  0.00  0.00    +0.015 C 
ATOM     38  H   UNL     1       5.385   4.059  12.274  0.00  0.00    +0.032 HD
ATOM     39  H   UNL     1       7.106   3.673  12.463  0.00  0.00    +0.032 HD
ATOM     40  H   UNL     1       5.870   2.510  12.989  0.00  0.00    +0.032 HD
ENDBRANCH  32  37
ENDBRANCH  29  34
ENDBRANCH  28  29
ENDBRANCH  18  28
ENDBRANCH   1  22
BRANCH   8  41
ATOM     41  C   UNL     1      -0.766  11.405  19.026  0.00  0.00    +0.010 A 
ATOM     42  C   UNL     1      -1.755  10.414  18.821  0.00  0.00    +0.054 A 
ATOM     43  N   UNL     1      -2.669  10.767  17.912  0.00  0.00    -0.182 NA
ATOM     44  N   UNL     1      -2.251  11.974  17.501  0.00  0.00    -0.284 N 
ATOM     45  C   UNL     1      -1.133  12.408  18.150  0.00  0.00    +0.027 A 
ATOM     46  H   UNL     1      -1.849   9.447  19.295  0.00  0.00    +0.085 HD
ATOM     47  H   UNL     1      -2.777  12.446  16.773  0.00  0.00    +0.188 HD
ATOM     48  H   UNL     1      -0.684  13.364  17.919  0.00  0.00    +0.083 HD
ENDBRANCH   8  41
TORSDOF 6
ENDMDL
MODEL 10
REMARK VINA RESULT:    -8.023      2.751      8.519
REMARK INTER + INTRA:          -9.981
REMARK INTER:                  -9.340
REMARK INTRA:                  -0.642
REMARK UNBOUND:                 0.621
REMARK  Name = 
REMARK  6 active torsions:
REMARK  status: ('A' for Active; 'I' for Inactive)
REMARK    1  A    between atoms: C_1  and  C_2
REMARK    2  A    between atoms: C_4  and  C_5
REMARK    3  A    between atoms: C_5  and  O_6
REMARK    4  A    between atoms: O_6  and  C_7
REMARK    5  A    between atoms: C_11  and  C_12
REMARK    6  A    between atoms: C_19  and  C_20
REMARK                            x       y       z     vdW  Elec       q    Type
REMARK                         _______ _______ _______ _____ _____    ______ ____
ROOT
ATOM      1  C   UNL     1       0.190  10.278  19.914  0.00  0.00    +0.247 C 
ATOM      2  O   UNL     1       0.441  10.713  21.036  0.00  0.00    -0.270 OA
ATOM      3  N   UNL     1      -0.905  10.688  19.142  0.00  0.00    -0.290 N 
ATOM      4  C   UNL     1      -1.541   9.806  18.159  0.00  0.00    +0.016 C 
ATOM      5  C   UNL     1      -2.278  10.592  17.083  0.00  0.00    -0.037 C 
ATOM      6  C   UNL     1      -3.287  11.588  17.654  0.00  0.00    -0.050 C 
ATOM      7  C   UNL     1      -3.170  11.764  19.167  0.00  0.00    -0.030 C 
ATOM      8  C   UNL     1      -1.720  11.786  19.678  0.00  0.00    +0.054 C 
ATOM      9  H   UNL     1      -2.237   9.159  18.708  0.00  0.00    +0.046 HD
ATOM     10  H   UNL     1      -0.815   9.141  17.686  0.00  0.00    +0.046 HD
ATOM     11  H   UNL     1      -1.547  11.133  16.470  0.00  0.00    +0.028 HD
ATOM     12  H   UNL     1      -2.789   9.899  16.403  0.00  0.00    +0.028 HD
ATOM     13  H   UNL     1      -3.161  12.555  17.152  0.00  0.00    +0.027 HD
ATOM     14  H   UNL     1      -4.305  11.258  17.415  0.00  0.00    +0.027 HD
ATOM     15  H   UNL     1      -3.710  12.668  19.476  0.00  0.00    +0.029 HD
ATOM     16  H   UNL     1      -3.688  10.921  19.645  0.00  0.00    +0.029 HD
ATOM     17  H   UNL     1      -1.772  11.662  20.768  0.00  0.00    +0.055 HD
ENDROOT
BRANCH   1  22
ATOM     18  C   UNL     1       2.319   7.186  19.600  0.00  0.00    +0.122 A 
ATOM     19  C   UNL     1       2.888   7.381  18.339  0.00  0.00    -0.020 A 
ATOM     20  C   UNL     1       2.583   8.527  17.592  0.00  0.00    -0.058 A 
ATOM     21  C   UNL     1       1.698   9.477  18.098  0.00  0.00    -0.049 A 
ATOM     22  C   UNL     1       1.113   9.271  19.351  0.00  0.00    +0.040 A 
ATOM     23  C   UNL     1       1.439   8.144  20.109  0.00  0.00    -0.008 A 
ATOM     24  H   UNL     1       3.599   6.680  17.913  0.00  0.00    +0.065 HD
ATOM     25  H   UNL     1       3.051   8.682  16.624  0.00  0.00    +0.062 HD
ATOM     26  H   UNL     1       1.479  10.378  17.531  0.00  0.00    +0.063 HD
ATOM     27  H   UNL     1       1.011   8.016  21.101  0.00  0.00    +0.066 HD
BRANCH  18  28
ATOM     28  O   UNL     1       2.548   6.129  20.435  0.00  0.00    -0.484 OA
BRANCH  28  29
ATOM     29  C   UNL     1       1.519   5.139  20.588  0.00  0.00    +0.152 C 
ATOM     30  H   UNL     1       0.541   5.545  20.300  0.00  0.00    +0.078 HD
ATOM     31  H   UNL     1       1.453   4.945  21.665  0.00  0.00    +0.078 HD
BRANCH  29  34
ATOM     32  C   UNL     1       2.759   2.300  18.868  0.00  0.00    +0.224 A 
ATOM     33  N   UNL     1       2.992   3.508  19.327  0.00  0.00    -0.193 NA
ATOM     34  C   UNL     1       1.792   3.833  19.916  0.00  0.00    +0.209 A 
ATOM     35  N   UNL     1       0.852   2.878  19.828  0.00  0.00    -0.058 NA
ATOM     36  O   UNL     1       1.498   1.854  19.132  0.00  0.00    -0.338 OA
BRANCH  32  37
ATOM     37  C   UNL     1       3.648   1.384  18.133  0.00  0.00    +0.015 C 
ATOM     38  H   UNL     1       4.666   1.427  18.535  0.00  0.00    +0.032 HD
ATOM     39  H   UNL     1       3.290   0.354  18.219  0.00  0.00    +0.032 HD
ATOM     40  H   UNL     1       3.688   1.652  17.073  0.00  0.00    +0.032 HD
ENDBRANCH  32  37
ENDBRANCH  29  34
ENDBRANCH  28  29
ENDBRANCH  18  28
ENDBRANCH   1  22
BRANCH   8  41
ATOM     41  C   UNL     1      -1.030  13.094  19.402  0.00  0.00    +0.010 A 
ATOM     42  C   UNL     1      -1.052  14.296  20.148  0.00  0.00    +0.054 A 
ATOM     43  N   UNL     1      -0.316  15.267  19.598  0.00  0.00    -0.182 NA
ATOM     44  N   UNL     1       0.155  14.704  18.475  0.00  0.00    -0.284 N 
ATOM     45  C   UNL     1      -0.225  13.403  18.323  0.00  0.00    +0.027 A 
ATOM     46  H   UNL     1      -1.574  14.508  21.071  0.00  0.00    +0.085 HD
ATOM     47  H   UNL     1       0.730  15.267  17.857  0.00  0.00    +0.188 HD
ATOM     48  H   UNL     1       0.080  12.826  17.461  0.00  0.00    +0.083 HD
ENDBRANCH   8  41
TORSDOF 6
ENDMDL
MODEL 11
REMARK VINA RESULT:    -7.840      3.002      4.406
REMARK INTER + INTRA:          -9.740
REMARK INTER:                  -9.590
REMARK INTRA:                  -0.150
REMARK UNBOUND:                 0.621
REMARK  Name = 
REMARK  6 active torsions:
REMARK  status: ('A' for Active; 'I' for Inactive)
REMARK    1  A    between atoms: C_1  and  C_2
REMARK    2  A    between atoms: C_4  and  C_5
REMARK    3  A    between atoms: C_5  and  O_6
REMARK    4  A    between atoms: O_6  and  C_7
REMARK    5  A    between atoms: C_11  and  C_12
REMARK    6  A    between atoms: C_19  and  C_20
REMARK                            x       y       z     vdW  Elec       q    Type
REMARK                         _______ _______ _______ _____ _____    ______ ____
ROOT
ATOM      1  C   UNL     1       3.157   6.211  19.538  0.00  0.00    +0.247 C 
ATOM      2  O   UNL     1       2.947   5.619  20.595  0.00  0.00    -0.270 OA
ATOM      3  N   UNL     1       4.103   5.806  18.588  0.00  0.00    -0.290 N 
ATOM      4  C   UNL     1       4.770   6.758  17.696  0.00  0.00    +0.016 C 
ATOM      5  C   UNL     1       5.280   6.088  16.427  0.00  0.00    -0.037 C 
ATOM      6  C   UNL     1       6.177   4.883  16.706  0.00  0.00    -0.050 C 
ATOM      7  C   UNL     1       6.174   4.456  18.173  0.00  0.00    -0.030 C 
ATOM      8  C   UNL     1       4.791   4.533  18.838  0.00  0.00    +0.054 C 
ATOM      9  H   UNL     1       5.602   7.200  18.258  0.00  0.00    +0.046 HD
ATOM     10  H   UNL     1       4.110   7.587  17.426  0.00  0.00    +0.046 HD
ATOM     11  H   UNL     1       4.423   5.765  15.822  0.00  0.00    +0.028 HD
ATOM     12  H   UNL     1       5.823   6.818  15.815  0.00  0.00    +0.028 HD
ATOM     13  H   UNL     1       5.864   4.046  16.070  0.00  0.00    +0.027 HD
ATOM     14  H   UNL     1       7.207   5.114  16.408  0.00  0.00    +0.027 HD
ATOM     15  H   UNL     1       6.600   3.449  18.265  0.00  0.00    +0.029 HD
ATOM     16  H   UNL     1       6.854   5.125  18.719  0.00  0.00    +0.029 HD
ATOM     17  H   UNL     1       4.961   4.452  19.921  0.00  0.00    +0.055 HD
ENDROOT
BRANCH   1  22
ATOM     18  C   UNL     1       0.919   9.195  20.070  0.00  0.00    +0.122 A 
ATOM     19  C   UNL     1       0.770   9.653  18.758  0.00  0.00    -0.020 A 
ATOM     20  C   UNL     1       1.395   8.985  17.698  0.00  0.00    -0.058 A 
ATOM     21  C   UNL     1       2.181   7.860  17.944  0.00  0.00    -0.049 A 
ATOM     22  C   UNL     1       2.345   7.415  19.259  0.00  0.00    +0.040 A 
ATOM     23  C   UNL     1       1.699   8.062  20.314  0.00  0.00    -0.008 A 
ATOM     24  H   UNL     1       0.151  10.511  18.515  0.00  0.00    +0.065 HD
ATOM     25  H   UNL     1       1.252   9.334  16.679  0.00  0.00    +0.062 HD
ATOM     26  H   UNL     1       2.646   7.327  17.120  0.00  0.00    +0.063 HD
ATOM     27  H   UNL     1       1.800   7.679  21.327  0.00  0.00    +0.066 HD
BRANCH  18  28
ATOM     28  O   UNL     1       0.349   9.739  21.186  0.00  0.00    -0.484 OA
BRANCH  28  29
ATOM     29  C   UNL     1      -0.584  10.819  21.024  0.00  0.00    +0.152 C 
ATOM     30  H   UNL     1      -1.531  10.597  21.533  0.00  0.00    +0.078 HD
ATOM     31  H   UNL     1      -0.823  10.845  19.954  0.00  0.00    +0.078 HD
BRANCH  29  34
ATOM     32  C   UNL     1       1.130  13.888  21.475  0.00  0.00    +0.224 A 
ATOM     33  N   UNL     1       1.055  12.741  20.838  0.00  0.00    -0.193 NA
ATOM     34  C   UNL     1      -0.062  12.168  21.398  0.00  0.00    +0.209 A 
ATOM     35  N   UNL     1      -0.658  12.914  22.342  0.00  0.00    -0.058 NA
ATOM     36  O   UNL     1       0.135  14.063  22.391  0.00  0.00    -0.338 OA
BRANCH  32  37
ATOM     37  C   UNL     1       2.106  14.981  21.336  0.00  0.00    +0.015 C 
ATOM     38  H   UNL     1       2.131  15.594  22.243  0.00  0.00    +0.032 HD
ATOM     39  H   UNL     1       3.110  14.577  21.169  0.00  0.00    +0.032 HD
ATOM     40  H   UNL     1       1.846  15.627  20.493  0.00  0.00    +0.032 HD
ENDBRANCH  32  37
ENDBRANCH  29  34
ENDBRANCH  28  29
ENDBRANCH  18  28
ENDBRANCH   1  22
BRANCH   8  41
ATOM     41  C   UNL     1       3.892   3.396  18.433  0.00  0.00    +0.010 A 
ATOM     42  C   UNL     1       2.932   3.336  17.396  0.00  0.00    +0.054 A 
ATOM     43  N   UNL     1       2.311   2.155  17.325  0.00  0.00    -0.182 NA
ATOM     44  N   UNL     1       2.845   1.460  18.341  0.00  0.00    -0.284 N 
ATOM     45  C   UNL     1       3.807   2.148  19.019  0.00  0.00    +0.027 A 
ATOM     46  H   UNL     1       2.656   4.104  16.687  0.00  0.00    +0.085 HD
ATOM     47  H   UNL     1       2.505   0.520  18.515  0.00  0.00    +0.188 HD
ATOM     48  H   UNL     1       4.321   1.711  19.864  0.00  0.00    +0.083 HD
ENDBRANCH   8  41
TORSDOF 6
ENDMDL
MODEL 12
REMARK VINA RESULT:    -7.676      4.648      7.751
REMARK INTER + INTRA:          -9.524
REMARK INTER:                  -9.074
REMARK INTRA:                  -0.449
REMARK UNBOUND:                 0.621
REMARK  Name = 
REMARK  6 active torsions:
REMARK  status: ('A' for Active; 'I' for Inactive)
REMARK    1  A    between atoms: C_1  and  C_2
REMARK    2  A    between atoms: C_4  and  C_5
REMARK    3  A    between atoms: C_5  and  O_6
REMARK    4  A    between atoms: O_6  and  C_7
REMARK    5  A    between atoms: C_11  and  C_12
REMARK    6  A    between atoms: C_19  and  C_20
REMARK                            x       y       z     vdW  Elec       q    Type
REMARK                         _______ _______ _______ _____ _____    ______ ____
ROOT
ATOM      1  C   UNL     1       3.264   3.780  17.366  0.00  0.00    +0.247 C 
ATOM      2  O   UNL     1       2.640   2.750  17.111  0.00  0.00    -0.270 OA
ATOM      3  N   UNL     1       2.851   4.733  18.306  0.00  0.00    -0.290 N 
ATOM      4  C   UNL     1       3.202   6.150  18.186  0.00  0.00    +0.016 C 
ATOM      5  C   UNL     1       3.162   6.863  19.531  0.00  0.00    -0.037 C 
ATOM      6  C   UNL     1       1.830   6.692  20.259  0.00  0.00    -0.050 C 
ATOM      7  C   UNL     1       0.917   5.652  19.612  0.00  0.00    -0.030 C 
ATOM      8  C   UNL     1       1.661   4.406  19.103  0.00  0.00    +0.054 C 
ATOM      9  H   UNL     1       2.485   6.603  17.489  0.00  0.00    +0.046 HD
ATOM     10  H   UNL     1       4.189   6.284  17.736  0.00  0.00    +0.046 HD
ATOM     11  H   UNL     1       3.970   6.477  20.165  0.00  0.00    +0.028 HD
ATOM     12  H   UNL     1       3.372   7.930  19.391  0.00  0.00    +0.028 HD
ATOM     13  H   UNL     1       2.023   6.423  21.305  0.00  0.00    +0.027 HD
ATOM     14  H   UNL     1       1.302   7.653  20.291  0.00  0.00    +0.027 HD
ATOM     15  H   UNL     1       0.118   5.375  20.311  0.00  0.00    +0.029 HD
ATOM     16  H   UNL     1       0.421   6.128  18.755  0.00  0.00    +0.029 HD
ATOM     17  H   UNL     1       0.959   3.869  18.450  0.00  0.00    +0.055 HD
ENDROOT
BRANCH   1  22
ATOM     18  C   UNL     1       6.907   4.466  16.699  0.00  0.00    +0.122 A 
ATOM     19  C   UNL     1       6.923   4.486  15.302  0.00  0.00    -0.020 A 
ATOM     20  C   UNL     1       5.742   4.283  14.576  0.00  0.00    -0.058 A 
ATOM     21  C   UNL     1       4.541   4.046  15.243  0.00  0.00    -0.049 A 
ATOM     22  C   UNL     1       4.531   4.006  16.640  0.00  0.00    +0.040 A 
ATOM     23  C   UNL     1       5.701   4.239  17.366  0.00  0.00    -0.008 A 
ATOM     24  H   UNL     1       7.828   4.687  14.739  0.00  0.00    +0.065 HD
ATOM     25  H   UNL     1       5.760   4.326  13.490  0.00  0.00    +0.062 HD
ATOM     26  H   UNL     1       3.621   3.913  14.682  0.00  0.00    +0.063 HD
ATOM     27  H   UNL     1       5.671   4.248  18.453  0.00  0.00    +0.066 HD
BRANCH  18  28
ATOM     28  O   UNL     1       7.979   4.670  17.522  0.00  0.00    -0.484 OA
BRANCH  28  29
ATOM     29  C   UNL     1       7.826   5.557  18.641  0.00  0.00    +0.152 C 
ATOM     30  H   UNL     1       8.532   5.300  19.441  0.00  0.00    +0.078 HD
ATOM     31  H   UNL     1       6.830   5.350  19.049  0.00  0.00    +0.078 HD
BRANCH  29  34
ATOM     32  C   UNL     1       8.421   9.034  18.311  0.00  0.00    +0.224 A 
ATOM     33  N   UNL     1       8.744   7.904  18.896  0.00  0.00    -0.193 NA
ATOM     34  C   UNL     1       7.879   7.012  18.307  0.00  0.00    +0.209 A 
ATOM     35  N   UNL     1       7.052   7.555  17.399  0.00  0.00    -0.058 NA
ATOM     36  O   UNL     1       7.415   8.903  17.399  0.00  0.00    -0.338 OA
BRANCH  32  37
ATOM     37  C   UNL     1       8.982  10.383  18.493  0.00  0.00    +0.015 C 
ATOM     38  H   UNL     1       8.991  10.659  19.552  0.00  0.00    +0.032 HD
ATOM     39  H   UNL     1      10.010  10.423  18.120  0.00  0.00    +0.032 HD
ATOM     40  H   UNL     1       8.387  11.125  17.952  0.00  0.00    +0.032 HD
ENDBRANCH  32  37
ENDBRANCH  29  34
ENDBRANCH  28  29
ENDBRANCH  18  28
ENDBRANCH   1  22
BRANCH   8  41
ATOM     41  C   UNL     1       2.051   3.472  20.216  0.00  0.00    +0.010 A 
ATOM     42  C   UNL     1       3.308   2.888  20.499  0.00  0.00    +0.054 A 
ATOM     43  N   UNL     1       3.288   2.101  21.579  0.00  0.00    -0.182 NA
ATOM     44  N   UNL     1       2.008   2.147  21.975  0.00  0.00    -0.284 N 
ATOM     45  C   UNL     1       1.234   2.967  21.209  0.00  0.00    +0.027 A 
ATOM     46  H   UNL     1       4.240   3.002  19.964  0.00  0.00    +0.085 HD
ATOM     47  H   UNL     1       1.730   1.593  22.779  0.00  0.00    +0.188 HD
ATOM     48  H   UNL     1       0.180   3.098  21.412  0.00  0.00    +0.083 HD
ENDBRANCH   8  41
TORSDOF 6
ENDMDL
MODEL 13
REMARK VINA RESULT:    -7.662      2.059      3.397
REMARK INTER + INTRA:          -9.505
REMARK INTER:                  -9.731
REMARK INTRA:                   0.226
REMARK UNBOUND:                 0.621
REMARK  Name = 
REMARK  6 active torsions:
REMARK  status: ('A' for Active; 'I' for Inactive)
REMARK    1  A    between atoms: C_1  and  C_2
REMARK    2  A    between atoms: C_4  and  C_5
REMARK    3  A    between atoms: C_5  and  O_6
REMARK    4  A    between atoms: O_6  and  C_7
REMARK    5  A    between atoms: C_11  and  C_12
REMARK    6  A    between atoms: C_19  and  C_20
REMARK                            x       y       z     vdW  Elec       q    Type
REMARK                         _______ _______ _______ _____ _____    ______ ____
ROOT
ATOM      1  C   UNL     1       2.426   6.562  19.893  0.00  0.00    +0.247 C 
ATOM      2  O   UNL     1       1.997   6.181  20.981  0.00  0.00    -0.270 OA
ATOM      3  N   UNL     1       3.296   5.814  19.090  0.00  0.00    -0.290 N 
ATOM      4  C   UNL     1       4.249   6.446  18.173  0.00  0.00    +0.016 C 
ATOM      5  C   UNL     1       4.652   5.513  17.039  0.00  0.00    -0.037 C 
ATOM      6  C   UNL     1       5.182   4.167  17.532  0.00  0.00    -0.050 C 
ATOM      7  C   UNL     1       4.967   3.945  19.028  0.00  0.00    -0.030 C 
ATOM      8  C   UNL     1       3.609   4.452  19.541  0.00  0.00    +0.054 C 
ATOM      9  H   UNL     1       5.126   6.733  18.766  0.00  0.00    +0.046 HD
ATOM     10  H   UNL     1       3.849   7.372  17.753  0.00  0.00    +0.046 HD
ATOM     11  H   UNL     1       3.785   5.342  16.390  0.00  0.00    +0.028 HD
ATOM     12  H   UNL     1       5.408   5.999  16.411  0.00  0.00    +0.028 HD
ATOM     13  H   UNL     1       4.706   3.362  16.960  0.00  0.00    +0.027 HD
ATOM     14  H   UNL     1       6.255   4.092  17.315  0.00  0.00    +0.027 HD
ATOM     15  H   UNL     1       5.107   2.884  19.268  0.00  0.00    +0.029 HD
ATOM     16  H   UNL     1       5.759   4.486  19.565  0.00  0.00    +0.029 HD
ATOM     17  H   UNL     1       3.677   4.469  20.637  0.00  0.00    +0.055 HD
ENDROOT
BRANCH   1  22
ATOM     18  C   UNL     1       0.677   9.896  19.761  0.00  0.00    +0.122 A 
ATOM     19  C   UNL     1       1.078  10.357  18.504  0.00  0.00    -0.020 A 
ATOM     20  C   UNL     1       1.914   9.576  17.695  0.00  0.00    -0.058 A 
ATOM     21  C   UNL     1       2.363   8.335  18.144  0.00  0.00    -0.049 A 
ATOM     22  C   UNL     1       1.978   7.884  19.409  0.00  0.00    +0.040 A 
ATOM     23  C   UNL     1       1.121   8.647  20.204  0.00  0.00    -0.008 A 
ATOM     24  H   UNL     1       0.737  11.306  18.103  0.00  0.00    +0.065 HD
ATOM     25  H   UNL     1       2.199   9.932  16.709  0.00  0.00    +0.062 HD
ATOM     26  H   UNL     1       2.992   7.719  17.507  0.00  0.00    +0.063 HD
ATOM     27  H   UNL     1       0.793   8.266  21.169  0.00  0.00    +0.066 HD
BRANCH  18  28
ATOM     28  O   UNL     1      -0.148  10.546  20.634  0.00  0.00    -0.484 OA
BRANCH  28  29
ATOM     29  C   UNL     1      -0.628  11.853  20.283  0.00  0.00    +0.152 C 
ATOM     30  H   UNL     1       0.098  12.377  19.648  0.00  0.00    +0.078 HD
ATOM     31  H   UNL     1      -0.661  12.418  21.223  0.00  0.00    +0.078 HD
BRANCH  29  34
ATOM     32  C   UNL     1      -3.612  11.587  18.391  0.00  0.00    +0.224 A 
ATOM     33  N   UNL     1      -2.339  11.283  18.505  0.00  0.00    -0.193 NA
ATOM     34  C   UNL     1      -1.999  11.887  19.693  0.00  0.00    +0.209 A 
ATOM     35  N   UNL     1      -3.007  12.540  20.294  0.00  0.00    -0.058 NA
ATOM     36  O   UNL     1      -4.083  12.338  19.428  0.00  0.00    -0.338 OA
BRANCH  32  37
ATOM     37  C   UNL     1      -4.574  11.236  17.333  0.00  0.00    +0.015 C 
ATOM     38  H   UNL     1      -5.599  11.268  17.716  0.00  0.00    +0.032 HD
ATOM     39  H   UNL     1      -4.498  11.941  16.499  0.00  0.00    +0.032 HD
ATOM     40  H   UNL     1      -4.380  10.228  16.955  0.00  0.00    +0.032 HD
ENDBRANCH  32  37
ENDBRANCH  29  34
ENDBRANCH  28  29
ENDBRANCH  18  28
ENDBRANCH   1  22
BRANCH   8  41
ATOM     41  C   UNL     1       2.475   3.535  19.171  0.00  0.00    +0.010 A 
ATOM     42  C   UNL     1       2.045   2.340  19.795  0.00  0.00    +0.054 A 
ATOM     43  N   UNL     1       0.994   1.782  19.188  0.00  0.00    -0.182 NA
ATOM     44  N   UNL     1       0.764   2.597  18.148  0.00  0.00    -0.284 N 
ATOM     45  C   UNL     1       1.605   3.669  18.105  0.00  0.00    +0.027 A 
ATOM     46  H   UNL     1       2.455   1.851  20.667  0.00  0.00    +0.085 HD
ATOM     47  H   UNL     1       0.014   2.361  17.506  0.00  0.00    +0.188 HD
ATOM     48  H   UNL     1       1.536   4.407  17.319  0.00  0.00    +0.083 HD
ENDBRANCH   8  41
TORSDOF 6
ENDMDL
MODEL 14
REMARK VINA RESULT:    -7.660      2.737      8.906
REMARK INTER + INTRA:          -9.502
REMARK INTER:                  -8.724
REMARK INTRA:                  -0.778
REMARK UNBOUND:                 0.621
REMARK  Name = 
REMARK  6 active torsions:
REMARK  status: ('A' for Active; 'I' for Inactive)
REMARK    1  A    between atoms: C_1  and  C_2
REMARK    2  A    between atoms: C_4  and  C_5
REMARK    3  A    between atoms: C_5  and  O_6
REMARK    4  A    between atoms: O_6  and  C_7
REMARK    5  A    between atoms: C_11  and  C_12
REMARK    6  A    between atoms: C_19  and  C_20
REMARK                            x       y       z     vdW  Elec       q    Type
REMARK                         _______ _______ _______ _____ _____    ______ ____
ROOT
ATOM      1  C   UNL     1      -0.248  10.593  19.053  0.00  0.00    +0.247 C 
ATOM      2  O   UNL     1      -1.287  10.360  18.437  0.00  0.00    -0.270 OA
ATOM      3  N   UNL     1       0.100  11.855  19.553  0.00  0.00    -0.290 N 
ATOM      4  C   UNL     1       1.495  12.272  19.716  0.00  0.00    +0.016 C 
ATOM      5  C   UNL     1       1.642  13.371  20.759  0.00  0.00    -0.037 C 
ATOM      6  C   UNL     1       0.742  14.576  20.489  0.00  0.00    -0.050 C 
ATOM      7  C   UNL     1      -0.285  14.327  19.386  0.00  0.00    -0.030 C 
ATOM      8  C   UNL     1      -0.903  12.919  19.421  0.00  0.00    +0.054 C 
ATOM      9  H   UNL     1       1.845  12.621  18.736  0.00  0.00    +0.046 HD
ATOM     10  H   UNL     1       2.138  11.430  19.986  0.00  0.00    +0.046 HD
ATOM     11  H   UNL     1       1.406  12.961  21.749  0.00  0.00    +0.028 HD
ATOM     12  H   UNL     1       2.688  13.697  20.809  0.00  0.00    +0.028 HD
ATOM     13  H   UNL     1       0.234  14.861  21.418  0.00  0.00    +0.027 HD
ATOM     14  H   UNL     1       1.357  15.440  20.209  0.00  0.00    +0.027 HD
ATOM     15  H   UNL     1      -1.063  15.100  19.424  0.00  0.00    +0.029 HD
ATOM     16  H   UNL     1       0.223  14.453  18.419  0.00  0.00    +0.029 HD
ATOM     17  H   UNL     1      -1.415  12.780  18.459  0.00  0.00    +0.055 HD
ENDROOT
BRANCH   1  22
ATOM     18  C   UNL     1       2.342   7.930  18.429  0.00  0.00    +0.122 A 
ATOM     19  C   UNL     1       2.385   7.303  19.678  0.00  0.00    -0.020 A 
ATOM     20  C   UNL     1       1.564   7.745  20.722  0.00  0.00    -0.058 A 
ATOM     21  C   UNL     1       0.702   8.823  20.528  0.00  0.00    -0.049 A 
ATOM     22  C   UNL     1       0.675   9.462  19.286  0.00  0.00    +0.040 A 
ATOM     23  C   UNL     1       1.471   9.004  18.234  0.00  0.00    -0.008 A 
ATOM     24  H   UNL     1       3.024   6.446  19.870  0.00  0.00    +0.065 HD
ATOM     25  H   UNL     1       1.586   7.234  21.681  0.00  0.00    +0.062 HD
ATOM     26  H   UNL     1       0.047   9.151  21.330  0.00  0.00    +0.063 HD
ATOM     27  H   UNL     1       1.409   9.483  17.259  0.00  0.00    +0.066 HD
BRANCH  18  28
ATOM     28  O   UNL     1       3.072   7.586  17.327  0.00  0.00    -0.484 OA
BRANCH  28  29
ATOM     29  C   UNL     1       4.416   7.117  17.511  0.00  0.00    +0.152 C 
ATOM     30  H   UNL     1       4.642   6.987  18.578  0.00  0.00    +0.078 HD
ATOM     31  H   UNL     1       5.064   7.933  17.170  0.00  0.00    +0.078 HD
BRANCH  29  34
ATOM     32  C   UNL     1       5.494   4.664  15.193  0.00  0.00    +0.224 A 
ATOM     33  N   UNL     1       5.399   5.938  15.496  0.00  0.00    -0.193 NA
ATOM     34  C   UNL     1       4.777   5.901  16.722  0.00  0.00    +0.209 A 
ATOM     35  N   UNL     1       4.492   4.666  17.165  0.00  0.00    -0.058 NA
ATOM     36  O   UNL     1       4.973   3.840  16.147  0.00  0.00    -0.338 OA
BRANCH  32  37
ATOM     37  C   UNL     1       6.074   4.019  14.002  0.00  0.00    +0.015 C 
ATOM     38  H   UNL     1       7.132   4.278  13.899  0.00  0.00    +0.032 HD
ATOM     39  H   UNL     1       5.993   2.931  14.079  0.00  0.00    +0.032 HD
ATOM     40  H   UNL     1       5.553   4.343  13.096  0.00  0.00    +0.032 HD
ENDBRANCH  32  37
ENDBRANCH  29  34
ENDBRANCH  28  29
ENDBRANCH  18  28
ENDBRANCH   1  22
BRANCH   8  41
ATOM     41  C   UNL     1      -1.931  12.768  20.509  0.00  0.00    +0.010 A 
ATOM     42  C   UNL     1      -1.771  12.320  21.841  0.00  0.00    +0.054 A 
ATOM     43  N   UNL     1      -2.914  12.314  22.533  0.00  0.00    -0.182 NA
ATOM     44  N   UNL     1      -3.823  12.725  21.637  0.00  0.00    -0.284 N 
ATOM     45  C   UNL     1      -3.285  13.029  20.422  0.00  0.00    +0.027 A 
ATOM     46  H   UNL     1      -0.867  11.996  22.339  0.00  0.00    +0.085 HD
ATOM     47  H   UNL     1      -4.796  12.776  21.923  0.00  0.00    +0.188 HD
ATOM     48  H   UNL     1      -3.903  13.372  19.603  0.00  0.00    +0.083 HD
ENDBRANCH   8  41
TORSDOF 6
ENDMDL
MODEL 15
REMARK VINA RESULT:    -7.657      2.742      8.073
REMARK INTER + INTRA:          -9.499
REMARK INTER:                  -8.882
REMARK INTRA:                  -0.617
REMARK UNBOUND:                 0.621
REMARK  Name = 
REMARK  6 active torsions:
REMARK  status: ('A' for Active; 'I' for Inactive)
REMARK    1  A    between atoms: C_1  and  C_2
REMARK    2  A    between atoms: C_4  and  C_5
REMARK    3  A    between atoms: C_5  and  O_6
REMARK    4  A    between atoms: O_6  and  C_7
REMARK    5  A    between atoms: C_11  and  C_12
REMARK    6  A    between atoms: C_19  and  C_20
REMARK                            x       y       z     vdW  Elec       q    Type
REMARK                         _______ _______ _______ _____ _____    ______ ____
ROOT
ATOM      1  C   UNL     1       0.814   9.898  20.466  0.00  0.00    +0.247 C 
ATOM      2  O   UNL     1       1.215  10.471  21.477  0.00  0.00    -0.270 OA
ATOM      3  N   UNL     1      -0.109  10.449  19.567  0.00  0.00    -0.290 N 
ATOM      4  C   UNL     1      -1.013   9.617  18.769  0.00  0.00    +0.016 C 
ATOM      5  C   UNL     1      -1.483  10.333  17.510  0.00  0.00    -0.037 C 
ATOM      6  C   UNL     1      -2.109  11.697  17.797  0.00  0.00    -0.050 C 
ATOM      7  C   UNL     1      -1.910  12.162  19.239  0.00  0.00    -0.030 C 
ATOM      8  C   UNL     1      -0.519  11.838  19.808  0.00  0.00    +0.054 C 
ATOM      9  H   UNL     1      -1.867   9.362  19.409  0.00  0.00    +0.046 HD
ATOM     10  H   UNL     1      -0.547   8.668  18.491  0.00  0.00    +0.046 HD
ATOM     11  H   UNL     1      -0.631  10.464  16.833  0.00  0.00    +0.028 HD
ATOM     12  H   UNL     1      -2.202   9.704  16.973  0.00  0.00    +0.028 HD
ATOM     13  H   UNL     1      -1.693  12.437  17.103  0.00  0.00    +0.027 HD
ATOM     14  H   UNL     1      -3.185  11.661  17.583  0.00  0.00    +0.027 HD
ATOM     15  H   UNL     1      -2.127  13.235  19.315  0.00  0.00    +0.029 HD
ATOM     16  H   UNL     1      -2.661  11.654  19.862  0.00  0.00    +0.029 HD
ATOM     17  H   UNL     1      -0.585  11.985  20.894  0.00  0.00    +0.055 HD
ENDROOT
BRANCH   1  22
ATOM     18  C   UNL     1       2.557   7.062  18.702  0.00  0.00    +0.122 A 
ATOM     19  C   UNL     1       2.345   6.017  19.605  0.00  0.00    -0.020 A 
ATOM     20  C   UNL     1       1.627   6.235  20.787  0.00  0.00    -0.058 A 
ATOM     21  C   UNL     1       1.126   7.502  21.079  0.00  0.00    -0.049 A 
ATOM     22  C   UNL     1       1.356   8.552  20.185  0.00  0.00    +0.040 A 
ATOM     23  C   UNL     1       2.046   8.330  18.991  0.00  0.00    -0.008 A 
ATOM     24  H   UNL     1       2.697   5.008  19.411  0.00  0.00    +0.065 HD
ATOM     25  H   UNL     1       1.445   5.409  21.470  0.00  0.00    +0.062 HD
ATOM     26  H   UNL     1       0.547   7.667  21.983  0.00  0.00    +0.063 HD
ATOM     27  H   UNL     1       2.181   9.145  18.284  0.00  0.00    +0.066 HD
BRANCH  18  28
ATOM     28  O   UNL     1       3.219   6.978  17.510  0.00  0.00    -0.484 OA
BRANCH  28  29
ATOM     29  C   UNL     1       4.635   6.738  17.525  0.00  0.00    +0.152 C 
ATOM     30  H   UNL     1       5.002   6.633  18.554  0.00  0.00    +0.078 HD
ATOM     31  H   UNL     1       5.095   7.656  17.140  0.00  0.00    +0.078 HD
BRANCH  29  34
ATOM     32  C   UNL     1       5.722   4.513  14.991  0.00  0.00    +0.224 A 
ATOM     33  N   UNL     1       5.382   5.738  15.321  0.00  0.00    -0.193 NA
ATOM     34  C   UNL     1       5.095   5.610  16.660  0.00  0.00    +0.209 A 
ATOM     35  N   UNL     1       5.243   4.367  17.146  0.00  0.00    -0.058 NA
ATOM     36  O   UNL     1       5.664   3.635  16.034  0.00  0.00    -0.338 OA
BRANCH  32  37
ATOM     37  C   UNL     1       6.149   3.972  13.690  0.00  0.00    +0.015 C 
ATOM     38  H   UNL     1       6.042   2.883  13.670  0.00  0.00    +0.032 HD
ATOM     39  H   UNL     1       5.538   4.390  12.883  0.00  0.00    +0.032 HD
ATOM     40  H   UNL     1       7.197   4.217  13.495  0.00  0.00    +0.032 HD
ENDBRANCH  32  37
ENDBRANCH  29  34
ENDBRANCH  28  29
ENDBRANCH  18  28
ENDBRANCH   1  22
BRANCH   8  41
ATOM     41  C   UNL     1       0.546  12.766  19.288  0.00  0.00    +0.010 A 
ATOM     42  C   UNL     1       1.680  12.476  18.493  0.00  0.00    +0.054 A 
ATOM     43  N   UNL     1       2.416  13.557  18.218  0.00  0.00    -0.182 NA
ATOM     44  N   UNL     1       1.777  14.543  18.866  0.00  0.00    -0.284 N 
ATOM     45  C   UNL     1       0.645  14.127  19.502  0.00  0.00    +0.027 A 
ATOM     46  H   UNL     1       2.002  11.522  18.102  0.00  0.00    +0.085 HD
ATOM     47  H   UNL     1       2.171  15.478  18.832  0.00  0.00    +0.188 HD
ATOM     48  H   UNL     1       0.032  14.816  20.066  0.00  0.00    +0.083 HD
ENDBRANCH   8  41
TORSDOF 6
ENDMDL
MODEL 16
REMARK VINA RESULT:    -7.651      2.761      8.369
REMARK INTER + INTRA:          -9.490
REMARK INTER:                 -10.132
REMARK INTRA:                   0.641
REMARK UNBOUND:                 0.621
REMARK  Name = 
REMARK  6 active torsions:
REMARK  status: ('A' for Active; 'I' for Inactive)
REMARK    1  A    between atoms: C_1  and  C_2
REMARK    2  A    between atoms: C_4  and  C_5
REMARK    3  A    between atoms: C_5  and  O_6
REMARK    4  A    between atoms: O_6  and  C_7
REMARK    5  A    between atoms: C_11  and  C_12
REMARK    6  A    between atoms: C_19  and  C_20
REMARK                            x       y       z     vdW  Elec       q    Type
REMARK                         _______ _______ _______ _____ _____    ______ ____
ROOT
ATOM      1  C   UNL     1       1.098  10.434  19.390  0.00  0.00    +0.247 C 
ATOM      2  O   UNL     1       1.282  11.374  18.618  0.00  0.00    -0.270 OA
ATOM      3  N   UNL     1       0.347  10.524  20.569  0.00  0.00    -0.290 N 
ATOM      4  C   UNL     1       0.615   9.674  21.732  0.00  0.00    +0.016 C 
ATOM      5  C   UNL     1      -0.609   9.528  22.625  0.00  0.00    -0.037 C 
ATOM      6  C   UNL     1      -1.198  10.871  23.056  0.00  0.00    -0.050 C 
ATOM      7  C   UNL     1      -0.597  12.061  22.311  0.00  0.00    -0.030 C 
ATOM      8  C   UNL     1      -0.346  11.795  20.818  0.00  0.00    +0.054 C 
ATOM      9  H   UNL     1       1.443  10.136  22.286  0.00  0.00    +0.046 HD
ATOM     10  H   UNL     1       0.965   8.683  21.434  0.00  0.00    +0.046 HD
ATOM     11  H   UNL     1      -1.376   8.954  22.091  0.00  0.00    +0.028 HD
ATOM     12  H   UNL     1      -0.352   8.937  23.512  0.00  0.00    +0.028 HD
ATOM     13  H   UNL     1      -2.286  10.848  22.914  0.00  0.00    +0.027 HD
ATOM     14  H   UNL     1      -1.042  11.012  24.133  0.00  0.00    +0.027 HD
ATOM     15  H   UNL     1      -1.232  12.945  22.453  0.00  0.00    +0.029 HD
ATOM     16  H   UNL     1       0.367  12.300  22.782  0.00  0.00    +0.029 HD
ATOM     17  H   UNL     1       0.303  12.606  20.462  0.00  0.00    +0.055 HD
ENDROOT
BRANCH   1  22
ATOM     18  C   UNL     1       2.270   6.864  19.660  0.00  0.00    +0.122 A 
ATOM     19  C   UNL     1       2.871   6.686  18.411  0.00  0.00    -0.020 A 
ATOM     20  C   UNL     1       2.900   7.734  17.482  0.00  0.00    -0.058 A 
ATOM     21  C   UNL     1       2.319   8.962  17.792  0.00  0.00    -0.049 A 
ATOM     22  C   UNL     1       1.700   9.132  19.034  0.00  0.00    +0.040 A 
ATOM     23  C   UNL     1       1.696   8.099  19.973  0.00  0.00    -0.008 A 
ATOM     24  H   UNL     1       3.355   5.755  18.132  0.00  0.00    +0.065 HD
ATOM     25  H   UNL     1       3.393   7.593  16.523  0.00  0.00    +0.062 HD
ATOM     26  H   UNL     1       2.363   9.783  17.082  0.00  0.00    +0.063 HD
ATOM     27  H   UNL     1       1.250   8.258  20.952  0.00  0.00    +0.066 HD
BRANCH  18  28
ATOM     28  O   UNL     1       2.192   5.935  20.659  0.00  0.00    -0.484 OA
BRANCH  28  29
ATOM     29  C   UNL     1       1.174   4.926  20.581  0.00  0.00    +0.152 C 
ATOM     30  H   UNL     1       0.234   5.348  20.201  0.00  0.00    +0.078 HD
ATOM     31  H   UNL     1       0.968   4.633  21.617  0.00  0.00    +0.078 HD
BRANCH  29  34
ATOM     32  C   UNL     1       2.713   2.192  18.935  0.00  0.00    +0.224 A 
ATOM     33  N   UNL     1       2.863   3.294  19.632  0.00  0.00    -0.193 NA
ATOM     34  C   UNL     1       1.562   3.691  19.836  0.00  0.00    +0.209 A 
ATOM     35  N   UNL     1       0.641   2.879  19.292  0.00  0.00    -0.058 NA
ATOM     36  O   UNL     1       1.408   1.878  18.693  0.00  0.00    -0.338 OA
BRANCH  32  37
ATOM     37  C   UNL     1       3.729   1.271  18.398  0.00  0.00    +0.015 C 
ATOM     38  H   UNL     1       4.266   0.771  19.210  0.00  0.00    +0.032 HD
ATOM     39  H   UNL     1       3.258   0.503  17.776  0.00  0.00    +0.032 HD
ATOM     40  H   UNL     1       4.458   1.813  17.788  0.00  0.00    +0.032 HD
ENDBRANCH  32  37
ENDBRANCH  29  34
ENDBRANCH  28  29
ENDBRANCH  18  28
ENDBRANCH   1  22
BRANCH   8  41
ATOM     41  C   UNL     1      -1.612  11.836  20.005  0.00  0.00    +0.010 A 
ATOM     42  C   UNL     1      -2.000  11.032  18.907  0.00  0.00    +0.054 A 
ATOM     43  N   UNL     1      -3.205  11.353  18.424  0.00  0.00    -0.182 NA
ATOM     44  N   UNL     1      -3.581  12.389  19.188  0.00  0.00    -0.284 N 
ATOM     45  C   UNL     1      -2.677  12.702  20.159  0.00  0.00    +0.027 A 
ATOM     46  H   UNL     1      -1.456  10.225  18.436  0.00  0.00    +0.085 HD
ATOM     47  H   UNL     1      -4.471  12.836  18.991  0.00  0.00    +0.188 HD
ATOM     48  H   UNL     1      -2.849  13.519  20.846  0.00  0.00    +0.083 HD
ENDBRANCH   8  41
TORSDOF 6
ENDMDL
MODEL 17
REMARK VINA RESULT:    -7.650      2.255      3.420
REMARK INTER + INTRA:          -9.489
REMARK INTER:                  -9.470
REMARK INTRA:                  -0.018
REMARK UNBOUND:                 0.621
REMARK  Name = 
REMARK  6 active torsions:
REMARK  status: ('A' for Active; 'I' for Inactive)
REMARK    1  A    between atoms: C_1  and  C_2
REMARK    2  A    between atoms: C_4  and  C_5
REMARK    3  A    between atoms: C_5  and  O_6
REMARK    4  A    between atoms: O_6  and  C_7
REMARK    5  A    between atoms: C_11  and  C_12
REMARK    6  A    between atoms: C_19  and  C_20
REMARK                            x       y       z     vdW  Elec       q    Type
REMARK                         _______ _______ _______ _____ _____    ______ ____
ROOT
ATOM      1  C   UNL     1       3.118   6.258  19.518  0.00  0.00    +0.247 C 
ATOM      2  O   UNL     1       2.811   5.703  20.572  0.00  0.00    -0.270 OA
ATOM      3  N   UNL     1       4.123   5.800  18.656  0.00  0.00    -0.290 N 
ATOM      4  C   UNL     1       4.883   6.708  17.793  0.00  0.00    +0.016 C 
ATOM      5  C   UNL     1       5.471   5.987  16.587  0.00  0.00    -0.037 C 
ATOM      6  C   UNL     1       6.310   4.769  16.969  0.00  0.00    -0.050 C 
ATOM      7  C   UNL     1       6.182   4.386  18.442  0.00  0.00    -0.030 C 
ATOM      8  C   UNL     1       4.754   4.518  18.995  0.00  0.00    +0.054 C 
ATOM      9  H   UNL     1       5.681   7.146  18.406  0.00  0.00    +0.046 HD
ATOM     10  H   UNL     1       4.269   7.544  17.449  0.00  0.00    +0.046 HD
ATOM     11  H   UNL     1       4.655   5.668  15.927  0.00  0.00    +0.028 HD
ATOM     12  H   UNL     1       6.079   6.684  15.999  0.00  0.00    +0.028 HD
ATOM     13  H   UNL     1       6.024   3.921  16.334  0.00  0.00    +0.027 HD
ATOM     14  H   UNL     1       7.366   4.965  16.745  0.00  0.00    +0.027 HD
ATOM     15  H   UNL     1       6.572   3.371  18.596  0.00  0.00    +0.029 HD
ATOM     16  H   UNL     1       6.836   5.054  19.021  0.00  0.00    +0.029 HD
ATOM     17  H   UNL     1       4.837   4.465  20.089  0.00  0.00    +0.055 HD
ENDROOT
BRANCH   1  22
ATOM     18  C   UNL     1       0.942   9.321  19.793  0.00  0.00    +0.122 A 
ATOM     19  C   UNL     1       0.895   9.734  18.459  0.00  0.00    -0.020 A 
ATOM     20  C   UNL     1       1.568   9.010  17.467  0.00  0.00    -0.058 A 
ATOM     21  C   UNL     1       2.301   7.874  17.805  0.00  0.00    -0.049 A 
ATOM     22  C   UNL     1       2.364   7.472  19.143  0.00  0.00    +0.040 A 
ATOM     23  C   UNL     1       1.669   8.176  20.129  0.00  0.00    -0.008 A 
ATOM     24  H   UNL     1       0.320  10.599  18.145  0.00  0.00    +0.065 HD
ATOM     25  H   UNL     1       1.503   9.325  16.429  0.00  0.00    +0.062 HD
ATOM     26  H   UNL     1       2.803   7.297  17.034  0.00  0.00    +0.063 HD
ATOM     27  H   UNL     1       1.690   7.828  21.159  0.00  0.00    +0.066 HD
BRANCH  18  28
ATOM     28  O   UNL     1       0.316   9.922  20.848  0.00  0.00    -0.484 OA
BRANCH  28  29
ATOM     29  C   UNL     1       0.096  11.340  20.799  0.00  0.00    +0.152 C 
ATOM     30  H   UNL     1       0.825  11.825  20.137  0.00  0.00    +0.078 HD
ATOM     31  H   UNL     1       0.321  11.709  21.807  0.00  0.00    +0.078 HD
BRANCH  29  34
ATOM     32  C   UNL     1      -3.125  11.979  19.470  0.00  0.00    +0.224 A 
ATOM     33  N   UNL     1      -1.965  11.381  19.327  0.00  0.00    -0.193 NA
ATOM     34  C   UNL     1      -1.302  11.753  20.473  0.00  0.00    +0.209 A 
ATOM     35  N   UNL     1      -2.009  12.547  21.294  0.00  0.00    -0.058 NA
ATOM     36  O   UNL     1      -3.227  12.696  20.626  0.00  0.00    -0.338 OA
BRANCH  32  37
ATOM     37  C   UNL     1      -4.301  11.979  18.583  0.00  0.00    +0.015 C 
ATOM     38  H   UNL     1      -5.179  12.371  19.105  0.00  0.00    +0.032 HD
ATOM     39  H   UNL     1      -4.117  12.605  17.704  0.00  0.00    +0.032 HD
ATOM     40  H   UNL     1      -4.529  10.964  18.245  0.00  0.00    +0.032 HD
ENDBRANCH  32  37
ENDBRANCH  29  34
ENDBRANCH  28  29
ENDBRANCH  18  28
ENDBRANCH   1  22
BRANCH   8  41
ATOM     41  C   UNL     1       3.858   3.393  18.553  0.00  0.00    +0.010 A 
ATOM     42  C   UNL     1       2.929   3.350  17.487  0.00  0.00    +0.054 A 
ATOM     43  N   UNL     1       2.301   2.175  17.387  0.00  0.00    -0.182 NA
ATOM     44  N   UNL     1       2.797   1.467  18.413  0.00  0.00    -0.284 N 
ATOM     45  C   UNL     1       3.744   2.141  19.126  0.00  0.00    +0.027 A 
ATOM     46  H   UNL     1       2.683   4.127  16.776  0.00  0.00    +0.085 HD
ATOM     47  H   UNL     1       2.444   0.529  18.568  0.00  0.00    +0.188 HD
ATOM     48  H   UNL     1       4.228   1.693  19.982  0.00  0.00    +0.083 HD
ENDBRANCH   8  41
TORSDOF 6
ENDMDL
MODEL 18
REMARK VINA RESULT:    -7.619      2.613      8.990
REMARK INTER + INTRA:          -9.448
REMARK INTER:                  -8.681
REMARK INTRA:                  -0.767
REMARK UNBOUND:                 0.621
REMARK  Name = 
REMARK  6 active torsions:
REMARK  status: ('A' for Active; 'I' for Inactive)
REMARK    1  A    between atoms: C_1  and  C_2
REMARK    2  A    between atoms: C_4  and  C_5
REMARK    3  A    between atoms: C_5  and  O_6
REMARK    4  A    between atoms: O_6  and  C_7
REMARK    5  A    between atoms: C_11  and  C_12
REMARK    6  A    between atoms: C_19  and  C_20
REMARK                            x       y       z     vdW  Elec       q    Type
REMARK                         _______ _______ _______ _____ _____    ______ ____
ROOT
ATOM      1  C   UNL     1      -0.558  10.862  19.274  0.00  0.00    +0.247 C 
ATOM      2  O   UNL     1      -1.539  10.625  18.570  0.00  0.00    -0.270 OA
ATOM      3  N   UNL     1      -0.278  12.118  19.828  0.00  0.00    -0.290 N 
ATOM      4  C   UNL     1       1.091  12.556  20.114  0.00  0.00    +0.016 C 
ATOM      5  C   UNL     1       1.131  13.634  21.189  0.00  0.00    -0.037 C 
ATOM      6  C   UNL     1       0.232  14.828  20.872  0.00  0.00    -0.050 C 
ATOM      7  C   UNL     1      -0.696  14.586  19.683  0.00  0.00    -0.030 C 
ATOM      8  C   UNL     1      -1.287  13.167  19.637  0.00  0.00    +0.054 C 
ATOM      9  H   UNL     1       1.513  12.934  19.174  0.00  0.00    +0.046 HD
ATOM     10  H   UNL     1       1.726  11.720  20.418  0.00  0.00    +0.046 HD
ATOM     11  H   UNL     1       0.823  13.197  22.147  0.00  0.00    +0.028 HD
ATOM     12  H   UNL     1       2.163  13.977  21.332  0.00  0.00    +0.028 HD
ATOM     13  H   UNL     1      -0.356  15.082  21.762  0.00  0.00    +0.027 HD
ATOM     14  H   UNL     1       0.851  15.709  20.662  0.00  0.00    +0.027 HD
ATOM     15  H   UNL     1      -1.490  15.344  19.673  0.00  0.00    +0.029 HD
ATOM     16  H   UNL     1      -0.114  14.744  18.764  0.00  0.00    +0.029 HD
ATOM     17  H   UNL     1      -1.716  13.041  18.633  0.00  0.00    +0.055 HD
ENDROOT
BRANCH   1  22
ATOM     18  C   UNL     1       2.036   8.178  18.772  0.00  0.00    +0.122 A 
ATOM     19  C   UNL     1       2.075   7.603  20.046  0.00  0.00    -0.020 A 
ATOM     20  C   UNL     1       1.249   8.087  21.068  0.00  0.00    -0.058 A 
ATOM     21  C   UNL     1       0.388   9.156  20.825  0.00  0.00    -0.049 A 
ATOM     22  C   UNL     1       0.364   9.743  19.557  0.00  0.00    +0.040 A 
ATOM     23  C   UNL     1       1.165   9.242  18.528  0.00  0.00    -0.008 A 
ATOM     24  H   UNL     1       2.713   6.756  20.276  0.00  0.00    +0.065 HD
ATOM     25  H   UNL     1       1.268   7.617  22.047  0.00  0.00    +0.062 HD
ATOM     26  H   UNL     1      -0.272   9.516  21.610  0.00  0.00    +0.063 HD
ATOM     27  H   UNL     1       1.106   9.679  17.534  0.00  0.00    +0.066 HD
BRANCH  18  28
ATOM     28  O   UNL     1       2.770   7.788  17.688  0.00  0.00    -0.484 OA
BRANCH  28  29
ATOM     29  C   UNL     1       3.960   7.014  17.905  0.00  0.00    +0.152 C 
ATOM     30  H   UNL     1       4.336   7.154  18.927  0.00  0.00    +0.078 HD
ATOM     31  H   UNL     1       4.722   7.451  17.248  0.00  0.00    +0.078 HD
BRANCH  29  34
ATOM     32  C   UNL     1       3.191   3.578  17.509  0.00  0.00    +0.224 A 
ATOM     33  N   UNL     1       2.898   4.721  18.085  0.00  0.00    -0.193 NA
ATOM     34  C   UNL     1       3.845   5.566  17.555  0.00  0.00    +0.209 A 
ATOM     35  N   UNL     1       4.693   4.983  16.693  0.00  0.00    -0.058 NA
ATOM     36  O   UNL     1       4.255   3.657  16.659  0.00  0.00    -0.338 OA
BRANCH  32  37
ATOM     37  C   UNL     1       2.545   2.261  17.646  0.00  0.00    +0.015 C 
ATOM     38  H   UNL     1       3.049   1.517  17.021  0.00  0.00    +0.032 HD
ATOM     39  H   UNL     1       2.587   1.921  18.685  0.00  0.00    +0.032 HD
ATOM     40  H   UNL     1       1.497   2.312  17.339  0.00  0.00    +0.032 HD
ENDBRANCH  32  37
ENDBRANCH  29  34
ENDBRANCH  28  29
ENDBRANCH  18  28
ENDBRANCH   1  22
BRANCH   8  41
ATOM     41  C   UNL     1      -2.398  12.973  20.633  0.00  0.00    +0.010 A 
ATOM     42  C   UNL     1      -2.324  12.700  22.019  0.00  0.00    +0.054 A 
ATOM     43  N   UNL     1      -3.524  12.588  22.596  0.00  0.00    -0.182 NA
ATOM     44  N   UNL     1      -4.377  12.753  21.574  0.00  0.00    -0.284 N 
ATOM     45  C   UNL     1      -3.757  13.006  20.387  0.00  0.00    +0.027 A 
ATOM     46  H   UNL     1      -1.444  12.577  22.636  0.00  0.00    +0.085 HD
ATOM     47  H   UNL     1      -5.373  12.679  21.759  0.00  0.00    +0.188 HD
ATOM     48  H   UNL     1      -4.322  13.158  19.478  0.00  0.00    +0.083 HD
ENDBRANCH   8  41
TORSDOF 6
ENDMDL
MODEL 19
REMARK VINA RESULT:    -7.598      3.166      4.204
REMARK INTER + INTRA:          -9.420
REMARK INTER:                  -9.692
REMARK INTRA:                   0.272
REMARK UNBOUND:                 0.621
REMARK  Name = 
REMARK  6 active torsions:
REMARK  status: ('A' for Active; 'I' for Inactive)
REMARK    1  A    between atoms: C_1  and  C_2
REMARK    2  A    between atoms: C_4  and  C_5
REMARK    3  A    between atoms: C_5  and  O_6
REMARK    4  A    between atoms: O_6  and  C_7
REMARK    5  A    between atoms: C_11  and  C_12
REMARK    6  A    between atoms: C_19  and  C_20
REMARK                            x       y       z     vdW  Elec       q    Type
REMARK                         _______ _______ _______ _____ _____    ______ ____
ROOT
ATOM      1  C   UNL     1       3.776   6.559  17.780  0.00  0.00    +0.247 C 
ATOM      2  O   UNL     1       3.751   7.781  17.648  0.00  0.00    -0.270 OA
ATOM      3  N   UNL     1       4.700   5.721  17.141  0.00  0.00    -0.290 N 
ATOM      4  C   UNL     1       4.386   4.331  16.801  0.00  0.00    +0.016 C 
ATOM      5  C   UNL     1       5.642   3.481  16.662  0.00  0.00    -0.037 C 
ATOM      6  C   UNL     1       6.655   4.067  15.679  0.00  0.00    -0.050 C 
ATOM      7  C   UNL     1       6.312   5.488  15.235  0.00  0.00    -0.030 C 
ATOM      8  C   UNL     1       5.761   6.374  16.364  0.00  0.00    +0.054 C 
ATOM      9  H   UNL     1       3.826   4.347  15.856  0.00  0.00    +0.046 HD
ATOM     10  H   UNL     1       3.722   3.875  17.540  0.00  0.00    +0.046 HD
ATOM     11  H   UNL     1       6.115   3.377  17.646  0.00  0.00    +0.028 HD
ATOM     12  H   UNL     1       5.371   2.466  16.349  0.00  0.00    +0.028 HD
ATOM     13  H   UNL     1       7.652   4.046  16.135  0.00  0.00    +0.027 HD
ATOM     14  H   UNL     1       6.720   3.426  14.792  0.00  0.00    +0.027 HD
ATOM     15  H   UNL     1       7.190   5.950  14.765  0.00  0.00    +0.029 HD
ATOM     16  H   UNL     1       5.547   5.419  14.450  0.00  0.00    +0.029 HD
ATOM     17  H   UNL     1       5.325   7.259  15.881  0.00  0.00    +0.055 HD
ENDROOT
BRANCH   1  22
ATOM     18  C   UNL     1       1.283   6.160  20.576  0.00  0.00    +0.122 A 
ATOM     19  C   UNL     1       0.924   4.818  20.423  0.00  0.00    -0.020 A 
ATOM     20  C   UNL     1       1.501   4.040  19.412  0.00  0.00    -0.058 A 
ATOM     21  C   UNL     1       2.432   4.602  18.540  0.00  0.00    -0.049 A 
ATOM     22  C   UNL     1       2.775   5.950  18.680  0.00  0.00    +0.040 A 
ATOM     23  C   UNL     1       2.224   6.719  19.707  0.00  0.00    -0.008 A 
ATOM     24  H   UNL     1       0.221   4.331  21.091  0.00  0.00    +0.065 HD
ATOM     25  H   UNL     1       1.235   2.991  19.318  0.00  0.00    +0.062 HD
ATOM     26  H   UNL     1       2.899   3.993  17.770  0.00  0.00    +0.063 HD
ATOM     27  H   UNL     1       2.531   7.755  19.833  0.00  0.00    +0.066 HD
BRANCH  18  28
ATOM     28  O   UNL     1       0.814   7.019  21.529  0.00  0.00    -0.484 OA
BRANCH  28  29
ATOM     29  C   UNL     1       1.389   8.331  21.615  0.00  0.00    +0.152 C 
ATOM     30  H   UNL     1       2.132   8.485  20.821  0.00  0.00    +0.078 HD
ATOM     31  H   UNL     1       1.954   8.346  22.555  0.00  0.00    +0.078 HD
BRANCH  29  34
ATOM     32  C   UNL     1      -0.939  10.886  22.394  0.00  0.00    +0.224 A 
ATOM     33  N   UNL     1      -0.137   9.945  22.834  0.00  0.00    -0.193 NA
ATOM     34  C   UNL     1       0.403   9.452  21.669  0.00  0.00    +0.209 A 
ATOM     35  N   UNL     1      -0.040  10.052  20.552  0.00  0.00    -0.058 NA
ATOM     36  O   UNL     1      -0.933  11.011  21.035  0.00  0.00    -0.338 OA
BRANCH  32  37
ATOM     37  C   UNL     1      -1.815  11.803  23.142  0.00  0.00    +0.015 C 
ATOM     38  H   UNL     1      -1.270  12.271  23.968  0.00  0.00    +0.032 HD
ATOM     39  H   UNL     1      -2.188  12.596  22.485  0.00  0.00    +0.032 HD
ATOM     40  H   UNL     1      -2.672  11.265  23.558  0.00  0.00    +0.032 HD
ENDBRANCH  32  37
ENDBRANCH  29  34
ENDBRANCH  28  29
ENDBRANCH  18  28
ENDBRANCH   1  22
BRANCH   8  41
ATOM     41  C   UNL     1       6.837   6.852  17.301  0.00  0.00    +0.010 A 
ATOM     42  C   UNL     1       7.494   8.104  17.350  0.00  0.00    +0.054 A 
ATOM     43  N   UNL     1       8.407   8.178  18.323  0.00  0.00    -0.182 NA
ATOM     44  N   UNL     1       8.367   6.959  18.882  0.00  0.00    -0.284 N 
ATOM     45  C   UNL     1       7.433   6.139  18.323  0.00  0.00    +0.027 A 
ATOM     46  H   UNL     1       7.347   8.968  16.717  0.00  0.00    +0.085 HD
ATOM     47  H   UNL     1       9.007   6.755  19.643  0.00  0.00    +0.188 HD
ATOM     48  H   UNL     1       7.292   5.126  18.673  0.00  0.00    +0.083 HD
ENDBRANCH   8  41
TORSDOF 6
ENDMDL
MODEL 20
REMARK VINA RESULT:    -7.581      3.184      4.968
REMARK INTER + INTRA:          -9.398
REMARK INTER:                  -8.600
REMARK INTRA:                  -0.798
REMARK UNBOUND:                 0.621
REMARK  Name = 
REMARK  6 active torsions:
REMARK  status: ('A' for Active; 'I' for Inactive)
REMARK    1  A    between atoms: C_1  and  C_2
REMARK    2  A    between atoms: C_4  and  C_5
REMARK    3  A    between atoms: C_5  and  O_6
REMARK    4  A    between atoms: O_6  and  C_7
REMARK    5  A    between atoms: C_11  and  C_12
REMARK    6  A    between atoms: C_19  and  C_20
REMARK                            x       y       z     vdW  Elec       q    Type
REMARK                         _______ _______ _______ _____ _____    ______ ____
ROOT
ATOM      1  C   UNL     1       4.172   3.472  18.066  0.00  0.00    +0.247 C 
ATOM      2  O   UNL     1       3.922   2.802  17.065  0.00  0.00    -0.270 OA
ATOM      3  N   UNL     1       5.359   4.192  18.250  0.00  0.00    -0.290 N 
ATOM      4  C   UNL     1       5.914   4.457  19.580  0.00  0.00    +0.016 C 
ATOM      5  C   UNL     1       6.822   5.679  19.586  0.00  0.00    -0.037 C 
ATOM      6  C   UNL     1       7.932   5.604  18.538  0.00  0.00    -0.050 C 
ATOM      7  C   UNL     1       7.753   4.452  17.551  0.00  0.00    -0.030 C 
ATOM      8  C   UNL     1       6.295   4.227  17.118  0.00  0.00    +0.054 C 
ATOM      9  H   UNL     1       6.472   3.561  19.881  0.00  0.00    +0.046 HD
ATOM     10  H   UNL     1       5.126   4.590  20.325  0.00  0.00    +0.046 HD
ATOM     11  H   UNL     1       6.217   6.576  19.405  0.00  0.00    +0.028 HD
ATOM     12  H   UNL     1       7.263   5.808  20.581  0.00  0.00    +0.028 HD
ATOM     13  H   UNL     1       7.982   6.557  17.998  0.00  0.00    +0.027 HD
ATOM     14  H   UNL     1       8.902   5.493  19.037  0.00  0.00    +0.027 HD
ATOM     15  H   UNL     1       8.402   4.607  16.680  0.00  0.00    +0.029 HD
ATOM     16  H   UNL     1       8.111   3.534  18.037  0.00  0.00    +0.029 HD
ATOM     17  H   UNL     1       6.264   3.244  16.628  0.00  0.00    +0.055 HD
ENDROOT
BRANCH   1  22
ATOM     18  C   UNL     1       1.694   4.834  20.556  0.00  0.00    +0.122 A 
ATOM     19  C   UNL     1       1.244   3.655  21.156  0.00  0.00    -0.020 A 
ATOM     20  C   UNL     1       1.755   2.414  20.754  0.00  0.00    -0.058 A 
ATOM     21  C   UNL     1       2.710   2.345  19.740  0.00  0.00    -0.049 A 
ATOM     22  C   UNL     1       3.144   3.523  19.127  0.00  0.00    +0.040 A 
ATOM     23  C   UNL     1       2.658   4.763  19.547  0.00  0.00    -0.008 A 
ATOM     24  H   UNL     1       0.518   3.660  21.963  0.00  0.00    +0.065 HD
ATOM     25  H   UNL     1       1.418   1.506  21.245  0.00  0.00    +0.062 HD
ATOM     26  H   UNL     1       3.125   1.385  19.445  0.00  0.00    +0.063 HD
ATOM     27  H   UNL     1       3.036   5.676  19.092  0.00  0.00    +0.066 HD
BRANCH  18  28
ATOM     28  O   UNL     1       1.295   6.103  20.868  0.00  0.00    -0.484 OA
BRANCH  28  29
ATOM     29  C   UNL     1       1.959   7.207  20.235  0.00  0.00    +0.152 C 
ATOM     30  H   UNL     1       2.137   6.999  19.172  0.00  0.00    +0.078 HD
ATOM     31  H   UNL     1       2.953   7.258  20.696  0.00  0.00    +0.078 HD
BRANCH  29  34
ATOM     32  C   UNL     1       0.307  10.148  21.319  0.00  0.00    +0.224 A 
ATOM     33  N   UNL     1       0.767   8.957  21.626  0.00  0.00    -0.193 NA
ATOM     34  C   UNL     1       1.306   8.536  20.433  0.00  0.00    +0.209 A 
ATOM     35  N   UNL     1       1.188   9.418  19.426  0.00  0.00    -0.058 NA
ATOM     36  O   UNL     1       0.524  10.494  20.018  0.00  0.00    -0.338 OA
BRANCH  32  37
ATOM     37  C   UNL     1      -0.387  11.136  22.163  0.00  0.00    +0.015 C 
ATOM     38  H   UNL     1      -0.283  10.880  23.222  0.00  0.00    +0.032 HD
ATOM     39  H   UNL     1       0.035  12.134  22.009  0.00  0.00    +0.032 HD
ATOM     40  H   UNL     1      -1.454  11.168  21.922  0.00  0.00    +0.032 HD
ENDBRANCH  32  37
ENDBRANCH  29  34
ENDBRANCH  28  29
ENDBRANCH  18  28
ENDBRANCH   1  22
BRANCH   8  41
ATOM     41  C   UNL     1       5.826   5.249  16.119  0.00  0.00    +0.010 A 
ATOM     42  C   UNL     1       5.114   6.453  16.331  0.00  0.00    +0.054 A 
ATOM     43  N   UNL     1       4.862   7.119  15.201  0.00  0.00    -0.182 NA
ATOM     44  N   UNL     1       5.380   6.327  14.250  0.00  0.00    -0.284 N 
ATOM     45  C   UNL     1       5.984   5.210  14.747  0.00  0.00    +0.027 A 
ATOM     46  H   UNL     1       4.767   6.875  17.264  0.00  0.00    +0.085 HD
ATOM     47  H   UNL     1       5.285   6.610  13.280  0.00  0.00    +0.188 HD
ATOM     48  H   UNL     1       6.443   4.481  14.094  0.00  0.00    +0.083 HD
ENDBRANCH   8  41
TORSDOF 6
ENDMDL
MODEL 21
REMARK VINA RESULT:    -7.540      2.663      9.277
REMARK INTER + INTRA:          -9.344
REMARK INTER:                  -8.558
REMARK INTRA:                  -0.786
REMARK UNBOUND:                 0.621
REMARK  Name = 
REMARK  6 active torsions:
REMARK  status: ('A' for Active; 'I' for Inactive)
REMARK    1  A    between atoms: C_1  and  C_2
REMARK    2  A    between atoms: C_4  and  C_5
REMARK    3  A    between atoms: C_5  and  O_6
REMARK    4  A    between atoms: O_6  and  C_7
REMARK    5  A    between atoms: C_11  and  C_12
REMARK    6  A    between atoms: C_19  and  C_20
REMARK                            x       y       z     vdW  Elec       q    Type
REMARK                         _______ _______ _______ _____ _____    ______ ____
ROOT
ATOM      1  C   UNL     1      -0.640  10.836  19.417  0.00  0.00    +0.247 C 
ATOM      2  O   UNL     1      -1.587  10.570  18.678  0.00  0.00    -0.270 OA
ATOM      3  N   UNL     1      -0.383  12.113  19.932  0.00  0.00    -0.290 N 
ATOM      4  C   UNL     1       0.972  12.562  20.264  0.00  0.00    +0.016 C 
ATOM      5  C   UNL     1       0.964  13.682  21.295  0.00  0.00    -0.037 C 
ATOM      6  C   UNL     1       0.083  14.863  20.888  0.00  0.00    -0.050 C 
ATOM      7  C   UNL     1      -0.789  14.573  19.668  0.00  0.00    -0.030 C 
ATOM      8  C   UNL     1      -1.380  13.154  19.652  0.00  0.00    +0.054 C 
ATOM      9  H   UNL     1       1.438  12.901  19.330  0.00  0.00    +0.046 HD
ATOM     10  H   UNL     1       1.590  11.739  20.631  0.00  0.00    +0.046 HD
ATOM     11  H   UNL     1       0.610  13.285  22.254  0.00  0.00    +0.028 HD
ATOM     12  H   UNL     1       1.988  14.031  21.472  0.00  0.00    +0.028 HD
ATOM     13  H   UNL     1      -0.545  15.153  21.739  0.00  0.00    +0.027 HD
ATOM     14  H   UNL     1       0.713  15.734  20.672  0.00  0.00    +0.027 HD
ATOM     15  H   UNL     1      -1.580  15.330  19.591  0.00  0.00    +0.029 HD
ATOM     16  H   UNL     1      -0.164  14.693  18.772  0.00  0.00    +0.029 HD
ATOM     17  H   UNL     1      -1.761  12.987  18.635  0.00  0.00    +0.055 HD
ENDROOT
BRANCH   1  22
ATOM     18  C   UNL     1       1.985   8.147  19.151  0.00  0.00    +0.122 A 
ATOM     19  C   UNL     1       1.949   7.611  20.442  0.00  0.00    -0.020 A 
ATOM     20  C   UNL     1       1.063   8.122  21.398  0.00  0.00    -0.058 A 
ATOM     21  C   UNL     1       0.215   9.180  21.072  0.00  0.00    -0.049 A 
ATOM     22  C   UNL     1       0.266   9.729  19.788  0.00  0.00    +0.040 A 
ATOM     23  C   UNL     1       1.128   9.200  18.824  0.00  0.00    -0.008 A 
ATOM     24  H   UNL     1       2.574   6.773  20.735  0.00  0.00    +0.065 HD
ATOM     25  H   UNL     1       1.024   7.682  22.390  0.00  0.00    +0.062 HD
ATOM     26  H   UNL     1      -0.490   9.561  21.806  0.00  0.00    +0.063 HD
ATOM     27  H   UNL     1       1.128   9.607  17.816  0.00  0.00    +0.066 HD
BRANCH  18  28
ATOM     28  O   UNL     1       2.783   7.728  18.125  0.00  0.00    -0.484 OA
BRANCH  28  29
ATOM     29  C   UNL     1       2.885   6.319  17.864  0.00  0.00    +0.152 C 
ATOM     30  H   UNL     1       2.585   6.091  16.833  0.00  0.00    +0.078 HD
ATOM     31  H   UNL     1       2.130   5.845  18.503  0.00  0.00    +0.078 HD
BRANCH  29  34
ATOM     32  C   UNL     1       6.178   5.025  18.047  0.00  0.00    +0.224 A 
ATOM     33  N   UNL     1       5.269   5.648  17.333  0.00  0.00    -0.193 NA
ATOM     34  C   UNL     1       4.205   5.707  18.202  0.00  0.00    +0.209 A 
ATOM     35  N   UNL     1       4.432   5.146  19.400  0.00  0.00    -0.058 NA
ATOM     36  O   UNL     1       5.750   4.694  19.299  0.00  0.00    -0.338 OA
BRANCH  32  37
ATOM     37  C   UNL     1       7.558   4.651  17.695  0.00  0.00    +0.015 C 
ATOM     38  H   UNL     1       8.044   5.451  17.127  0.00  0.00    +0.032 HD
ATOM     39  H   UNL     1       8.147   4.468  18.600  0.00  0.00    +0.032 HD
ATOM     40  H   UNL     1       7.568   3.743  17.084  0.00  0.00    +0.032 HD
ENDBRANCH  32  37
ENDBRANCH  29  34
ENDBRANCH  28  29
ENDBRANCH  18  28
ENDBRANCH   1  22
BRANCH   8  41
ATOM     41  C   UNL     1      -2.536  13.000  20.602  0.00  0.00    +0.010 A 
ATOM     42  C   UNL     1      -2.528  12.726  21.990  0.00  0.00    +0.054 A 
ATOM     43  N   UNL     1      -3.754  12.657  22.517  0.00  0.00    -0.182 NA
ATOM     44  N   UNL     1      -4.559  12.851  21.462  0.00  0.00    -0.284 N 
ATOM     45  C   UNL     1      -3.882  13.081  20.301  0.00  0.00    +0.027 A 
ATOM     46  H   UNL     1      -1.679  12.573  22.642  0.00  0.00    +0.085 HD
ATOM     47  H   UNL     1      -5.563  12.813  21.606  0.00  0.00    +0.188 HD
ATOM     48  H   UNL     1      -4.404  13.251  19.369  0.00  0.00    +0.083 HD
ENDBRANCH   8  41
TORSDOF 6
ENDMDL
MODEL 22
REMARK VINA RESULT:    -7.482      2.423      8.689
REMARK INTER + INTRA:          -9.267
REMARK INTER:                  -9.010
REMARK INTRA:                  -0.257
REMARK UNBOUND:                 0.621
REMARK  Name = 
REMARK  6 active torsions:
REMARK  status: ('A' for Active; 'I' for Inactive)
REMARK    1  A    between atoms: C_1  and  C_2
REMARK    2  A    between atoms: C_4  and  C_5
REMARK    3  A    between atoms: C_5  and  O_6
REMARK    4  A    between atoms: O_6  and  C_7
REMARK    5  A    between atoms: C_11  and  C_12
REMARK    6  A    between atoms: C_19  and  C_20
REMARK                            x       y       z     vdW  Elec       q    Type
REMARK                         _______ _______ _______ _____ _____    ______ ____
ROOT
ATOM      1  C   UNL     1       0.420  10.329  20.059  0.00  0.00    +0.247 C 
ATOM      2  O   UNL     1       0.792  10.712  21.167  0.00  0.00    -0.270 OA
ATOM      3  N   UNL     1      -0.722  10.812  19.407  0.00  0.00    -0.290 N 
ATOM      4  C   UNL     1      -1.482   9.994  18.458  0.00  0.00    +0.016 C 
ATOM      5  C   UNL     1      -2.280  10.848  17.482  0.00  0.00    -0.037 C 
ATOM      6  C   UNL     1      -3.188  11.862  18.177  0.00  0.00    -0.050 C 
ATOM      7  C   UNL     1      -2.925  11.977  19.678  0.00  0.00    -0.030 C 
ATOM      8  C   UNL     1      -1.435  11.921  20.053  0.00  0.00    +0.054 C 
ATOM      9  H   UNL     1      -2.153   9.355  19.047  0.00  0.00    +0.046 HD
ATOM     10  H   UNL     1      -0.832   9.318  17.898  0.00  0.00    +0.046 HD
ATOM     11  H   UNL     1      -1.585  11.382  16.822  0.00  0.00    +0.028 HD
ATOM     12  H   UNL     1      -2.880  10.203  16.829  0.00  0.00    +0.028 HD
ATOM     13  H   UNL     1      -3.067  12.841  17.698  0.00  0.00    +0.027 HD
ATOM     14  H   UNL     1      -4.237  11.582  18.023  0.00  0.00    +0.027 HD
ATOM     15  H   UNL     1      -3.395  12.890  20.066  0.00  0.00    +0.029 HD
ATOM     16  H   UNL     1      -3.434  11.138  20.173  0.00  0.00    +0.029 HD
ATOM     17  H   UNL     1      -1.393  11.759  21.138  0.00  0.00    +0.055 HD
ENDROOT
BRANCH   1  22
ATOM     18  C   UNL     1       2.395   7.179  19.453  0.00  0.00    +0.122 A 
ATOM     19  C   UNL     1       2.836   7.389  18.143  0.00  0.00    -0.020 A 
ATOM     20  C   UNL     1       2.494   8.563  17.459  0.00  0.00    -0.058 A 
ATOM     21  C   UNL     1       1.701   9.528  18.077  0.00  0.00    -0.049 A 
ATOM     22  C   UNL     1       1.244   9.308  19.379  0.00  0.00    +0.040 A 
ATOM     23  C   UNL     1       1.608   8.152  20.074  0.00  0.00    -0.008 A 
ATOM     24  H   UNL     1       3.473   6.677  17.629  0.00  0.00    +0.065 HD
ATOM     25  H   UNL     1       2.864   8.728  16.451  0.00  0.00    +0.062 HD
ATOM     26  H   UNL     1       1.456  10.450  17.556  0.00  0.00    +0.063 HD
ATOM     27  H   UNL     1       1.282   8.013  21.102  0.00  0.00    +0.066 HD
BRANCH  18  28
ATOM     28  O   UNL     1       2.673   6.094  20.235  0.00  0.00    -0.484 OA
BRANCH  28  29
ATOM     29  C   UNL     1       2.831   4.814  19.603  0.00  0.00    +0.152 C 
ATOM     30  H   UNL     1       1.952   4.570  18.992  0.00  0.00    +0.078 HD
ATOM     31  H   UNL     1       2.837   4.081  20.418  0.00  0.00    +0.078 HD
BRANCH  29  34
ATOM     32  C   UNL     1       6.119   4.717  18.287  0.00  0.00    +0.224 A 
ATOM     33  N   UNL     1       5.330   5.066  19.277  0.00  0.00    -0.193 NA
ATOM     34  C   UNL     1       4.100   4.640  18.835  0.00  0.00    +0.209 A 
ATOM     35  N   UNL     1       4.115   4.055  17.626  0.00  0.00    -0.058 NA
ATOM     36  O   UNL     1       5.462   4.104  17.261  0.00  0.00    -0.338 OA
BRANCH  32  37
ATOM     37  C   UNL     1       7.574   4.887  18.137  0.00  0.00    +0.015 C 
ATOM     38  H   UNL     1       7.814   5.905  17.812  0.00  0.00    +0.032 HD
ATOM     39  H   UNL     1       8.081   4.704  19.090  0.00  0.00    +0.032 HD
ATOM     40  H   UNL     1       7.970   4.189  17.393  0.00  0.00    +0.032 HD
ENDBRANCH  32  37
ENDBRANCH  29  34
ENDBRANCH  28  29
ENDBRANCH  18  28
ENDBRANCH   1  22
BRANCH   8  41
ATOM     41  C   UNL     1      -0.718  13.210  19.758  0.00  0.00    +0.010 A 
ATOM     42  C   UNL     1      -0.145  13.662  18.546  0.00  0.00    +0.054 A 
ATOM     43  N   UNL     1       0.417  14.870  18.651  0.00  0.00    -0.182 NA
ATOM     44  N   UNL     1       0.240  15.186  19.943  0.00  0.00    -0.284 N 
ATOM     45  C   UNL     1      -0.450  14.239  20.640  0.00  0.00    +0.027 A 
ATOM     46  H   UNL     1      -0.112  13.162  17.588  0.00  0.00    +0.085 HD
ATOM     47  H   UNL     1       0.616  16.065  20.282  0.00  0.00    +0.188 HD
ATOM     48  H   UNL     1      -0.664  14.360  21.693  0.00  0.00    +0.083 HD
ENDBRANCH   8  41
TORSDOF 6
ENDMDL
MODEL 23
REMARK VINA RESULT:    -7.439      3.146      8.827
REMARK INTER + INTRA:          -9.210
REMARK INTER:                  -8.438
REMARK INTRA:                  -0.773
REMARK UNBOUND:                 0.621
REMARK  Name = 
REMARK  6 active torsions:
REMARK  status: ('A' for Active; 'I' for Inactive)
REMARK    1  A    between atoms: C_1  and  C_2
REMARK    2  A    between atoms: C_4  and  C_5
REMARK    3  A    between atoms: C_5  and  O_6
REMARK    4  A    between atoms: O_6  and  C_7
REMARK    5  A    between atoms: C_11  and  C_12
REMARK    6  A    between atoms: C_19  and  C_20
REMARK                            x       y       z     vdW  Elec       q    Type
REMARK                         _______ _______ _______ _____ _____    ______ ____
ROOT
ATOM      1  C   UNL     1      -0.209  10.682  19.135  0.00  0.00    +0.247 C 
ATOM      2  O   UNL     1      -1.357  10.475  18.744  0.00  0.00    -0.270 OA
ATOM      3  N   UNL     1       0.200  11.862  19.770  0.00  0.00    -0.290 N 
ATOM      4  C   UNL     1       1.576  12.358  19.681  0.00  0.00    +0.016 C 
ATOM      5  C   UNL     1       1.930  13.267  20.849  0.00  0.00    -0.037 C 
ATOM      6  C   UNL     1       0.945  14.422  21.028  0.00  0.00    -0.050 C 
ATOM      7  C   UNL     1      -0.308  14.285  20.166  0.00  0.00    -0.030 C 
ATOM      8  C   UNL     1      -0.845  12.847  20.077  0.00  0.00    +0.054 C 
ATOM      9  H   UNL     1       1.664  12.900  18.731  0.00  0.00    +0.046 HD
ATOM     10  H   UNL     1       2.297  11.538  19.631  0.00  0.00    +0.046 HD
ATOM     11  H   UNL     1       1.957  12.673  21.771  0.00  0.00    +0.028 HD
ATOM     12  H   UNL     1       2.944  13.665  20.716  0.00  0.00    +0.028 HD
ATOM     13  H   UNL     1       0.668  14.498  22.086  0.00  0.00    +0.027 HD
ATOM     14  H   UNL     1       1.441  15.369  20.782  0.00  0.00    +0.027 HD
ATOM     15  H   UNL     1      -1.083  14.972  20.529  0.00  0.00    +0.029 HD
ATOM     16  H   UNL     1      -0.056  14.619  19.150  0.00  0.00    +0.029 HD
ATOM     17  H   UNL     1      -1.569  12.835  19.251  0.00  0.00    +0.055 HD
ENDROOT
BRANCH   1  22
ATOM     18  C   UNL     1       1.925   7.643  19.765  0.00  0.00    +0.122 A 
ATOM     19  C   UNL     1       2.685   7.604  18.592  0.00  0.00    -0.020 A 
ATOM     20  C   UNL     1       2.506   8.574  17.598  0.00  0.00    -0.058 A 
ATOM     21  C   UNL     1       1.558   9.582  17.766  0.00  0.00    -0.049 A 
ATOM     22  C   UNL     1       0.785   9.608  18.929  0.00  0.00    +0.040 A 
ATOM     23  C   UNL     1       0.983   8.660  19.935  0.00  0.00    -0.008 A 
ATOM     24  H   UNL     1       3.450   6.851  18.427  0.00  0.00    +0.065 HD
ATOM     25  H   UNL     1       3.120   8.549  16.702  0.00  0.00    +0.062 HD
ATOM     26  H   UNL     1       1.436  10.349  17.006  0.00  0.00    +0.063 HD
ATOM     27  H   UNL     1       0.405   8.717  20.855  0.00  0.00    +0.066 HD
BRANCH  18  28
ATOM     28  O   UNL     1       2.016   6.774  20.816  0.00  0.00    -0.484 OA
BRANCH  28  29
ATOM     29  C   UNL     1       1.202   5.591  20.802  0.00  0.00    +0.152 C 
ATOM     30  H   UNL     1       0.354   5.709  20.115  0.00  0.00    +0.078 HD
ATOM     31  H   UNL     1       0.763   5.522  21.804  0.00  0.00    +0.078 HD
BRANCH  29  34
ATOM     32  C   UNL     1       2.879   2.725  19.566  0.00  0.00    +0.224 A 
ATOM     33  N   UNL     1       2.264   3.853  19.296  0.00  0.00    -0.193 NA
ATOM     34  C   UNL     1       1.942   4.318  20.549  0.00  0.00    +0.209 A 
ATOM     35  N   UNL     1       2.332   3.521  21.557  0.00  0.00    -0.058 NA
ATOM     36  O   UNL     1       2.960   2.459  20.902  0.00  0.00    -0.338 OA
BRANCH  32  37
ATOM     37  C   UNL     1       3.481   1.738  18.655  0.00  0.00    +0.015 C 
ATOM     38  H   UNL     1       2.820   1.543  17.804  0.00  0.00    +0.032 HD
ATOM     39  H   UNL     1       4.436   2.107  18.268  0.00  0.00    +0.032 HD
ATOM     40  H   UNL     1       3.659   0.791  19.174  0.00  0.00    +0.032 HD
ENDBRANCH  32  37
ENDBRANCH  29  34
ENDBRANCH  28  29
ENDBRANCH  18  28
ENDBRANCH   1  22
BRANCH   8  41
ATOM     41  C   UNL     1      -1.571  12.424  21.325  0.00  0.00    +0.010 A 
ATOM     42  C   UNL     1      -1.101  11.672  22.428  0.00  0.00    +0.054 A 
ATOM     43  N   UNL     1      -2.031  11.483  23.368  0.00  0.00    -0.182 NA
ATOM     44  N   UNL     1      -3.117  12.083  22.857  0.00  0.00    -0.284 N 
ATOM     45  C   UNL     1      -2.890  12.677  21.651  0.00  0.00    +0.027 A 
ATOM     46  H   UNL     1      -0.117  11.253  22.587  0.00  0.00    +0.085 HD
ATOM     47  H   UNL     1      -3.983  12.048  23.386  0.00  0.00    +0.188 HD
ATOM     48  H   UNL     1      -3.677  13.196  21.122  0.00  0.00    +0.083 HD
ENDBRANCH   8  41
TORSDOF 6
ENDMDL
MODEL 24
REMARK VINA RESULT:    -7.358      2.693      8.047
REMARK INTER + INTRA:          -9.103
REMARK INTER:                  -8.340
REMARK INTRA:                  -0.763
REMARK UNBOUND:                 0.621
REMARK  Name = 
REMARK  6 active torsions:
REMARK  status: ('A' for Active; 'I' for Inactive)
REMARK    1  A    between atoms: C_1  and  C_2
REMARK    2  A    between atoms: C_4  and  C_5
REMARK    3  A    between atoms: C_5  and  O_6
REMARK    4  A    between atoms: O_6  and  C_7
REMARK    5  A    between atoms: C_11  and  C_12
REMARK    6  A    between atoms: C_19  and  C_20
REMARK                            x       y       z     vdW  Elec       q    Type
REMARK                         _______ _______ _______ _____ _____    ______ ____
ROOT
ATOM      1  C   UNL     1       1.085   9.645  20.323  0.00  0.00    +0.247 C 
ATOM      2  O   UNL     1       1.564  10.227  21.296  0.00  0.00    -0.270 OA
ATOM      3  N   UNL     1       0.179  10.229  19.429  0.00  0.00    -0.290 N 
ATOM      4  C   UNL     1      -0.814   9.438  18.697  0.00  0.00    +0.016 C 
ATOM      5  C   UNL     1      -1.269  10.135  17.422  0.00  0.00    -0.037 C 
ATOM      6  C   UNL     1      -1.776  11.556  17.665  0.00  0.00    -0.050 C 
ATOM      7  C   UNL     1      -1.493  12.064  19.078  0.00  0.00    -0.030 C 
ATOM      8  C   UNL     1      -0.113  11.656  19.618  0.00  0.00    +0.054 C 
ATOM      9  H   UNL     1      -1.664   9.280  19.373  0.00  0.00    +0.046 HD
ATOM     10  H   UNL     1      -0.434   8.445  18.449  0.00  0.00    +0.046 HD
ATOM     11  H   UNL     1      -0.432  10.169  16.714  0.00  0.00    +0.028 HD
ATOM     12  H   UNL     1      -2.053   9.543  16.935  0.00  0.00    +0.028 HD
ATOM     13  H   UNL     1      -1.326  12.230  16.926  0.00  0.00    +0.027 HD
ATOM     14  H   UNL     1      -2.857  11.597  17.486  0.00  0.00    +0.027 HD
ATOM     15  H   UNL     1      -1.622  13.154  19.112  0.00  0.00    +0.029 HD
ATOM     16  H   UNL     1      -2.259  11.646  19.745  0.00  0.00    +0.029 HD
ATOM     17  H   UNL     1      -0.130  11.853  20.699  0.00  0.00    +0.055 HD
ENDROOT
BRANCH   1  22
ATOM     18  C   UNL     1       2.589   6.617  18.661  0.00  0.00    +0.122 A 
ATOM     19  C   UNL     1       2.279   5.621  19.592  0.00  0.00    -0.020 A 
ATOM     20  C   UNL     1       1.573   5.936  20.760  0.00  0.00    -0.058 A 
ATOM     21  C   UNL     1       1.182   7.251  21.009  0.00  0.00    -0.049 A 
ATOM     22  C   UNL     1       1.510   8.249  20.088  0.00  0.00    +0.040 A 
ATOM     23  C   UNL     1       2.188   7.932  18.909  0.00  0.00    -0.008 A 
ATOM     24  H   UNL     1       2.544   4.581  19.432  0.00  0.00    +0.065 HD
ATOM     25  H   UNL     1       1.315   5.150  21.464  0.00  0.00    +0.062 HD
ATOM     26  H   UNL     1       0.613   7.492  21.902  0.00  0.00    +0.063 HD
ATOM     27  H   UNL     1       2.399   8.710  18.179  0.00  0.00    +0.066 HD
BRANCH  18  28
ATOM     28  O   UNL     1       3.251   6.440  17.479  0.00  0.00    -0.484 OA
BRANCH  28  29
ATOM     29  C   UNL     1       4.343   5.509  17.435  0.00  0.00    +0.152 C 
ATOM     30  H   UNL     1       4.341   4.949  16.491  0.00  0.00    +0.078 HD
ATOM     31  H   UNL     1       4.133   4.770  18.218  0.00  0.00    +0.078 HD
BRANCH  29  34
ATOM     32  C   UNL     1       7.295   7.433  17.811  0.00  0.00    +0.224 A 
ATOM     33  N   UNL     1       6.056   7.374  17.380  0.00  0.00    -0.193 NA
ATOM     34  C   UNL     1       5.686   6.095  17.724  0.00  0.00    +0.209 A 
ATOM     35  N   UNL     1       6.646   5.384  18.337  0.00  0.00    -0.058 NA
ATOM     36  O   UNL     1       7.718   6.277  18.399  0.00  0.00    -0.338 OA
BRANCH  32  37
ATOM     37  C   UNL     1       8.261   8.542  17.754  0.00  0.00    +0.015 C 
ATOM     38  H   UNL     1       7.742   9.505  17.701  0.00  0.00    +0.032 HD
ATOM     39  H   UNL     1       8.894   8.544  18.647  0.00  0.00    +0.032 HD
ATOM     40  H   UNL     1       8.903   8.451  16.873  0.00  0.00    +0.032 HD
ENDBRANCH  32  37
ENDBRANCH  29  34
ENDBRANCH  28  29
ENDBRANCH  18  28
ENDBRANCH   1  22
BRANCH   8  41
ATOM     41  C   UNL     1       1.004  12.472  19.026  0.00  0.00    +0.010 A 
ATOM     42  C   UNL     1       1.236  13.866  19.102  0.00  0.00    +0.054 A 
ATOM     43  N   UNL     1       2.336  14.250  18.448  0.00  0.00    -0.182 NA
ATOM     44  N   UNL     1       2.798  13.108  17.918  0.00  0.00    -0.284 N 
ATOM     45  C   UNL     1       2.052  12.016  18.250  0.00  0.00    +0.027 A 
ATOM     46  H   UNL     1       0.648  14.620  19.607  0.00  0.00    +0.085 HD
ATOM     47  H   UNL     1       3.630  13.146  17.338  0.00  0.00    +0.188 HD
ATOM     48  H   UNL     1       2.307  11.029  17.890  0.00  0.00    +0.083 HD
ENDBRANCH   8  41
TORSDOF 6
ENDMDL
MODEL 25
REMARK VINA RESULT:    -7.333      3.029      4.492
REMARK INTER + INTRA:          -9.070
REMARK INTER:                  -8.951
REMARK INTRA:                  -0.119
REMARK UNBOUND:                 0.621
REMARK  Name = 
REMARK  6 active torsions:
REMARK  status: ('A' for Active; 'I' for Inactive)
REMARK    1  A    between atoms: C_1  and  C_2
REMARK    2  A    between atoms: C_4  and  C_5
REMARK    3  A    between atoms: C_5  and  O_6
REMARK    4  A    between atoms: O_6  and  C_7
REMARK    5  A    between atoms: C_11  and  C_12
REMARK    6  A    between atoms: C_19  and  C_20
REMARK                            x       y       z     vdW  Elec       q    Type
REMARK                         _______ _______ _______ _____ _____    ______ ____
ROOT
ATOM      1  C   UNL     1       2.717   6.483  19.596  0.00  0.00    +0.247 C 
ATOM      2  O   UNL     1       2.399   6.004  20.683  0.00  0.00    -0.270 OA
ATOM      3  N   UNL     1       3.667   5.916  18.738  0.00  0.00    -0.290 N 
ATOM      4  C   UNL     1       4.466   6.725  17.813  0.00  0.00    +0.016 C 
ATOM      5  C   UNL     1       4.974   5.907  16.634  0.00  0.00    -0.037 C 
ATOM      6  C   UNL     1       5.738   4.654  17.060  0.00  0.00    -0.050 C 
ATOM      7  C   UNL     1       5.621   4.355  18.553  0.00  0.00    -0.030 C 
ATOM      8  C   UNL     1       4.219   4.612  19.128  0.00  0.00    +0.054 C 
ATOM      9  H   UNL     1       5.306   7.137  18.387  0.00  0.00    +0.046 HD
ATOM     10  H   UNL     1       3.902   7.584  17.440  0.00  0.00    +0.046 HD
ATOM     11  H   UNL     1       4.123   5.613  16.008  0.00  0.00    +0.028 HD
ATOM     12  H   UNL     1       5.614   6.531  15.998  0.00  0.00    +0.028 HD
ATOM     13  H   UNL     1       5.380   3.798  16.475  0.00  0.00    +0.027 HD
ATOM     14  H   UNL     1       6.799   4.766  16.804  0.00  0.00    +0.027 HD
ATOM     15  H   UNL     1       5.944   3.325  18.750  0.00  0.00    +0.029 HD
ATOM     16  H   UNL     1       6.332   5.004  19.083  0.00  0.00    +0.029 HD
ATOM     17  H   UNL     1       4.325   4.608  20.222  0.00  0.00    +0.055 HD
ENDROOT
BRANCH   1  22
ATOM     18  C   UNL     1       1.037   9.851  19.764  0.00  0.00    +0.122 A 
ATOM     19  C   UNL     1       0.714  10.055  18.420  0.00  0.00    -0.020 A 
ATOM     20  C   UNL     1       1.039   9.090  17.458  0.00  0.00    -0.058 A 
ATOM     21  C   UNL     1       1.698   7.921  17.833  0.00  0.00    -0.049 A 
ATOM     22  C   UNL     1       2.038   7.727  19.175  0.00  0.00    +0.040 A 
ATOM     23  C   UNL     1       1.689   8.674  20.140  0.00  0.00    -0.008 A 
ATOM     24  H   UNL     1       0.183  10.939  18.083  0.00  0.00    +0.065 HD
ATOM     25  H   UNL     1       0.760   9.247  16.419  0.00  0.00    +0.062 HD
ATOM     26  H   UNL     1       1.928   7.161  17.092  0.00  0.00    +0.063 HD
ATOM     27  H   UNL     1       1.920   8.491  21.187  0.00  0.00    +0.066 HD
BRANCH  18  28
ATOM     28  O   UNL     1       0.759  10.698  20.800  0.00  0.00    -0.484 OA
BRANCH  28  29
ATOM     29  C   UNL     1       0.363  12.045  20.498  0.00  0.00    +0.152 C 
ATOM     30  H   UNL     1      -0.194  12.485  21.335  0.00  0.00    +0.078 HD
ATOM     31  H   UNL     1      -0.356  11.964  19.674  0.00  0.00    +0.078 HD
BRANCH  29  34
ATOM     32  C   UNL     1       2.656  14.178  18.841  0.00  0.00    +0.224 A 
ATOM     33  N   UNL     1       1.535  13.498  18.785  0.00  0.00    -0.193 NA
ATOM     34  C   UNL     1       1.467  12.942  20.041  0.00  0.00    +0.209 A 
ATOM     35  N   UNL     1       2.496  13.256  20.845  0.00  0.00    -0.058 NA
ATOM     36  O   UNL     1       3.288  14.083  20.046  0.00  0.00    -0.338 OA
BRANCH  32  37
ATOM     37  C   UNL     1       3.305  15.011  17.814  0.00  0.00    +0.015 C 
ATOM     38  H   UNL     1       4.245  15.427  18.191  0.00  0.00    +0.032 HD
ATOM     39  H   UNL     1       3.528  14.416  16.924  0.00  0.00    +0.032 HD
ATOM     40  H   UNL     1       2.656  15.842  17.524  0.00  0.00    +0.032 HD
ENDBRANCH  32  37
ENDBRANCH  29  34
ENDBRANCH  28  29
ENDBRANCH  18  28
ENDBRANCH   1  22
BRANCH   8  41
ATOM     41  C   UNL     1       3.238   3.530  18.763  0.00  0.00    +0.010 A 
ATOM     42  C   UNL     1       2.584   2.592  19.596  0.00  0.00    +0.054 A 
ATOM     43  N   UNL     1       1.773   1.771  18.923  0.00  0.00    -0.182 NA
ATOM     44  N   UNL     1       1.929   2.154  17.647  0.00  0.00    -0.284 N 
ATOM     45  C   UNL     1       2.775   3.213  17.501  0.00  0.00    +0.027 A 
ATOM     46  H   UNL     1       2.664   2.471  20.667  0.00  0.00    +0.085 HD
ATOM     47  H   UNL     1       1.426   1.648  16.925  0.00  0.00    +0.188 HD
ATOM     48  H   UNL     1       2.996   3.626  16.527  0.00  0.00    +0.083 HD
ENDBRANCH   8  41
TORSDOF 6
ENDMDL
MODEL 26
REMARK VINA RESULT:    -7.312      2.570      8.223
REMARK INTER + INTRA:          -9.043
REMARK INTER:                  -8.704
REMARK INTRA:                  -0.339
REMARK UNBOUND:                 0.621
REMARK  Name = 
REMARK  6 active torsions:
REMARK  status: ('A' for Active; 'I' for Inactive)
REMARK    1  A    between atoms: C_1  and  C_2
REMARK    2  A    between atoms: C_4  and  C_5
REMARK    3  A    between atoms: C_5  and  O_6
REMARK    4  A    between atoms: O_6  and  C_7
REMARK    5  A    between atoms: C_11  and  C_12
REMARK    6  A    between atoms: C_19  and  C_20
REMARK                            x       y       z     vdW  Elec       q    Type
REMARK                         _______ _______ _______ _____ _____    ______ ____
ROOT
ATOM      1  C   UNL     1       2.023   9.306  18.460  0.00  0.00    +0.247 C 
ATOM      2  O   UNL     1       2.355  10.242  17.735  0.00  0.00    -0.270 OA
ATOM      3  N   UNL     1       1.184   9.438  19.574  0.00  0.00    -0.290 N 
ATOM      4  C   UNL     1       1.275   8.542  20.730  0.00  0.00    +0.016 C 
ATOM      5  C   UNL     1      -0.030   8.487  21.512  0.00  0.00    -0.037 C 
ATOM      6  C   UNL     1      -0.534   9.868  21.932  0.00  0.00    -0.050 C 
ATOM      7  C   UNL     1       0.232  11.015  21.275  0.00  0.00    -0.030 C 
ATOM      8  C   UNL     1       0.587  10.760  19.801  0.00  0.00    +0.054 C 
ATOM      9  H   UNL     1       2.089   8.914  21.365  0.00  0.00    +0.046 HD
ATOM     10  H   UNL     1       1.559   7.529  20.433  0.00  0.00    +0.046 HD
ATOM     11  H   UNL     1      -0.796   7.997  20.899  0.00  0.00    +0.028 HD
ATOM     12  H   UNL     1       0.096   7.856  22.400  0.00  0.00    +0.028 HD
ATOM     13  H   UNL     1      -1.603   9.947  21.698  0.00  0.00    +0.027 HD
ATOM     14  H   UNL     1      -0.459   9.971  23.021  0.00  0.00    +0.027 HD
ATOM     15  H   UNL     1      -0.332  11.949  21.389  0.00  0.00    +0.029 HD
ATOM     16  H   UNL     1       1.169  11.156  21.833  0.00  0.00    +0.029 HD
ATOM     17  H   UNL     1       1.333  11.517  19.525  0.00  0.00    +0.055 HD
ENDROOT
BRANCH   1  22
ATOM     18  C   UNL     1       2.173   5.574  17.968  0.00  0.00    +0.122 A 
ATOM     19  C   UNL     1       3.490   5.416  17.528  0.00  0.00    -0.020 A 
ATOM     20  C   UNL     1       4.333   6.528  17.399  0.00  0.00    -0.058 A 
ATOM     21  C   UNL     1       3.860   7.804  17.698  0.00  0.00    -0.049 A 
ATOM     22  C   UNL     1       2.537   7.963  18.118  0.00  0.00    +0.040 A 
ATOM     23  C   UNL     1       1.704   6.853  18.276  0.00  0.00    -0.008 A 
ATOM     24  H   UNL     1       3.910   4.441  17.305  0.00  0.00    +0.065 HD
ATOM     25  H   UNL     1       5.363   6.391  17.082  0.00  0.00    +0.062 HD
ATOM     26  H   UNL     1       4.520   8.664  17.622  0.00  0.00    +0.063 HD
ATOM     27  H   UNL     1       0.689   6.985  18.645  0.00  0.00    +0.066 HD
BRANCH  18  28
ATOM     28  O   UNL     1       1.259   4.576  18.156  0.00  0.00    -0.484 OA
BRANCH  28  29
ATOM     29  C   UNL     1       1.713   3.214  18.126  0.00  0.00    +0.152 C 
ATOM     30  H   UNL     1       2.214   2.991  17.175  0.00  0.00    +0.078 HD
ATOM     31  H   UNL     1       0.805   2.600  18.132  0.00  0.00    +0.078 HD
BRANCH  29  34
ATOM     32  C   UNL     1       4.092   1.985  20.446  0.00  0.00    +0.224 A 
ATOM     33  N   UNL     1       3.756   2.158  19.188  0.00  0.00    -0.193 NA
ATOM     34  C   UNL     1       2.543   2.797  19.296  0.00  0.00    +0.209 A 
ATOM     35  N   UNL     1       2.136   3.013  20.557  0.00  0.00    -0.058 NA
ATOM     36  O   UNL     1       3.171   2.474  21.325  0.00  0.00    -0.338 OA
BRANCH  32  37
ATOM     37  C   UNL     1       5.294   1.359  21.022  0.00  0.00    +0.015 C 
ATOM     38  H   UNL     1       5.459   1.708  22.046  0.00  0.00    +0.032 HD
ATOM     39  H   UNL     1       5.186   0.271  21.044  0.00  0.00    +0.032 HD
ATOM     40  H   UNL     1       6.180   1.608  20.430  0.00  0.00    +0.032 HD
ENDBRANCH  32  37
ENDBRANCH  29  34
ENDBRANCH  28  29
ENDBRANCH  18  28
ENDBRANCH   1  22
BRANCH   8  41
ATOM     41  C   UNL     1      -0.595  10.933  18.886  0.00  0.00    +0.010 A 
ATOM     42  C   UNL     1      -1.472   9.957  18.357  0.00  0.00    +0.054 A 
ATOM     43  N   UNL     1      -2.420  10.476  17.571  0.00  0.00    -0.182 NA
ATOM     44  N   UNL     1      -2.135  11.787  17.562  0.00  0.00    -0.284 N 
ATOM     45  C   UNL     1      -1.070  12.114  18.347  0.00  0.00    +0.027 A 
ATOM     46  H   UNL     1      -1.461   8.887  18.510  0.00  0.00    +0.085 HD
ATOM     47  H   UNL     1      -2.710  12.403  16.997  0.00  0.00    +0.188 HD
ATOM     48  H   UNL     1      -0.726  13.135  18.433  0.00  0.00    +0.083 HD
ENDBRANCH   8  41
TORSDOF 6
ENDMDL
MODEL 27
REMARK VINA RESULT:    -7.310      2.923      4.540
REMARK INTER + INTRA:          -9.040
REMARK INTER:                  -8.734
REMARK INTRA:                  -0.306
REMARK UNBOUND:                 0.621
REMARK  Name = 
REMARK  6 active torsions:
REMARK  status: ('A' for Active; 'I' for Inactive)
REMARK    1  A    between atoms: C_1  and  C_2
REMARK    2  A    between atoms: C_4  and  C_5
REMARK    3  A    between atoms: C_5  and  O_6
REMARK    4  A    between atoms: O_6  and  C_7
REMARK    5  A    between atoms: C_11  and  C_12
REMARK    6  A    between atoms: C_19  and  C_20
REMARK                            x       y       z     vdW  Elec       q    Type
REMARK                         _______ _______ _______ _____ _____    ______ ____
ROOT
ATOM      1  C   UNL     1       2.080   7.213  19.916  0.00  0.00    +0.247 C 
ATOM      2  O   UNL     1       1.716   6.724  20.984  0.00  0.00    -0.270 OA
ATOM      3  N   UNL     1       3.004   6.610  19.053  0.00  0.00    -0.290 N 
ATOM      4  C   UNL     1       3.866   7.393  18.163  0.00  0.00    +0.016 C 
ATOM      5  C   UNL     1       4.338   6.578  16.966  0.00  0.00    -0.037 C 
ATOM      6  C   UNL     1       5.014   5.267  17.365  0.00  0.00    -0.050 C 
ATOM      7  C   UNL     1       4.856   4.932  18.847  0.00  0.00    -0.030 C 
ATOM      8  C   UNL     1       3.465   5.263  19.412  0.00  0.00    +0.054 C 
ATOM      9  H   UNL     1       4.723   7.733  18.759  0.00  0.00    +0.046 HD
ATOM     10  H   UNL     1       3.364   8.296  17.809  0.00  0.00    +0.046 HD
ATOM     11  H   UNL     1       3.479   6.358  16.321  0.00  0.00    +0.028 HD
ATOM     12  H   UNL     1       5.026   7.177  16.358  0.00  0.00    +0.028 HD
ATOM     13  H   UNL     1       4.610   4.453  16.750  0.00  0.00    +0.027 HD
ATOM     14  H   UNL     1       6.083   5.317  17.126  0.00  0.00    +0.027 HD
ATOM     15  H   UNL     1       5.109   3.878  19.017  0.00  0.00    +0.029 HD
ATOM     16  H   UNL     1       5.599   5.518  19.405  0.00  0.00    +0.029 HD
ATOM     17  H   UNL     1       3.555   5.220  20.506  0.00  0.00    +0.055 HD
ENDROOT
BRANCH   1  22
ATOM     18  C   UNL     1       0.610  10.673  20.164  0.00  0.00    +0.122 A 
ATOM     19  C   UNL     1       0.328  10.939  18.821  0.00  0.00    -0.020 A 
ATOM     20  C   UNL     1       0.610   9.987  17.834  0.00  0.00    -0.058 A 
ATOM     21  C   UNL     1       1.188   8.767  18.183  0.00  0.00    -0.049 A 
ATOM     22  C   UNL     1       1.488   8.509  19.523  0.00  0.00    +0.040 A 
ATOM     23  C   UNL     1       1.179   9.446  20.512  0.00  0.00    -0.008 A 
ATOM     24  H   UNL     1      -0.141  11.865  18.504  0.00  0.00    +0.065 HD
ATOM     25  H   UNL     1       0.363  10.193  16.796  0.00  0.00    +0.062 HD
ATOM     26  H   UNL     1       1.385   8.017  17.421  0.00  0.00    +0.063 HD
ATOM     27  H   UNL     1       1.378   9.216  21.557  0.00  0.00    +0.066 HD
BRANCH  18  28
ATOM     28  O   UNL     1       0.365  11.503  21.221  0.00  0.00    -0.484 OA
BRANCH  28  29
ATOM     29  C   UNL     1      -0.508  11.046  22.265  0.00  0.00    +0.152 C 
ATOM     30  H   UNL     1       0.021  11.005  23.226  0.00  0.00    +0.078 HD
ATOM     31  H   UNL     1      -0.748  10.006  22.016  0.00  0.00    +0.078 HD
BRANCH  29  34
ATOM     32  C   UNL     1      -3.595  12.548  23.143  0.00  0.00    +0.224 A 
ATOM     33  N   UNL     1      -2.583  11.796  23.510  0.00  0.00    -0.193 NA
ATOM     34  C   UNL     1      -1.800  11.788  22.380  0.00  0.00    +0.209 A 
ATOM     35  N   UNL     1      -2.297  12.496  21.353  0.00  0.00    -0.058 NA
ATOM     36  O   UNL     1      -3.493  13.006  21.863  0.00  0.00    -0.338 OA
BRANCH  32  37
ATOM     37  C   UNL     1      -4.788  12.958  23.903  0.00  0.00    +0.015 C 
ATOM     38  H   UNL     1      -4.908  14.046  23.876  0.00  0.00    +0.032 HD
ATOM     39  H   UNL     1      -5.688  12.504  23.476  0.00  0.00    +0.032 HD
ATOM     40  H   UNL     1      -4.705  12.649  24.949  0.00  0.00    +0.032 HD
ENDBRANCH  32  37
ENDBRANCH  29  34
ENDBRANCH  28  29
ENDBRANCH  18  28
ENDBRANCH   1  22
BRANCH   8  41
ATOM     41  C   UNL     1       2.422   4.258  19.002  0.00  0.00    +0.010 A 
ATOM     42  C   UNL     1       1.910   3.151  19.720  0.00  0.00    +0.054 A 
ATOM     43  N   UNL     1       0.984   2.469  19.040  0.00  0.00    -0.182 NA
ATOM     44  N   UNL     1       0.923   3.113  17.865  0.00  0.00    -0.284 N 
ATOM     45  C   UNL     1       1.744   4.200  17.800  0.00  0.00    +0.027 A 
ATOM     46  H   UNL     1       2.173   2.812  20.712  0.00  0.00    +0.085 HD
ATOM     47  H   UNL     1       0.296   2.757  17.150  0.00  0.00    +0.188 HD
ATOM     48  H   UNL     1       1.799   4.812  16.911  0.00  0.00    +0.083 HD
ENDBRANCH   8  41
TORSDOF 6
ENDMDL
MODEL 28
REMARK VINA RESULT:    -7.175      2.508      8.136
REMARK INTER + INTRA:          -8.861
REMARK INTER:                  -8.758
REMARK INTRA:                  -0.103
REMARK UNBOUND:                 0.621
REMARK  Name = 
REMARK  6 active torsions:
REMARK  status: ('A' for Active; 'I' for Inactive)
REMARK    1  A    between atoms: C_1  and  C_2
REMARK    2  A    between atoms: C_4  and  C_5
REMARK    3  A    between atoms: C_5  and  O_6
REMARK    4  A    between atoms: O_6  and  C_7
REMARK    5  A    between atoms: C_11  and  C_12
REMARK    6  A    between atoms: C_19  and  C_20
REMARK                            x       y       z     vdW  Elec       q    Type
REMARK                         _______ _______ _______ _____ _____    ______ ____
ROOT
ATOM      1  C   UNL     1       0.711  10.131  20.497  0.00  0.00    +0.247 C 
ATOM      2  O   UNL     1       1.127  10.750  21.475  0.00  0.00    -0.270 OA
ATOM      3  N   UNL     1      -0.231  10.638  19.593  0.00  0.00    -0.290 N 
ATOM      4  C   UNL     1      -1.144   9.766  18.849  0.00  0.00    +0.016 C 
ATOM      5  C   UNL     1      -1.642  10.424  17.569  0.00  0.00    -0.037 C 
ATOM      6  C   UNL     1      -2.272  11.796  17.808  0.00  0.00    -0.050 C 
ATOM      7  C   UNL     1      -2.049  12.324  19.224  0.00  0.00    -0.030 C 
ATOM      8  C   UNL     1      -0.646  12.034  19.780  0.00  0.00    +0.054 C 
ATOM      9  H   UNL     1      -1.985   9.535  19.515  0.00  0.00    +0.046 HD
ATOM     10  H   UNL     1      -0.678   8.809  18.604  0.00  0.00    +0.046 HD
ATOM     11  H   UNL     1      -0.803  10.531  16.870  0.00  0.00    +0.028 HD
ATOM     12  H   UNL     1      -2.367   9.768  17.073  0.00  0.00    +0.028 HD
ATOM     13  H   UNL     1      -1.872  12.508  17.074  0.00  0.00    +0.027 HD
ATOM     14  H   UNL     1      -3.350  11.745  17.616  0.00  0.00    +0.027 HD
ATOM     15  H   UNL     1      -2.271  13.398  19.257  0.00  0.00    +0.029 HD
ATOM     16  H   UNL     1      -2.785  11.841  19.882  0.00  0.00    +0.029 HD
ATOM     17  H   UNL     1      -0.693  12.227  20.860  0.00  0.00    +0.055 HD
ENDROOT
BRANCH   1  22
ATOM     18  C   UNL     1       2.476   7.242  18.845  0.00  0.00    +0.122 A 
ATOM     19  C   UNL     1       2.253   6.225  19.777  0.00  0.00    -0.020 A 
ATOM     20  C   UNL     1       1.519   6.480  20.942  0.00  0.00    -0.058 A 
ATOM     21  C   UNL     1       1.015   7.756  21.188  0.00  0.00    -0.049 A 
ATOM     22  C   UNL     1       1.257   8.777  20.265  0.00  0.00    +0.040 A 
ATOM     23  C   UNL     1       1.962   8.518  19.088  0.00  0.00    -0.008 A 
ATOM     24  H   UNL     1       2.607   5.211  19.619  0.00  0.00    +0.065 HD
ATOM     25  H   UNL     1       1.329   5.676  21.648  0.00  0.00    +0.062 HD
ATOM     26  H   UNL     1       0.425   7.948  22.080  0.00  0.00    +0.063 HD
ATOM     27  H   UNL     1       2.106   9.311  18.357  0.00  0.00    +0.066 HD
BRANCH  18  28
ATOM     28  O   UNL     1       3.153   7.122  17.664  0.00  0.00    -0.484 OA
BRANCH  28  29
ATOM     29  C   UNL     1       4.447   6.499  17.674  0.00  0.00    +0.152 C 
ATOM     30  H   UNL     1       5.164   7.098  18.253  0.00  0.00    +0.078 HD
ATOM     31  H   UNL     1       4.802   6.536  16.637  0.00  0.00    +0.078 HD
BRANCH  29  34
ATOM     32  C   UNL     1       4.015   3.024  18.214  0.00  0.00    +0.224 A 
ATOM     33  N   UNL     1       3.688   4.088  17.517  0.00  0.00    -0.193 NA
ATOM     34  C   UNL     1       4.458   5.067  18.100  0.00  0.00    +0.209 A 
ATOM     35  N   UNL     1       5.227   4.642  19.115  0.00  0.00    -0.058 NA
ATOM     36  O   UNL     1       4.935   3.278  19.190  0.00  0.00    -0.338 OA
BRANCH  32  37
ATOM     37  C   UNL     1       3.544   1.635  18.090  0.00  0.00    +0.015 C 
ATOM     38  H   UNL     1       4.250   0.943  18.561  0.00  0.00    +0.032 HD
ATOM     39  H   UNL     1       2.572   1.516  18.578  0.00  0.00    +0.032 HD
ATOM     40  H   UNL     1       3.442   1.354  17.037  0.00  0.00    +0.032 HD
ENDBRANCH  32  37
ENDBRANCH  29  34
ENDBRANCH  28  29
ENDBRANCH  18  28
ENDBRANCH   1  22
BRANCH   8  41
ATOM     41  C   UNL     1       0.404  12.944  19.201  0.00  0.00    +0.010 A 
ATOM     42  C   UNL     1       1.552  12.621  18.440  0.00  0.00    +0.054 A 
ATOM     43  N   UNL     1       2.267  13.694  18.090  0.00  0.00    -0.182 NA
ATOM     44  N   UNL     1       1.600  14.711  18.656  0.00  0.00    -0.284 N 
ATOM     45  C   UNL     1       0.471  14.319  19.311  0.00  0.00    +0.027 A 
ATOM     46  H   UNL     1       1.900  11.647  18.125  0.00  0.00    +0.085 HD
ATOM     47  H   UNL     1       1.973  15.650  18.555  0.00  0.00    +0.188 HD
ATOM     48  H   UNL     1      -0.164  15.034  19.817  0.00  0.00    +0.083 HD
ENDBRANCH   8  41
TORSDOF 6
ENDMDL
MODEL 29
REMARK VINA RESULT:    -7.073      3.351      8.856
REMARK INTER + INTRA:          -8.727
REMARK INTER:                  -8.529
REMARK INTRA:                  -0.198
REMARK UNBOUND:                 0.621
REMARK  Name = 
REMARK  6 active torsions:
REMARK  status: ('A' for Active; 'I' for Inactive)
REMARK    1  A    between atoms: C_1  and  C_2
REMARK    2  A    between atoms: C_4  and  C_5
REMARK    3  A    between atoms: C_5  and  O_6
REMARK    4  A    between atoms: O_6  and  C_7
REMARK    5  A    between atoms: C_11  and  C_12
REMARK    6  A    between atoms: C_19  and  C_20
REMARK                            x       y       z     vdW  Elec       q    Type
REMARK                         _______ _______ _______ _____ _____    ______ ____
ROOT
ATOM      1  C   UNL     1       0.159  10.406  21.196  0.00  0.00    +0.247 C 
ATOM      2  O   UNL     1       0.560  10.284  22.353  0.00  0.00    -0.270 OA
ATOM      3  N   UNL     1      -0.929  11.207  20.825  0.00  0.00    -0.290 N 
ATOM      4  C   UNL     1      -1.759  10.902  19.657  0.00  0.00    +0.016 C 
ATOM      5  C   UNL     1      -2.467  12.140  19.123  0.00  0.00    -0.037 C 
ATOM      6  C   UNL     1      -3.278  12.872  20.191  0.00  0.00    -0.050 C 
ATOM      7  C   UNL     1      -3.013  12.361  21.606  0.00  0.00    -0.030 C 
ATOM      8  C   UNL     1      -1.537  12.029  21.879  0.00  0.00    +0.054 C 
ATOM      9  H   UNL     1      -2.490  10.145  19.968  0.00  0.00    +0.046 HD
ATOM     10  H   UNL     1      -1.173  10.448  18.854  0.00  0.00    +0.046 HD
ATOM     11  H   UNL     1      -1.722  12.827  18.704  0.00  0.00    +0.028 HD
ATOM     12  H   UNL     1      -3.123  11.862  18.289  0.00  0.00    +0.028 HD
ATOM     13  H   UNL     1      -3.062  13.946  20.133  0.00  0.00    +0.027 HD
ATOM     14  H   UNL     1      -4.348  12.772  19.974  0.00  0.00    +0.027 HD
ATOM     15  H   UNL     1      -3.396  13.083  22.338  0.00  0.00    +0.029 HD
ATOM     16  H   UNL     1      -3.602  11.443  21.747  0.00  0.00    +0.029 HD
ATOM     17  H   UNL     1      -1.516  11.447  22.811  0.00  0.00    +0.055 HD
ENDROOT
BRANCH   1  22
ATOM     18  C   UNL     1       2.156   7.720  19.467  0.00  0.00    +0.122 A 
ATOM     19  C   UNL     1       2.301   8.276  18.193  0.00  0.00    -0.020 A 
ATOM     20  C   UNL     1       1.754   9.531  17.899  0.00  0.00    -0.058 A 
ATOM     21  C   UNL     1       1.047  10.233  18.874  0.00  0.00    -0.049 A 
ATOM     22  C   UNL     1       0.885   9.667  20.142  0.00  0.00    +0.040 A 
ATOM     23  C   UNL     1       1.456   8.430  20.446  0.00  0.00    -0.008 A 
ATOM     24  H   UNL     1       2.861   7.777  17.408  0.00  0.00    +0.065 HD
ATOM     25  H   UNL     1       1.895   9.965  16.913  0.00  0.00    +0.062 HD
ATOM     26  H   UNL     1       0.643  11.217  18.655  0.00  0.00    +0.063 HD
ATOM     27  H   UNL     1       1.360   8.020  21.449  0.00  0.00    +0.066 HD
BRANCH  18  28
ATOM     28  O   UNL     1       2.657   6.521  19.887  0.00  0.00    -0.484 OA
BRANCH  28  29
ATOM     29  C   UNL     1       1.762   5.579  20.500  0.00  0.00    +0.152 C 
ATOM     30  H   UNL     1       0.716   5.867  20.330  0.00  0.00    +0.078 HD
ATOM     31  H   UNL     1       1.923   5.677  21.580  0.00  0.00    +0.078 HD
BRANCH  29  34
ATOM     32  C   UNL     1       2.790   2.433  19.235  0.00  0.00    +0.224 A 
ATOM     33  N   UNL     1       2.953   3.736  19.234  0.00  0.00    -0.193 NA
ATOM     34  C   UNL     1       2.004   4.150  20.139  0.00  0.00    +0.209 A 
ATOM     35  N   UNL     1       1.279   3.157  20.680  0.00  0.00    -0.058 NA
ATOM     36  O   UNL     1       1.805   2.011  20.079  0.00  0.00    -0.338 OA
BRANCH  32  37
ATOM     37  C   UNL     1       3.507   1.394  18.477  0.00  0.00    +0.015 C 
ATOM     38  H   UNL     1       3.838   1.781  17.508  0.00  0.00    +0.032 HD
ATOM     39  H   UNL     1       4.389   1.056  19.030  0.00  0.00    +0.032 HD
ATOM     40  H   UNL     1       2.858   0.531  18.296  0.00  0.00    +0.032 HD
ENDBRANCH  32  37
ENDBRANCH  29  34
ENDBRANCH  28  29
ENDBRANCH  18  28
ENDBRANCH   1  22
BRANCH   8  41
ATOM     41  C   UNL     1      -0.699  13.260  22.092  0.00  0.00    +0.010 A 
ATOM     42  C   UNL     1       0.419  13.723  21.360  0.00  0.00    +0.054 A 
ATOM     43  N   UNL     1       0.921  14.866  21.838  0.00  0.00    -0.182 NA
ATOM     44  N   UNL     1       0.149  15.124  22.904  0.00  0.00    -0.284 N 
ATOM     45  C   UNL     1      -0.845  14.209  23.086  0.00  0.00    +0.027 A 
ATOM     46  H   UNL     1       0.892  13.276  20.496  0.00  0.00    +0.085 HD
ATOM     47  H   UNL     1       0.357  15.945  23.464  0.00  0.00    +0.188 HD
ATOM     48  H   UNL     1      -1.542  14.290  23.909  0.00  0.00    +0.083 HD
ENDBRANCH   8  41
TORSDOF 6
ENDMDL
MODEL 30
REMARK VINA RESULT:    -7.038      3.296      4.471
REMARK INTER + INTRA:          -8.680
REMARK INTER:                  -7.969
REMARK INTRA:                  -0.711
REMARK UNBOUND:                 0.621
REMARK  Name = 
REMARK  6 active torsions:
REMARK  status: ('A' for Active; 'I' for Inactive)
REMARK    1  A    between atoms: C_1  and  C_2
REMARK    2  A    between atoms: C_4  and  C_5
REMARK    3  A    between atoms: C_5  and  O_6
REMARK    4  A    between atoms: O_6  and  C_7
REMARK    5  A    between atoms: C_11  and  C_12
REMARK    6  A    between atoms: C_19  and  C_20
REMARK                            x       y       z     vdW  Elec       q    Type
REMARK                         _______ _______ _______ _____ _____    ______ ____
ROOT
ATOM      1  C   UNL     1       3.616   5.566  17.860  0.00  0.00    +0.247 C 
ATOM      2  O   UNL     1       2.927   4.643  17.429  0.00  0.00    -0.270 OA
ATOM      3  N   UNL     1       5.012   5.522  17.960  0.00  0.00    -0.290 N 
ATOM      4  C   UNL     1       5.747   6.285  18.973  0.00  0.00    +0.016 C 
ATOM      5  C   UNL     1       7.188   6.544  18.556  0.00  0.00    -0.037 C 
ATOM      6  C   UNL     1       7.941   5.268  18.182  0.00  0.00    -0.050 C 
ATOM      7  C   UNL     1       7.035   4.044  18.067  0.00  0.00    -0.030 C 
ATOM      8  C   UNL     1       5.679   4.337  17.404  0.00  0.00    +0.054 C 
ATOM      9  H   UNL     1       5.714   5.703  19.903  0.00  0.00    +0.046 HD
ATOM     10  H   UNL     1       5.258   7.237  19.192  0.00  0.00    +0.046 HD
ATOM     11  H   UNL     1       7.196   7.229  17.699  0.00  0.00    +0.028 HD
ATOM     12  H   UNL     1       7.719   7.063  19.362  0.00  0.00    +0.028 HD
ATOM     13  H   UNL     1       8.477   5.429  17.239  0.00  0.00    +0.027 HD
ATOM     14  H   UNL     1       8.715   5.065  18.933  0.00  0.00    +0.027 HD
ATOM     15  H   UNL     1       7.564   3.240  17.540  0.00  0.00    +0.029 HD
ATOM     16  H   UNL     1       6.845   3.669  19.082  0.00  0.00    +0.029 HD
ATOM     17  H   UNL     1       5.039   3.467  17.606  0.00  0.00    +0.055 HD
ENDROOT
BRANCH   1  22
ATOM     18  C   UNL     1       1.660   8.001  19.968  0.00  0.00    +0.122 A 
ATOM     19  C   UNL     1       1.549   9.083  19.090  0.00  0.00    -0.020 A 
ATOM     20  C   UNL     1       2.106   9.016  17.807  0.00  0.00    -0.058 A 
ATOM     21  C   UNL     1       2.788   7.871  17.398  0.00  0.00    -0.049 A 
ATOM     22  C   UNL     1       2.916   6.798  18.283  0.00  0.00    +0.040 A 
ATOM     23  C   UNL     1       2.335   6.851  19.552  0.00  0.00    -0.008 A 
ATOM     24  H   UNL     1       1.009   9.986  19.356  0.00  0.00    +0.065 HD
ATOM     25  H   UNL     1       1.991   9.853  17.123  0.00  0.00    +0.062 HD
ATOM     26  H   UNL     1       3.199   7.809  16.394  0.00  0.00    +0.063 HD
ATOM     27  H   UNL     1       2.405   5.992  20.216  0.00  0.00    +0.066 HD
BRANCH  18  28
ATOM     28  O   UNL     1       1.147   7.930  21.232  0.00  0.00    -0.484 OA
BRANCH  28  29
ATOM     29  C   UNL     1       1.435   8.994  22.152  0.00  0.00    +0.152 C 
ATOM     30  H   UNL     1       2.339   9.538  21.847  0.00  0.00    +0.078 HD
ATOM     31  H   UNL     1       1.691   8.504  23.099  0.00  0.00    +0.078 HD
BRANCH  29  34
ATOM     32  C   UNL     1      -1.007  11.556  22.301  0.00  0.00    +0.224 A 
ATOM     33  N   UNL     1       0.062  11.075  21.709  0.00  0.00    -0.193 NA
ATOM     34  C   UNL     1       0.298   9.923  22.422  0.00  0.00    +0.209 A 
ATOM     35  N   UNL     1      -0.577   9.693  23.414  0.00  0.00    -0.058 NA
ATOM     36  O   UNL     1      -1.450  10.780  23.332  0.00  0.00    -0.338 OA
BRANCH  32  37
ATOM     37  C   UNL     1      -1.775  12.778  22.012  0.00  0.00    +0.015 C 
ATOM     38  H   UNL     1      -1.104  13.617  21.802  0.00  0.00    +0.032 HD
ATOM     39  H   UNL     1      -2.417  12.628  21.138  0.00  0.00    +0.032 HD
ATOM     40  H   UNL     1      -2.406  13.049  22.864  0.00  0.00    +0.032 HD
ENDBRANCH  32  37
ENDBRANCH  29  34
ENDBRANCH  28  29
ENDBRANCH  18  28
ENDBRANCH   1  22
BRANCH   8  41
ATOM     41  C   UNL     1       5.787   4.485  15.911  0.00  0.00    +0.010 A 
ATOM     42  C   UNL     1       6.032   3.499  14.926  0.00  0.00    +0.054 A 
ATOM     43  N   UNL     1       6.062   3.995  13.685  0.00  0.00    -0.182 NA
ATOM     44  N   UNL     1       5.873   5.310  13.870  0.00  0.00    -0.284 N 
ATOM     45  C   UNL     1       5.682   5.650  15.176  0.00  0.00    +0.027 A 
ATOM     46  H   UNL     1       6.190   2.438  15.059  0.00  0.00    +0.085 HD
ATOM     47  H   UNL     1       5.885   5.919  13.058  0.00  0.00    +0.188 HD
ATOM     48  H   UNL     1       5.520   6.677  15.472  0.00  0.00    +0.083 HD
ENDBRANCH   8  41
TORSDOF 6
ENDMDL
MODEL 31
REMARK VINA RESULT:    -6.982      2.117      8.718
REMARK INTER + INTRA:          -8.606
REMARK INTER:                  -9.795
REMARK INTRA:                   1.189
REMARK UNBOUND:                 0.621
REMARK  Name = 
REMARK  6 active torsions:
REMARK  status: ('A' for Active; 'I' for Inactive)
REMARK    1  A    between atoms: C_1  and  C_2
REMARK    2  A    between atoms: C_4  and  C_5
REMARK    3  A    between atoms: C_5  and  O_6
REMARK    4  A    between atoms: O_6  and  C_7
REMARK    5  A    between atoms: C_11  and  C_12
REMARK    6  A    between atoms: C_19  and  C_20
REMARK                            x       y       z     vdW  Elec       q    Type
REMARK                         _______ _______ _______ _____ _____    ______ ____
ROOT
ATOM      1  C   UNL     1       0.618  10.656  19.583  0.00  0.00    +0.247 C 
ATOM      2  O   UNL     1       0.815  11.318  18.565  0.00  0.00    -0.270 OA
ATOM      3  N   UNL     1      -0.138  11.103  20.673  0.00  0.00    -0.290 N 
ATOM      4  C   UNL     1       0.116  10.642  22.041  0.00  0.00    +0.016 C 
ATOM      5  C   UNL     1      -1.114  10.781  22.927  0.00  0.00    -0.037 C 
ATOM      6  C   UNL     1      -1.692  12.196  22.929  0.00  0.00    -0.050 C 
ATOM      7  C   UNL     1      -1.076  13.101  21.864  0.00  0.00    -0.030 C 
ATOM      8  C   UNL     1      -0.820  12.395  20.522  0.00  0.00    +0.054 C 
ATOM      9  H   UNL     1       0.946  11.242  22.436  0.00  0.00    +0.046 HD
ATOM     10  H   UNL     1       0.457   9.603  22.058  0.00  0.00    +0.046 HD
ATOM     11  H   UNL     1      -1.884  10.079  22.585  0.00  0.00    +0.028 HD
ATOM     12  H   UNL     1      -0.868  10.483  23.953  0.00  0.00    +0.028 HD
ATOM     13  H   UNL     1      -2.779  12.140  22.791  0.00  0.00    +0.027 HD
ATOM     14  H   UNL     1      -1.540  12.654  23.913  0.00  0.00    +0.027 HD
ATOM     15  H   UNL     1      -1.703  13.991  21.727  0.00  0.00    +0.029 HD
ATOM     16  H   UNL     1      -0.112  13.464  22.248  0.00  0.00    +0.029 HD
ATOM     17  H   UNL     1      -0.161  13.056  19.943  0.00  0.00    +0.055 HD
ENDROOT
BRANCH   1  22
ATOM     18  C   UNL     1       2.472   7.538  18.565  0.00  0.00    +0.122 A 
ATOM     19  C   UNL     1       2.291   6.740  19.698  0.00  0.00    -0.020 A 
ATOM     20  C   UNL     1       1.558   7.216  20.792  0.00  0.00    -0.058 A 
ATOM     21  C   UNL     1       1.011   8.497  20.765  0.00  0.00    -0.049 A 
ATOM     22  C   UNL     1       1.209   9.303  19.640  0.00  0.00    +0.040 A 
ATOM     23  C   UNL     1       1.914   8.819  18.536  0.00  0.00    -0.008 A 
ATOM     24  H   UNL     1       2.680   5.728  19.757  0.00  0.00    +0.065 HD
ATOM     25  H   UNL     1       1.401   6.577  21.657  0.00  0.00    +0.062 HD
ATOM     26  H   UNL     1       0.421   8.858  21.603  0.00  0.00    +0.063 HD
ATOM     27  H   UNL     1       2.025   9.439  17.649  0.00  0.00    +0.066 HD
BRANCH  18  28
ATOM     28  O   UNL     1       3.144   7.188  17.429  0.00  0.00    -0.484 OA
BRANCH  28  29
ATOM     29  C   UNL     1       4.438   6.577  17.556  0.00  0.00    +0.152 C 
ATOM     30  H   UNL     1       5.104   7.198  18.169  0.00  0.00    +0.078 HD
ATOM     31  H   UNL     1       4.870   6.587  16.548  0.00  0.00    +0.078 HD
BRANCH  29  34
ATOM     32  C   UNL     1       3.926   3.135  18.219  0.00  0.00    +0.224 A 
ATOM     33  N   UNL     1       3.599   4.188  17.506  0.00  0.00    -0.193 NA
ATOM     34  C   UNL     1       4.425   5.159  18.023  0.00  0.00    +0.209 A 
ATOM     35  N   UNL     1       5.229   4.738  19.013  0.00  0.00    -0.058 NA
ATOM     36  O   UNL     1       4.899   3.387  19.142  0.00  0.00    -0.338 OA
BRANCH  32  37
ATOM     37  C   UNL     1       3.408   1.758  18.159  0.00  0.00    +0.015 C 
ATOM     38  H   UNL     1       2.949   1.475  19.111  0.00  0.00    +0.032 HD
ATOM     39  H   UNL     1       2.650   1.669  17.374  0.00  0.00    +0.032 HD
ATOM     40  H   UNL     1       4.215   1.051  17.944  0.00  0.00    +0.032 HD
ENDBRANCH  32  37
ENDBRANCH  29  34
ENDBRANCH  28  29
ENDBRANCH  18  28
ENDBRANCH   1  22
BRANCH   8  41
ATOM     41  C   UNL     1      -2.081  12.199  19.725  0.00  0.00    +0.010 A 
ATOM     42  C   UNL     1      -2.280  11.481  18.522  0.00  0.00    +0.054 A 
ATOM     43  N   UNL     1      -3.545  11.521  18.092  0.00  0.00    -0.182 NA
ATOM     44  N   UNL     1      -4.159  12.296  18.999  0.00  0.00    -0.284 N 
ATOM     45  C   UNL     1      -3.334  12.708  20.004  0.00  0.00    +0.027 A 
ATOM     46  H   UNL     1      -1.557  10.929  17.939  0.00  0.00    +0.085 HD
ATOM     47  H   UNL     1      -5.144  12.504  18.870  0.00  0.00    +0.188 HD
ATOM     48  H   UNL     1      -3.694  13.341  20.803  0.00  0.00    +0.083 HD
ENDBRANCH   8  41
TORSDOF 6
ENDMDL
MODEL 32
REMARK VINA RESULT:    -6.862      2.411      8.602
REMARK INTER + INTRA:          -8.447
REMARK INTER:                  -9.068
REMARK INTRA:                   0.621
REMARK UNBOUND:                 0.621
REMARK  Name = 
REMARK  6 active torsions:
REMARK  status: ('A' for Active; 'I' for Inactive)
REMARK    1  A    between atoms: C_1  and  C_2
REMARK    2  A    between atoms: C_4  and  C_5
REMARK    3  A    between atoms: C_5  and  O_6
REMARK    4  A    between atoms: O_6  and  C_7
REMARK    5  A    between atoms: C_11  and  C_12
REMARK    6  A    between atoms: C_19  and  C_20
REMARK                            x       y       z     vdW  Elec       q    Type
REMARK                         _______ _______ _______ _____ _____    ______ ____
ROOT
ATOM      1  C   UNL     1       1.562   9.499  19.240  0.00  0.00    +0.247 C 
ATOM      2  O   UNL     1       2.007  10.034  18.225  0.00  0.00    -0.270 OA
ATOM      3  N   UNL     1       0.827  10.174  20.223  0.00  0.00    -0.290 N 
ATOM      4  C   UNL     1       0.831   9.753  21.626  0.00  0.00    +0.016 C 
ATOM      5  C   UNL     1      -0.414  10.224  22.366  0.00  0.00    -0.037 C 
ATOM      6  C   UNL     1      -0.643  11.731  22.250  0.00  0.00    -0.050 C 
ATOM      7  C   UNL     1       0.269  12.403  21.226  0.00  0.00    -0.030 C 
ATOM      8  C   UNL     1       0.484  11.575  19.948  0.00  0.00    +0.054 C 
ATOM      9  H   UNL     1       1.735  10.172  22.087  0.00  0.00    +0.046 HD
ATOM     10  H   UNL     1       0.917   8.668  21.721  0.00  0.00    +0.046 HD
ATOM     11  H   UNL     1      -1.289   9.696  21.968  0.00  0.00    +0.028 HD
ATOM     12  H   UNL     1      -0.346   9.942  23.423  0.00  0.00    +0.028 HD
ATOM     13  H   UNL     1      -1.694  11.916  21.996  0.00  0.00    +0.027 HD
ATOM     14  H   UNL     1      -0.486  12.203  23.227  0.00  0.00    +0.027 HD
ATOM     15  H   UNL     1      -0.116  13.403  20.987  0.00  0.00    +0.029 HD
ATOM     16  H   UNL     1       1.248  12.560  21.700  0.00  0.00    +0.029 HD
ATOM     17  H   UNL     1       1.333  12.031  19.421  0.00  0.00    +0.055 HD
ENDROOT
BRANCH   1  22
ATOM     18  C   UNL     1       2.558   5.945  18.483  0.00  0.00    +0.122 A 
ATOM     19  C   UNL     1       2.248   5.318  19.693  0.00  0.00    -0.020 A 
ATOM     20  C   UNL     1       1.706   6.054  20.754  0.00  0.00    -0.058 A 
ATOM     21  C   UNL     1       1.482   7.423  20.616  0.00  0.00    -0.049 A 
ATOM     22  C   UNL     1       1.812   8.053  19.413  0.00  0.00    +0.040 A 
ATOM     23  C   UNL     1       2.324   7.316  18.343  0.00  0.00    -0.008 A 
ATOM     24  H   UNL     1       2.384   4.252  19.840  0.00  0.00    +0.065 HD
ATOM     25  H   UNL     1       1.443   5.552  21.682  0.00  0.00    +0.062 HD
ATOM     26  H   UNL     1       1.039   7.989  21.431  0.00  0.00    +0.063 HD
ATOM     27  H   UNL     1       2.536   7.809  17.397  0.00  0.00    +0.066 HD
BRANCH  18  28
ATOM     28  O   UNL     1       3.069   5.343  17.368  0.00  0.00    -0.484 OA
BRANCH  28  29
ATOM     29  C   UNL     1       4.324   4.653  17.474  0.00  0.00    +0.152 C 
ATOM     30  H   UNL     1       5.115   5.333  17.816  0.00  0.00    +0.078 HD
ATOM     31  H   UNL     1       4.596   4.375  16.448  0.00  0.00    +0.078 HD
BRANCH  29  34
ATOM     32  C   UNL     1       4.624   2.010  19.814  0.00  0.00    +0.224 A 
ATOM     33  N   UNL     1       4.910   3.253  19.502  0.00  0.00    -0.193 NA
ATOM     34  C   UNL     1       4.290   3.398  18.283  0.00  0.00    +0.209 A 
ATOM     35  N   UNL     1       3.650   2.300  17.849  0.00  0.00    -0.058 NA
ATOM     36  O   UNL     1       3.870   1.374  18.872  0.00  0.00    -0.338 OA
BRANCH  32  37
ATOM     37  C   UNL     1       4.990   1.230  21.009  0.00  0.00    +0.015 C 
ATOM     38  H   UNL     1       4.096   0.829  21.497  0.00  0.00    +0.032 HD
ATOM     39  H   UNL     1       5.637   0.391  20.734  0.00  0.00    +0.032 HD
ATOM     40  H   UNL     1       5.522   1.857  21.731  0.00  0.00    +0.032 HD
ENDBRANCH  32  37
ENDBRANCH  29  34
ENDBRANCH  28  29
ENDBRANCH  18  28
ENDBRANCH   1  22
BRANCH   8  41
ATOM     41  C   UNL     1      -0.703  11.622  19.025  0.00  0.00    +0.010 A 
ATOM     42  C   UNL     1      -1.719  10.659  18.818  0.00  0.00    +0.054 A 
ATOM     43  N   UNL     1      -2.624  11.040  17.912  0.00  0.00    -0.182 NA
ATOM     44  N   UNL     1      -2.174  12.237  17.505  0.00  0.00    -0.284 N 
ATOM     45  C   UNL     1      -1.044  12.638  18.153  0.00  0.00    +0.027 A 
ATOM     46  H   UNL     1      -1.839   9.694  19.289  0.00  0.00    +0.085 HD
ATOM     47  H   UNL     1      -2.689  12.725  16.779  0.00  0.00    +0.188 HD
ATOM     48  H   UNL     1      -0.569  13.582  17.924  0.00  0.00    +0.083 HD
ENDBRANCH   8  41
TORSDOF 6
ENDMDL
