MODEL 1
REMARK VINA RESULT:    -9.601      0.000      0.000
REMARK INTER + INTRA:         -14.974
REMARK INTER:                 -14.512
REMARK INTRA:                  -0.462
REMARK UNBOUND:                -1.163
REMARK  Name = 
REMARK  8 active torsions:
REMARK  status: ('A' for Active; 'I' for Inactive)
REMARK    1  A    between atoms: C_1  and  N_2
REMARK    2  A    between atoms: C_6  and  C_7
REMARK    3  A    between atoms: C_7  and  C_8
REMARK    4  A    between atoms: C_8  and  C_12
REMARK    5  A    between atoms: C_16  and  N_18
REMARK    6  A    between atoms: C_23  and  C_24
REMARK    7  A    between atoms: C_24  and  N_25
REMARK    8  A    between atoms: C_32  and  C_33
REMARK                            x       y       z     vdW  Elec       q    Type
REMARK                         _______ _______ _______ _____ _____    ______ ____
ROOT
ATOM      1  N   UNL     1       1.327   7.882  20.341  0.00  0.00    -0.263 N 
ATOM      2  C   UNL     1       1.311   6.529  20.876  0.00  0.00    +0.046 C 
ATOM      3  C   UNL     1       2.196   5.768  19.944  0.00  0.00    -0.006 A 
ATOM      4  C   UNL     1       2.667   6.619  18.953  0.00  0.00    +0.043 A 
ATOM      5  C   UNL     1       3.498   6.189  17.936  0.00  0.00    -0.045 A 
ATOM      6  C   UNL     1       3.878   4.837  17.918  0.00  0.00    -0.032 A 
ATOM      7  C   UNL     1       3.401   3.968  18.927  0.00  0.00    -0.045 A 
ATOM      8  C   UNL     1       2.553   4.423  19.957  0.00  0.00    +0.061 A 
ATOM      9  C   UNL     1       2.122   7.962  19.190  0.00  0.00    +0.251 C 
ATOM     10  O   UNL     1       2.371   8.896  18.450  0.00  0.00    -0.270 OA
ATOM     11  H   UNL     1       0.291   6.132  20.847  0.00  0.00    +0.052 HD
ATOM     12  H   UNL     1       1.721   6.527  21.893  0.00  0.00    +0.052 HD
ATOM     13  H   UNL     1       3.846   6.884  17.176  0.00  0.00    +0.063 HD
ATOM     14  H   UNL     1       3.697   2.918  18.906  0.00  0.00    +0.063 HD
ENDROOT
BRANCH   1  19
ATOM     15  C   UNL     1      -0.684  11.069  20.672  0.00  0.00    -0.035 A 
ATOM     16  C   UNL     1      -0.870  11.069  22.064  0.00  0.00    -0.058 A 
ATOM     17  C   UNL     1      -0.357  10.057  22.873  0.00  0.00    -0.060 A 
ATOM     18  C   UNL     1       0.370   9.007  22.312  0.00  0.00    -0.040 A 
ATOM     19  C   UNL     1       0.585   8.942  20.934  0.00  0.00    +0.037 A 
ATOM     20  C   UNL     1       0.042   9.974  20.141  0.00  0.00    -0.036 A 
ATOM     21  H   UNL     1      -1.449  11.866  22.532  0.00  0.00    +0.062 HD
ATOM     22  H   UNL     1      -0.530  10.081  23.946  0.00  0.00    +0.062 HD
ATOM     23  H   UNL     1       0.745   8.245  22.986  0.00  0.00    +0.064 HD
ATOM     24  H   UNL     1       0.179   9.956  19.063  0.00  0.00    +0.064 HD
BRANCH  15  25
ATOM     25  C   UNL     1      -1.257  12.243  19.739  0.00  0.00    +0.049 C 
ATOM     26  C   UNL     1      -0.973  13.715  20.168  0.00  0.00    +0.060 C 
ATOM     27  O   UNL     1      -0.645  14.069  18.794  0.00  0.00    -0.378 OA
ATOM     28  C   UNL     1      -0.375  12.664  18.526  0.00  0.00    +0.060 C 
ATOM     29  H   UNL     1      -0.108  13.868  20.824  0.00  0.00    +0.057 HD
ATOM     30  H   UNL     1      -1.814  14.298  20.546  0.00  0.00    +0.057 HD
ATOM     31  H   UNL     1      -0.728  12.361  17.536  0.00  0.00    +0.057 HD
ATOM     32  H   UNL     1       0.699  12.456  18.604  0.00  0.00    +0.057 HD
BRANCH  25  33
ATOM     33  C   UNL     1      -2.706  11.962  19.290  0.00  0.00    +0.021 C 
ATOM     34  H   UNL     1      -3.226  11.360  20.045  0.00  0.00    +0.035 HD
ATOM     35  H   UNL     1      -3.271  12.903  19.239  0.00  0.00    +0.035 HD
BRANCH  33  40
ATOM     36  N   UNL     1      -3.892  11.295  17.141  0.00  0.00    -0.320 N 
ATOM     37  C   UNL     1      -3.568  10.523  16.068  0.00  0.00    +0.120 A 
ATOM     38  N   UNL     1      -2.349  10.065  16.210  0.00  0.00    -0.138 NA
ATOM     39  N   UNL     1      -1.860  10.546  17.400  0.00  0.00    -0.135 NA
ATOM     40  C   UNL     1      -2.798  11.276  17.971  0.00  0.00    +0.134 A 
ATOM     41  H   UNL     1      -4.230  10.329  15.233  0.00  0.00    +0.105 HD
BRANCH  36  42
ATOM     42  C   UNL     1      -5.137  11.985  17.336  0.00  0.00    +0.014 C 
ATOM     43  H   UNL     1      -5.865  11.584  16.627  0.00  0.00    +0.046 HD
ATOM     44  H   UNL     1      -4.984  13.054  17.169  0.00  0.00    +0.046 HD
ATOM     45  H   UNL     1      -5.490  11.826  18.359  0.00  0.00    +0.046 HD
ENDBRANCH  36  42
ENDBRANCH  33  40
ENDBRANCH  25  33
ENDBRANCH  15  25
ENDBRANCH   1  19
BRANCH   8  46
ATOM     46  C   UNL     1       2.045   3.498  21.030  0.00  0.00    +0.418 C 
ATOM     47  F   UNL     1       2.555   2.240  20.911  0.00  0.00    -0.166 F 
ATOM     48  F   UNL     1       2.341   3.906  22.294  0.00  0.00    -0.166 F 
ATOM     49  F   UNL     1       0.692   3.353  20.987  0.00  0.00    -0.166 F 
ENDBRANCH   8  46
BRANCH   6  50
ATOM     50  C   UNL     1       4.761   4.306  16.803  0.00  0.00    +0.024 C 
ATOM     51  H   UNL     1       4.376   4.753  15.876  0.00  0.00    +0.048 HD
ATOM     52  H   UNL     1       4.638   3.220  16.697  0.00  0.00    +0.048 HD
BRANCH  50  53
ATOM     53  N   UNL     1       6.178   4.644  16.975  0.00  0.00    -0.298 NA
ATOM     54  C   UNL     1       6.593   5.833  16.214  0.00  0.00    -0.001 C 
ATOM     55  C   UNL     1       6.831   7.071  17.078  0.00  0.00    -0.040 C 
ATOM     56  C   UNL     1       7.889   6.812  18.149  0.00  0.00    -0.051 C 
ATOM     57  C   UNL     1       7.881   5.364  18.635  0.00  0.00    -0.040 C 
ATOM     58  C   UNL     1       6.524   4.702  18.403  0.00  0.00    -0.001 C 
ATOM     59  H   UNL     1       7.530   5.583  15.700  0.00  0.00    +0.043 HD
ATOM     60  H   UNL     1       5.883   6.086  15.418  0.00  0.00    +0.043 HD
ATOM     61  H   UNL     1       7.143   7.914  16.452  0.00  0.00    +0.028 HD
ATOM     62  H   UNL     1       5.889   7.367  17.557  0.00  0.00    +0.028 HD
ATOM     63  H   UNL     1       7.721   7.494  18.990  0.00  0.00    +0.027 HD
ATOM     64  H   UNL     1       8.885   7.048  17.756  0.00  0.00    +0.027 HD
ATOM     65  H   UNL     1       8.142   5.327  19.699  0.00  0.00    +0.028 HD
ATOM     66  H   UNL     1       8.659   4.796  18.107  0.00  0.00    +0.028 HD
ATOM     67  H   UNL     1       5.762   5.253  18.970  0.00  0.00    +0.043 HD
ATOM     68  H   UNL     1       6.553   3.683  18.805  0.00  0.00    +0.043 HD
ENDBRANCH  50  53
ENDBRANCH   6  50
TORSDOF 8
ENDMDL
MODEL 2
REMARK VINA RESULT:    -9.461      1.707      2.792
REMARK INTER + INTRA:         -14.773
REMARK INTER:                 -13.427
REMARK INTRA:                  -1.346
REMARK UNBOUND:                -1.163
REMARK  Name = 
REMARK  8 active torsions:
REMARK  status: ('A' for Active; 'I' for Inactive)
REMARK    1  A    between atoms: C_1  and  N_2
REMARK    2  A    between atoms: C_6  and  C_7
REMARK    3  A    between atoms: C_7  and  C_8
REMARK    4  A    between atoms: C_8  and  C_12
REMARK    5  A    between atoms: C_16  and  N_18
REMARK    6  A    between atoms: C_23  and  C_24
REMARK    7  A    between atoms: C_24  and  N_25
REMARK    8  A    between atoms: C_32  and  C_33
REMARK                            x       y       z     vdW  Elec       q    Type
REMARK                         _______ _______ _______ _____ _____    ______ ____
ROOT
ATOM      1  N   UNL     1       1.401   7.840  20.246  0.00  0.00    -0.263 N 
ATOM      2  C   UNL     1       1.331   6.494  20.795  0.00  0.00    +0.046 C 
ATOM      3  C   UNL     1       2.268   5.710  19.935  0.00  0.00    -0.006 A 
ATOM      4  C   UNL     1       2.817   6.543  18.969  0.00  0.00    +0.043 A 
ATOM      5  C   UNL     1       3.710   6.090  18.017  0.00  0.00    -0.045 A 
ATOM      6  C   UNL     1       4.073   4.733  18.041  0.00  0.00    -0.032 A 
ATOM      7  C   UNL     1       3.516   3.883  19.025  0.00  0.00    -0.045 A 
ATOM      8  C   UNL     1       2.606   4.361  19.989  0.00  0.00    +0.061 A 
ATOM      9  C   UNL     1       2.274   7.896  19.153  0.00  0.00    +0.251 C 
ATOM     10  O   UNL     1       2.586   8.817  18.421  0.00  0.00    -0.270 OA
ATOM     11  H   UNL     1       0.311   6.109  20.700  0.00  0.00    +0.052 HD
ATOM     12  H   UNL     1       1.670   6.500  21.837  0.00  0.00    +0.052 HD
ATOM     13  H   UNL     1       4.119   6.771  17.274  0.00  0.00    +0.063 HD
ATOM     14  H   UNL     1       3.800   2.830  19.037  0.00  0.00    +0.063 HD
ENDROOT
BRANCH   1  19
ATOM     15  C   UNL     1      -0.798  10.915  20.379  0.00  0.00    -0.035 A 
ATOM     16  C   UNL     1      -0.876  11.071  21.772  0.00  0.00    -0.058 A 
ATOM     17  C   UNL     1      -0.233  10.196  22.645  0.00  0.00    -0.060 A 
ATOM     18  C   UNL     1       0.520   9.133  22.149  0.00  0.00    -0.040 A 
ATOM     19  C   UNL     1       0.634   8.917  20.774  0.00  0.00    +0.037 A 
ATOM     20  C   UNL     1      -0.039   9.810  19.917  0.00  0.00    -0.036 A 
ATOM     21  H   UNL     1      -1.473  11.881  22.193  0.00  0.00    +0.062 HD
ATOM     22  H   UNL     1      -0.325  10.338  23.719  0.00  0.00    +0.062 HD
ATOM     23  H   UNL     1       0.999   8.481  22.872  0.00  0.00    +0.064 HD
ATOM     24  H   UNL     1       0.016   9.672  18.840  0.00  0.00    +0.064 HD
BRANCH  15  25
ATOM     25  C   UNL     1      -1.521  11.933  19.368  0.00  0.00    +0.049 C 
ATOM     26  C   UNL     1      -1.823  11.431  17.924  0.00  0.00    +0.060 C 
ATOM     27  O   UNL     1      -3.150  12.024  17.978  0.00  0.00    -0.378 OA
ATOM     28  C   UNL     1      -3.076  11.993  19.431  0.00  0.00    +0.060 C 
ATOM     29  H   UNL     1      -1.889  10.344  17.796  0.00  0.00    +0.057 HD
ATOM     30  H   UNL     1      -1.225  11.848  17.112  0.00  0.00    +0.057 HD
ATOM     31  H   UNL     1      -3.514  12.887  19.883  0.00  0.00    +0.057 HD
ATOM     32  H   UNL     1      -3.586  11.105  19.825  0.00  0.00    +0.057 HD
BRANCH  25  33
ATOM     33  C   UNL     1      -0.915  13.350  19.453  0.00  0.00    +0.021 C 
ATOM     34  H   UNL     1      -1.339  13.989  18.669  0.00  0.00    +0.035 HD
ATOM     35  H   UNL     1      -1.208  13.826  20.398  0.00  0.00    +0.035 HD
BRANCH  33  40
ATOM     36  N   UNL     1       1.431  13.790  20.332  0.00  0.00    -0.320 N 
ATOM     37  C   UNL     1       2.686  13.673  19.817  0.00  0.00    +0.120 A 
ATOM     38  N   UNL     1       2.615  13.197  18.598  0.00  0.00    -0.138 NA
ATOM     39  N   UNL     1       1.288  12.995  18.306  0.00  0.00    -0.135 NA
ATOM     40  C   UNL     1       0.571  13.368  19.347  0.00  0.00    +0.134 A 
ATOM     41  H   UNL     1       3.591  13.938  20.347  0.00  0.00    +0.105 HD
BRANCH  36  42
ATOM     42  C   UNL     1       1.104  14.259  21.651  0.00  0.00    +0.014 C 
ATOM     43  H   UNL     1       1.223  15.344  21.667  0.00  0.00    +0.046 HD
ATOM     44  H   UNL     1       1.771  13.786  22.374  0.00  0.00    +0.046 HD
ATOM     45  H   UNL     1       0.069  13.996  21.888  0.00  0.00    +0.046 HD
ENDBRANCH  36  42
ENDBRANCH  33  40
ENDBRANCH  25  33
ENDBRANCH  15  25
ENDBRANCH   1  19
BRANCH   8  46
ATOM     46  C   UNL     1       2.013   3.457  21.035  0.00  0.00    +0.418 C 
ATOM     47  F   UNL     1       2.348   3.840  22.298  0.00  0.00    -0.166 F 
ATOM     48  F   UNL     1       0.654   3.399  21.007  0.00  0.00    -0.166 F 
ATOM     49  F   UNL     1       2.448   2.172  20.912  0.00  0.00    -0.166 F 
ENDBRANCH   8  46
BRANCH   6  50
ATOM     50  C   UNL     1       5.023   4.178  16.996  0.00  0.00    +0.024 C 
ATOM     51  H   UNL     1       4.659   4.551  16.030  0.00  0.00    +0.048 HD
ATOM     52  H   UNL     1       4.952   3.083  16.952  0.00  0.00    +0.048 HD
BRANCH  50  53
ATOM     53  N   UNL     1       6.417   4.588  17.202  0.00  0.00    -0.298 NA
ATOM     54  C   UNL     1       6.831   5.709  16.343  0.00  0.00    -0.001 C 
ATOM     55  C   UNL     1       6.977   7.038  17.083  0.00  0.00    -0.040 C 
ATOM     56  C   UNL     1       7.985   6.934  18.227  0.00  0.00    -0.051 C 
ATOM     57  C   UNL     1       8.001   5.544  18.861  0.00  0.00    -0.040 C 
ATOM     58  C   UNL     1       6.683   4.808  18.632  0.00  0.00    -0.001 C 
ATOM     59  H   UNL     1       7.802   5.446  15.906  0.00  0.00    +0.043 HD
ATOM     60  H   UNL     1       6.155   5.850  15.490  0.00  0.00    +0.043 HD
ATOM     61  H   UNL     1       7.293   7.824  16.388  0.00  0.00    +0.028 HD
ATOM     62  H   UNL     1       6.001   7.344  17.481  0.00  0.00    +0.028 HD
ATOM     63  H   UNL     1       7.747   7.691  18.982  0.00  0.00    +0.027 HD
ATOM     64  H   UNL     1       8.992   7.169  17.862  0.00  0.00    +0.027 HD
ATOM     65  H   UNL     1       8.206   5.628  19.934  0.00  0.00    +0.028 HD
ATOM     66  H   UNL     1       8.826   4.957  18.436  0.00  0.00    +0.028 HD
ATOM     67  H   UNL     1       5.872   5.383  19.099  0.00  0.00    +0.043 HD
ATOM     68  H   UNL     1       6.726   3.837  19.140  0.00  0.00    +0.043 HD
ENDBRANCH  50  53
ENDBRANCH   6  50
TORSDOF 8
ENDMDL
MODEL 3
REMARK VINA RESULT:    -9.281      1.071      1.383
REMARK INTER + INTRA:         -14.514
REMARK INTER:                 -13.643
REMARK INTRA:                  -0.870
REMARK UNBOUND:                -1.163
REMARK  Name = 
REMARK  8 active torsions:
REMARK  status: ('A' for Active; 'I' for Inactive)
REMARK    1  A    between atoms: C_1  and  N_2
REMARK    2  A    between atoms: C_6  and  C_7
REMARK    3  A    between atoms: C_7  and  C_8
REMARK    4  A    between atoms: C_8  and  C_12
REMARK    5  A    between atoms: C_16  and  N_18
REMARK    6  A    between atoms: C_23  and  C_24
REMARK    7  A    between atoms: C_24  and  N_25
REMARK    8  A    between atoms: C_32  and  C_33
REMARK                            x       y       z     vdW  Elec       q    Type
REMARK                         _______ _______ _______ _____ _____    ______ ____
ROOT
ATOM      1  N   UNL     1       1.394   7.859  20.368  0.00  0.00    -0.263 N 
ATOM      2  C   UNL     1       1.333   6.501  20.890  0.00  0.00    +0.046 C 
ATOM      3  C   UNL     1       2.126   5.706  19.905  0.00  0.00    -0.006 A 
ATOM      4  C   UNL     1       2.591   6.544  18.899  0.00  0.00    +0.043 A 
ATOM      5  C   UNL     1       3.344   6.084  17.836  0.00  0.00    -0.045 A 
ATOM      6  C   UNL     1       3.649   4.714  17.784  0.00  0.00    -0.032 A 
ATOM      7  C   UNL     1       3.177   3.858  18.808  0.00  0.00    -0.045 A 
ATOM      8  C   UNL     1       2.410   4.344  19.885  0.00  0.00    +0.061 A 
ATOM      9  C   UNL     1       2.132   7.911  19.180  0.00  0.00    +0.251 C 
ATOM     10  O   UNL     1       2.393   8.840  18.438  0.00  0.00    -0.270 OA
ATOM     11  H   UNL     1       0.292   6.160  20.909  0.00  0.00    +0.052 HD
ATOM     12  H   UNL     1       1.793   6.463  21.883  0.00  0.00    +0.052 HD
ATOM     13  H   UNL     1       3.690   6.770  17.066  0.00  0.00    +0.063 HD
ATOM     14  H   UNL     1       3.415   2.794  18.760  0.00  0.00    +0.063 HD
ENDROOT
BRANCH   1  19
ATOM     15  C   UNL     1       0.263  11.391  21.114  0.00  0.00    -0.035 A 
ATOM     16  C   UNL     1      -0.510  11.138  22.259  0.00  0.00    -0.058 A 
ATOM     17  C   UNL     1      -0.661   9.852  22.772  0.00  0.00    -0.060 A 
ATOM     18  C   UNL     1      -0.035   8.769  22.156  0.00  0.00    -0.040 A 
ATOM     19  C   UNL     1       0.742   8.949  21.011  0.00  0.00    +0.037 A 
ATOM     20  C   UNL     1       0.866  10.260  20.507  0.00  0.00    -0.036 A 
ATOM     21  H   UNL     1      -1.028  11.960  22.753  0.00  0.00    +0.062 HD
ATOM     22  H   UNL     1      -1.278   9.689  23.653  0.00  0.00    +0.062 HD
ATOM     23  H   UNL     1      -0.188   7.789  22.596  0.00  0.00    +0.064 HD
ATOM     24  H   UNL     1       1.455  10.442  19.612  0.00  0.00    +0.064 HD
BRANCH  15  25
ATOM     25  C   UNL     1       0.457  12.874  20.531  0.00  0.00    +0.049 C 
ATOM     26  C   UNL     1       1.448  13.822  21.271  0.00  0.00    +0.060 C 
ATOM     27  O   UNL     1       1.998  14.268  20.000  0.00  0.00    -0.378 OA
ATOM     28  C   UNL     1       1.502  13.044  19.387  0.00  0.00    +0.060 C 
ATOM     29  H   UNL     1       2.220  13.334  21.878  0.00  0.00    +0.057 HD
ATOM     30  H   UNL     1       1.021  14.650  21.840  0.00  0.00    +0.057 HD
ATOM     31  H   UNL     1       1.105  13.220  18.383  0.00  0.00    +0.057 HD
ATOM     32  H   UNL     1       2.296  12.290  19.332  0.00  0.00    +0.057 HD
BRANCH  25  33
ATOM     33  C   UNL     1      -0.891  13.516  20.139  0.00  0.00    +0.021 C 
ATOM     34  H   UNL     1      -1.476  13.743  21.038  0.00  0.00    +0.035 HD
ATOM     35  H   UNL     1      -0.717  14.488  19.660  0.00  0.00    +0.035 HD
BRANCH  33  40
ATOM     36  N   UNL     1      -3.006  12.282  19.453  0.00  0.00    -0.320 N 
ATOM     37  C   UNL     1      -3.361  11.500  18.396  0.00  0.00    +0.120 A 
ATOM     38  N   UNL     1      -2.357  11.418  17.558  0.00  0.00    -0.138 NA
ATOM     39  N   UNL     1      -1.323  12.160  18.072  0.00  0.00    -0.135 NA
ATOM     40  C   UNL     1      -1.709  12.670  19.225  0.00  0.00    +0.134 A 
ATOM     41  H   UNL     1      -4.328  11.028  18.282  0.00  0.00    +0.105 HD
BRANCH  36  42
ATOM     42  C   UNL     1      -3.848  12.621  20.567  0.00  0.00    +0.014 C 
ATOM     43  H   UNL     1      -3.680  13.672  20.817  0.00  0.00    +0.046 HD
ATOM     44  H   UNL     1      -3.598  11.978  21.413  0.00  0.00    +0.046 HD
ATOM     45  H   UNL     1      -4.897  12.469  20.296  0.00  0.00    +0.046 HD
ENDBRANCH  36  42
ENDBRANCH  33  40
ENDBRANCH  25  33
ENDBRANCH  15  25
ENDBRANCH   1  19
BRANCH   8  46
ATOM     46  C   UNL     1       1.908   3.433  20.973  0.00  0.00    +0.418 C 
ATOM     47  F   UNL     1       2.279   2.138  20.773  0.00  0.00    -0.166 F 
ATOM     48  F   UNL     1       2.350   3.764  22.216  0.00  0.00    -0.166 F 
ATOM     49  F   UNL     1       0.548   3.420  21.047  0.00  0.00    -0.166 F 
ENDBRANCH   8  46
BRANCH   6  50
ATOM     50  C   UNL     1       4.443   4.152  16.620  0.00  0.00    +0.024 C 
ATOM     51  H   UNL     1       3.982   4.566  15.713  0.00  0.00    +0.048 HD
ATOM     52  H   UNL     1       4.321   3.062  16.559  0.00  0.00    +0.048 HD
BRANCH  50  53
ATOM     53  N   UNL     1       5.867   4.502  16.665  0.00  0.00    -0.298 NA
ATOM     54  C   UNL     1       6.181   5.768  15.985  0.00  0.00    -0.001 C 
ATOM     55  C   UNL     1       6.500   6.921  16.936  0.00  0.00    -0.040 C 
ATOM     56  C   UNL     1       7.675   6.583  17.851  0.00  0.00    -0.051 C 
ATOM     57  C   UNL     1       7.738   5.095  18.189  0.00  0.00    -0.040 C 
ATOM     58  C   UNL     1       6.371   4.429  18.045  0.00  0.00    -0.001 C 
ATOM     59  H   UNL     1       7.056   5.591  15.348  0.00  0.00    +0.043 HD
ATOM     60  H   UNL     1       5.382   6.083  15.302  0.00  0.00    +0.043 HD
ATOM     61  H   UNL     1       6.730   7.828  16.365  0.00  0.00    +0.028 HD
ATOM     62  H   UNL     1       5.615   7.149  17.543  0.00  0.00    +0.028 HD
ATOM     63  H   UNL     1       7.595   7.176  18.769  0.00  0.00    +0.027 HD
ATOM     64  H   UNL     1       8.618   6.879  17.376  0.00  0.00    +0.027 HD
ATOM     65  H   UNL     1       8.118   4.961  19.208  0.00  0.00    +0.028 HD
ATOM     66  H   UNL     1       8.458   4.598  17.525  0.00  0.00    +0.028 HD
ATOM     67  H   UNL     1       5.672   4.906  18.745  0.00  0.00    +0.043 HD
ATOM     68  H   UNL     1       6.456   3.376  18.338  0.00  0.00    +0.043 HD
ENDBRANCH  50  53
ENDBRANCH   6  50
TORSDOF 8
ENDMDL
MODEL 4
REMARK VINA RESULT:    -9.022      1.952      2.705
REMARK INTER + INTRA:         -14.141
REMARK INTER:                 -12.904
REMARK INTRA:                  -1.237
REMARK UNBOUND:                -1.163
REMARK  Name = 
REMARK  8 active torsions:
REMARK  status: ('A' for Active; 'I' for Inactive)
REMARK    1  A    between atoms: C_1  and  N_2
REMARK    2  A    between atoms: C_6  and  C_7
REMARK    3  A    between atoms: C_7  and  C_8
REMARK    4  A    between atoms: C_8  and  C_12
REMARK    5  A    between atoms: C_16  and  N_18
REMARK    6  A    between atoms: C_23  and  C_24
REMARK    7  A    between atoms: C_24  and  N_25
REMARK    8  A    between atoms: C_32  and  C_33
REMARK                            x       y       z     vdW  Elec       q    Type
REMARK                         _______ _______ _______ _____ _____    ______ ____
ROOT
ATOM      1  N   UNL     1       1.295   7.757  20.549  0.00  0.00    -0.263 N 
ATOM      2  C   UNL     1       1.293   6.376  21.008  0.00  0.00    +0.046 C 
ATOM      3  C   UNL     1       2.136   5.665  20.001  0.00  0.00    -0.006 A 
ATOM      4  C   UNL     1       2.573   6.569  19.041  0.00  0.00    +0.043 A 
ATOM      5  C   UNL     1       3.361   6.195  17.969  0.00  0.00    -0.045 A 
ATOM      6  C   UNL     1       3.732   4.845  17.860  0.00  0.00    -0.032 A 
ATOM      7  C   UNL     1       3.290   3.922  18.837  0.00  0.00    -0.045 A 
ATOM      8  C   UNL     1       2.486   4.321  19.924  0.00  0.00    +0.061 A 
ATOM      9  C   UNL     1       2.045   7.899  19.375  0.00  0.00    +0.251 C 
ATOM     10  O   UNL     1       2.270   8.872  18.680  0.00  0.00    -0.270 OA
ATOM     11  H   UNL     1       0.271   5.985  20.996  0.00  0.00    +0.052 HD
ATOM     12  H   UNL     1       1.742   6.315  22.006  0.00  0.00    +0.052 HD
ATOM     13  H   UNL     1       3.683   6.931  17.237  0.00  0.00    +0.063 HD
ATOM     14  H   UNL     1       3.579   2.874  18.745  0.00  0.00    +0.063 HD
ENDROOT
BRANCH   1  19
ATOM     15  C   UNL     1      -0.696  10.919  21.138  0.00  0.00    -0.035 A 
ATOM     16  C   UNL     1      -0.815  10.849  22.535  0.00  0.00    -0.058 A 
ATOM     17  C   UNL     1      -0.264   9.799  23.266  0.00  0.00    -0.060 A 
ATOM     18  C   UNL     1       0.434   8.780  22.618  0.00  0.00    -0.040 A 
ATOM     19  C   UNL     1       0.583   8.785  21.231  0.00  0.00    +0.037 A 
ATOM     20  C   UNL     1       0.004   9.853  20.517  0.00  0.00    -0.036 A 
ATOM     21  H   UNL     1      -1.370  11.620  23.070  0.00  0.00    +0.062 HD
ATOM     22  H   UNL     1      -0.385   9.768  24.346  0.00  0.00    +0.062 HD
ATOM     23  H   UNL     1       0.842   7.985  23.235  0.00  0.00    +0.064 HD
ATOM     24  H   UNL     1       0.088   9.890  19.434  0.00  0.00    +0.064 HD
BRANCH  15  25
ATOM     25  C   UNL     1      -1.312  12.138  20.293  0.00  0.00    +0.049 C 
ATOM     26  C   UNL     1      -1.437  11.962  18.750  0.00  0.00    +0.060 C 
ATOM     27  O   UNL     1      -2.771  12.545  18.775  0.00  0.00    -0.378 OA
ATOM     28  C   UNL     1      -2.865  12.199  20.186  0.00  0.00    +0.060 C 
ATOM     29  H   UNL     1      -1.472  10.930  18.383  0.00  0.00    +0.057 HD
ATOM     30  H   UNL     1      -0.756  12.539  18.122  0.00  0.00    +0.057 HD
ATOM     31  H   UNL     1      -3.366  12.980  20.766  0.00  0.00    +0.057 HD
ATOM     32  H   UNL     1      -3.404  11.253  20.317  0.00  0.00    +0.057 HD
BRANCH  25  33
ATOM     33  C   UNL     1      -0.741  13.497  20.751  0.00  0.00    +0.021 C 
ATOM     34  H   UNL     1      -1.398  14.312  20.424  0.00  0.00    +0.035 HD
ATOM     35  H   UNL     1      -0.743  13.553  21.848  0.00  0.00    +0.035 HD
BRANCH  33  40
ATOM     36  N   UNL     1       0.964  14.531  19.173  0.00  0.00    -0.320 N 
ATOM     37  C   UNL     1       2.319  14.478  19.057  0.00  0.00    +0.120 A 
ATOM     38  N   UNL     1       2.811  13.732  20.016  0.00  0.00    -0.138 NA
ATOM     39  N   UNL     1       1.759  13.288  20.779  0.00  0.00    -0.135 NA
ATOM     40  C   UNL     1       0.641  13.757  20.260  0.00  0.00    +0.134 A 
ATOM     41  H   UNL     1       2.887  14.980  18.284  0.00  0.00    +0.105 HD
BRANCH  36  42
ATOM     42  C   UNL     1       0.075  15.266  18.315  0.00  0.00    +0.014 C 
ATOM     43  H   UNL     1      -0.951  15.062  18.630  0.00  0.00    +0.046 HD
ATOM     44  H   UNL     1       0.233  14.950  17.282  0.00  0.00    +0.046 HD
ATOM     45  H   UNL     1       0.282  16.337  18.402  0.00  0.00    +0.046 HD
ENDBRANCH  36  42
ENDBRANCH  33  40
ENDBRANCH  25  33
ENDBRANCH  15  25
ENDBRANCH   1  19
BRANCH   8  46
ATOM     46  C   UNL     1       2.015   3.339  20.962  0.00  0.00    +0.418 C 
ATOM     47  F   UNL     1       2.482   2.080  20.730  0.00  0.00    -0.166 F 
ATOM     48  F   UNL     1       2.394   3.653  22.230  0.00  0.00    -0.166 F 
ATOM     49  F   UNL     1       0.658   3.230  20.989  0.00  0.00    -0.166 F 
ENDBRANCH   8  46
BRANCH   6  50
ATOM     50  C   UNL     1       4.568   4.375  16.684  0.00  0.00    +0.024 C 
ATOM     51  H   UNL     1       4.152   4.877  15.800  0.00  0.00    +0.048 HD
ATOM     52  H   UNL     1       4.433   3.298  16.520  0.00  0.00    +0.048 HD
BRANCH  50  53
ATOM     53  N   UNL     1       5.994   4.694  16.820  0.00  0.00    -0.298 NA
ATOM     54  C   UNL     1       6.375   5.958  16.171  0.00  0.00    -0.001 C 
ATOM     55  C   UNL     1       6.660   7.097  17.149  0.00  0.00    -0.040 C 
ATOM     56  C   UNL     1       7.769   6.726  18.133  0.00  0.00    -0.051 C 
ATOM     57  C   UNL     1       7.779   5.235  18.461  0.00  0.00    -0.040 C 
ATOM     58  C   UNL     1       6.410   4.600  18.227  0.00  0.00    -0.001 C 
ATOM     59  H   UNL     1       7.285   5.766  15.588  0.00  0.00    +0.043 HD
ATOM     60  H   UNL     1       5.627   6.294  15.442  0.00  0.00    +0.043 HD
ATOM     61  H   UNL     1       6.944   8.003  16.602  0.00  0.00    +0.028 HD
ATOM     62  H   UNL     1       5.744   7.340  17.703  0.00  0.00    +0.028 HD
ATOM     63  H   UNL     1       7.645   7.315  19.048  0.00  0.00    +0.027 HD
ATOM     64  H   UNL     1       8.746   7.005  17.718  0.00  0.00    +0.027 HD
ATOM     65  H   UNL     1       8.092   5.086  19.501  0.00  0.00    +0.028 HD
ATOM     66  H   UNL     1       8.528   4.728  17.838  0.00  0.00    +0.028 HD
ATOM     67  H   UNL     1       5.679   5.087  18.887  0.00  0.00    +0.043 HD
ATOM     68  H   UNL     1       6.454   3.544  18.517  0.00  0.00    +0.043 HD
ENDBRANCH  50  53
ENDBRANCH   6  50
TORSDOF 8
ENDMDL
MODEL 5
REMARK VINA RESULT:    -9.016      1.524      2.239
REMARK INTER + INTRA:         -14.133
REMARK INTER:                 -13.839
REMARK INTRA:                  -0.294
REMARK UNBOUND:                -1.163
REMARK  Name = 
REMARK  8 active torsions:
REMARK  status: ('A' for Active; 'I' for Inactive)
REMARK    1  A    between atoms: C_1  and  N_2
REMARK    2  A    between atoms: C_6  and  C_7
REMARK    3  A    between atoms: C_7  and  C_8
REMARK    4  A    between atoms: C_8  and  C_12
REMARK    5  A    between atoms: C_16  and  N_18
REMARK    6  A    between atoms: C_23  and  C_24
REMARK    7  A    between atoms: C_24  and  N_25
REMARK    8  A    between atoms: C_32  and  C_33
REMARK                            x       y       z     vdW  Elec       q    Type
REMARK                         _______ _______ _______ _____ _____    ______ ____
ROOT
ATOM      1  N   UNL     1       1.296   7.882  20.416  0.00  0.00    -0.263 N 
ATOM      2  C   UNL     1       1.295   6.524  20.940  0.00  0.00    +0.046 C 
ATOM      3  C   UNL     1       2.128   5.765  19.960  0.00  0.00    -0.006 A 
ATOM      4  C   UNL     1       2.559   6.621  18.955  0.00  0.00    +0.043 A 
ATOM      5  C   UNL     1       3.338   6.195  17.896  0.00  0.00    -0.045 A 
ATOM      6  C   UNL     1       3.705   4.840  17.848  0.00  0.00    -0.032 A 
ATOM      7  C   UNL     1       3.269   3.965  18.871  0.00  0.00    -0.045 A 
ATOM      8  C   UNL     1       2.475   4.417  19.944  0.00  0.00    +0.061 A 
ATOM      9  C   UNL     1       2.037   7.967  19.230  0.00  0.00    +0.251 C 
ATOM     10  O   UNL     1       2.258   8.905  18.488  0.00  0.00    -0.270 OA
ATOM     11  H   UNL     1       0.271   6.135  20.954  0.00  0.00    +0.052 HD
ATOM     12  H   UNL     1       1.752   6.509  21.935  0.00  0.00    +0.052 HD
ATOM     13  H   UNL     1       3.655   6.894  17.127  0.00  0.00    +0.063 HD
ATOM     14  H   UNL     1       3.556   2.913  18.826  0.00  0.00    +0.063 HD
ENDROOT
BRANCH   1  19
ATOM     15  C   UNL     1      -0.457  11.196  20.915  0.00  0.00    -0.035 A 
ATOM     16  C   UNL     1      -0.782  11.072  22.275  0.00  0.00    -0.058 A 
ATOM     17  C   UNL     1      -0.443   9.938  23.010  0.00  0.00    -0.060 A 
ATOM     18  C   UNL     1       0.244   8.886  22.404  0.00  0.00    -0.040 A 
ATOM     19  C   UNL     1       0.591   8.942  21.053  0.00  0.00    +0.037 A 
ATOM     20  C   UNL     1       0.223  10.097  20.334  0.00  0.00    -0.036 A 
ATOM     21  H   UNL     1      -1.335  11.868  22.774  0.00  0.00    +0.062 HD
ATOM     22  H   UNL     1      -0.722   9.868  24.059  0.00  0.00    +0.062 HD
ATOM     23  H   UNL     1       0.482   8.025  23.021  0.00  0.00    +0.064 HD
ATOM     24  H   UNL     1       0.466  10.177  19.278  0.00  0.00    +0.064 HD
BRANCH  15  25
ATOM     25  C   UNL     1      -0.828  12.510  20.070  0.00  0.00    +0.049 C 
ATOM     26  C   UNL     1       0.307  13.188  19.245  0.00  0.00    +0.060 C 
ATOM     27  O   UNL     1      -0.593  13.355  18.113  0.00  0.00    -0.378 OA
ATOM     28  C   UNL     1      -1.420  12.282  18.647  0.00  0.00    +0.060 C 
ATOM     29  H   UNL     1       1.154  12.547  18.974  0.00  0.00    +0.057 HD
ATOM     30  H   UNL     1       0.687  14.145  19.604  0.00  0.00    +0.057 HD
ATOM     31  H   UNL     1      -2.487  12.486  18.522  0.00  0.00    +0.057 HD
ATOM     32  H   UNL     1      -1.176  11.329  18.162  0.00  0.00    +0.057 HD
BRANCH  25  33
ATOM     33  C   UNL     1      -1.713  13.481  20.881  0.00  0.00    +0.021 C 
ATOM     34  H   UNL     1      -1.333  13.573  21.906  0.00  0.00    +0.035 HD
ATOM     35  H   UNL     1      -1.643  14.492  20.459  0.00  0.00    +0.035 HD
BRANCH  33  40
ATOM     36  N   UNL     1      -3.915  13.010  22.064  0.00  0.00    -0.320 N 
ATOM     37  C   UNL     1      -5.143  12.575  21.669  0.00  0.00    +0.120 A 
ATOM     38  N   UNL     1      -5.146  12.398  20.370  0.00  0.00    -0.138 NA
ATOM     39  N   UNL     1      -3.897  12.724  19.903  0.00  0.00    -0.135 NA
ATOM     40  C   UNL     1      -3.148  13.079  20.928  0.00  0.00    +0.134 A 
ATOM     41  H   UNL     1      -5.976  12.406  22.338  0.00  0.00    +0.105 HD
BRANCH  36  42
ATOM     42  C   UNL     1      -3.531  13.332  23.412  0.00  0.00    +0.014 C 
ATOM     43  H   UNL     1      -4.278  12.913  24.090  0.00  0.00    +0.046 HD
ATOM     44  H   UNL     1      -3.478  14.417  23.519  0.00  0.00    +0.046 HD
ATOM     45  H   UNL     1      -2.550  12.899  23.628  0.00  0.00    +0.046 HD
ENDBRANCH  36  42
ENDBRANCH  33  40
ENDBRANCH  25  33
ENDBRANCH  15  25
ENDBRANCH   1  19
BRANCH   8  46
ATOM     46  C   UNL     1       2.010   3.486  21.031  0.00  0.00    +0.418 C 
ATOM     47  F   UNL     1       2.391   3.908  22.269  0.00  0.00    -0.166 F 
ATOM     48  F   UNL     1       0.660   3.333  21.085  0.00  0.00    -0.166 F 
ATOM     49  F   UNL     1       2.528   2.234  20.893  0.00  0.00    -0.166 F 
ENDBRANCH   8  46
BRANCH   6  50
ATOM     50  C   UNL     1       4.530   4.313  16.688  0.00  0.00    +0.024 C 
ATOM     51  H   UNL     1       4.094   4.756  15.783  0.00  0.00    +0.048 HD
ATOM     52  H   UNL     1       4.409   3.226  16.590  0.00  0.00    +0.048 HD
BRANCH  50  53
ATOM     53  N   UNL     1       5.953   4.659  16.783  0.00  0.00    -0.298 NA
ATOM     54  C   UNL     1       6.290   5.933  16.128  0.00  0.00    -0.001 C 
ATOM     55  C   UNL     1       6.582   7.074  17.102  0.00  0.00    -0.040 C 
ATOM     56  C   UNL     1       7.727   6.722  18.050  0.00  0.00    -0.051 C 
ATOM     57  C   UNL     1       7.776   5.230  18.372  0.00  0.00    -0.040 C 
ATOM     58  C   UNL     1       6.413   4.569  18.177  0.00  0.00    -0.001 C 
ATOM     59  H   UNL     1       7.185   5.761  15.517  0.00  0.00    +0.043 HD
ATOM     60  H   UNL     1       5.514   6.257  15.424  0.00  0.00    +0.043 HD
ATOM     61  H   UNL     1       6.832   7.987  16.550  0.00  0.00    +0.028 HD
ATOM     62  H   UNL     1       5.679   7.297  17.684  0.00  0.00    +0.028 HD
ATOM     63  H   UNL     1       7.619   7.305  18.972  0.00  0.00    +0.027 HD
ATOM     64  H   UNL     1       8.685   7.021  17.608  0.00  0.00    +0.027 HD
ATOM     65  H   UNL     1       8.123   5.083  19.401  0.00  0.00    +0.028 HD
ATOM     66  H   UNL     1       8.515   4.739  17.725  0.00  0.00    +0.028 HD
ATOM     67  H   UNL     1       5.692   5.039  18.860  0.00  0.00    +0.043 HD
ATOM     68  H   UNL     1       6.487   3.513  18.461  0.00  0.00    +0.043 HD
ENDBRANCH  50  53
ENDBRANCH   6  50
TORSDOF 8
ENDMDL
MODEL 6
REMARK VINA RESULT:    -8.894      2.463      9.074
REMARK INTER + INTRA:         -13.956
REMARK INTER:                 -13.091
REMARK INTRA:                  -0.866
REMARK UNBOUND:                -1.163
REMARK  Name = 
REMARK  8 active torsions:
REMARK  status: ('A' for Active; 'I' for Inactive)
REMARK    1  A    between atoms: C_1  and  N_2
REMARK    2  A    between atoms: C_6  and  C_7
REMARK    3  A    between atoms: C_7  and  C_8
REMARK    4  A    between atoms: C_8  and  C_12
REMARK    5  A    between atoms: C_16  and  N_18
REMARK    6  A    between atoms: C_23  and  C_24
REMARK    7  A    between atoms: C_24  and  N_25
REMARK    8  A    between atoms: C_32  and  C_33
REMARK                            x       y       z     vdW  Elec       q    Type
REMARK                         _______ _______ _______ _____ _____    ______ ____
ROOT
ATOM      1  N   UNL     1       2.140   7.463  19.689  0.00  0.00    -0.263 N 
ATOM      2  C   UNL     1       1.483   7.860  20.926  0.00  0.00    +0.046 C 
ATOM      3  C   UNL     1       0.731   9.095  20.549  0.00  0.00    -0.006 A 
ATOM      4  C   UNL     1       0.952   9.381  19.208  0.00  0.00    +0.043 A 
ATOM      5  C   UNL     1       0.397  10.480  18.580  0.00  0.00    -0.045 A 
ATOM      6  C   UNL     1      -0.426  11.330  19.337  0.00  0.00    -0.032 A 
ATOM      7  C   UNL     1      -0.654  11.039  20.703  0.00  0.00    -0.045 A 
ATOM      8  C   UNL     1      -0.079   9.915  21.328  0.00  0.00    +0.061 A 
ATOM      9  C   UNL     1       1.845   8.356  18.651  0.00  0.00    +0.251 C 
ATOM     10  O   UNL     1       2.210   8.386  17.490  0.00  0.00    -0.270 OA
ATOM     11  H   UNL     1       2.236   8.087  21.687  0.00  0.00    +0.052 HD
ATOM     12  H   UNL     1       0.797   7.070  21.252  0.00  0.00    +0.052 HD
ATOM     13  H   UNL     1       0.594  10.673  17.529  0.00  0.00    +0.063 HD
ATOM     14  H   UNL     1      -1.292  11.705  21.287  0.00  0.00    +0.063 HD
ENDROOT
BRANCH   1  19
ATOM     15  C   UNL     1       5.194   5.336  19.019  0.00  0.00    -0.035 A 
ATOM     16  C   UNL     1       4.687   4.089  19.418  0.00  0.00    -0.058 A 
ATOM     17  C   UNL     1       3.386   3.945  19.896  0.00  0.00    -0.060 A 
ATOM     18  C   UNL     1       2.542   5.051  19.984  0.00  0.00    -0.040 A 
ATOM     19  C   UNL     1       2.985   6.321  19.610  0.00  0.00    +0.037 A 
ATOM     20  C   UNL     1       4.310   6.437  19.144  0.00  0.00    -0.036 A 
ATOM     21  H   UNL     1       5.327   3.207  19.379  0.00  0.00    +0.062 HD
ATOM     22  H   UNL     1       3.029   2.967  20.209  0.00  0.00    +0.062 HD
ATOM     23  H   UNL     1       1.540   4.884  20.364  0.00  0.00    +0.064 HD
ATOM     24  H   UNL     1       4.698   7.409  18.852  0.00  0.00    +0.064 HD
BRANCH  15  25
ATOM     25  C   UNL     1       6.686   5.502  18.450  0.00  0.00    +0.049 C 
ATOM     26  C   UNL     1       7.088   6.888  17.860  0.00  0.00    +0.060 C 
ATOM     27  O   UNL     1       8.369   6.828  18.547  0.00  0.00    -0.378 OA
ATOM     28  C   UNL     1       7.792   5.874  19.483  0.00  0.00    +0.060 C 
ATOM     29  H   UNL     1       6.502   7.747  18.206  0.00  0.00    +0.057 HD
ATOM     30  H   UNL     1       7.212   6.956  16.778  0.00  0.00    +0.057 HD
ATOM     31  H   UNL     1       8.498   5.083  19.750  0.00  0.00    +0.057 HD
ATOM     32  H   UNL     1       7.459   6.382  20.396  0.00  0.00    +0.057 HD
BRANCH  25  33
ATOM     33  C   UNL     1       7.115   4.284  17.604  0.00  0.00    +0.021 C 
ATOM     34  H   UNL     1       8.196   4.121  17.697  0.00  0.00    +0.035 HD
ATOM     35  H   UNL     1       6.654   3.371  18.004  0.00  0.00    +0.035 HD
BRANCH  33  40
ATOM     36  N   UNL     1       5.554   4.064  15.609  0.00  0.00    -0.320 N 
ATOM     37  C   UNL     1       5.665   4.303  14.273  0.00  0.00    +0.120 A 
ATOM     38  N   UNL     1       6.859   4.778  14.012  0.00  0.00    -0.138 NA
ATOM     39  N   UNL     1       7.545   4.855  15.199  0.00  0.00    -0.135 NA
ATOM     40  C   UNL     1       6.763   4.408  16.162  0.00  0.00    +0.134 A 
ATOM     41  H   UNL     1       4.878   4.122  13.552  0.00  0.00    +0.105 HD
BRANCH  36  42
ATOM     42  C   UNL     1       4.387   3.557  16.278  0.00  0.00    +0.014 C 
ATOM     43  H   UNL     1       4.654   3.340  17.314  0.00  0.00    +0.046 HD
ATOM     44  H   UNL     1       4.048   2.653  15.769  0.00  0.00    +0.046 HD
ATOM     45  H   UNL     1       3.592   4.308  16.249  0.00  0.00    +0.046 HD
ENDBRANCH  36  42
ENDBRANCH  33  40
ENDBRANCH  25  33
ENDBRANCH  15  25
ENDBRANCH   1  19
BRANCH   8  46
ATOM     46  C   UNL     1      -0.321   9.606  22.781  0.00  0.00    +0.418 C 
ATOM     47  F   UNL     1      -1.043   8.464  22.953  0.00  0.00    -0.166 F 
ATOM     48  F   UNL     1       0.818   9.445  23.507  0.00  0.00    -0.166 F 
ATOM     49  F   UNL     1      -1.031  10.588  23.405  0.00  0.00    -0.166 F 
ENDBRANCH   8  46
BRANCH   6  50
ATOM     50  C   UNL     1      -1.032  12.569  18.705  0.00  0.00    +0.024 C 
ATOM     51  H   UNL     1      -0.313  12.902  17.945  0.00  0.00    +0.048 HD
ATOM     52  H   UNL     1      -1.104  13.382  19.440  0.00  0.00    +0.048 HD
BRANCH  50  53
ATOM     53  N   UNL     1      -2.341  12.324  18.088  0.00  0.00    -0.298 NA
ATOM     54  C   UNL     1      -2.310  11.292  17.040  0.00  0.00    -0.001 C 
ATOM     55  C   UNL     1      -2.948   9.967  17.455  0.00  0.00    -0.040 C 
ATOM     56  C   UNL     1      -4.404  10.155  17.879  0.00  0.00    -0.051 C 
ATOM     57  C   UNL     1      -4.647  11.514  18.532  0.00  0.00    -0.040 C 
ATOM     58  C   UNL     1      -3.362  12.091  19.120  0.00  0.00    -0.001 C 
ATOM     59  H   UNL     1      -2.859  11.686  16.175  0.00  0.00    +0.043 HD
ATOM     60  H   UNL     1      -1.294  11.098  16.677  0.00  0.00    +0.043 HD
ATOM     61  H   UNL     1      -2.898   9.248  16.630  0.00  0.00    +0.028 HD
ATOM     62  H   UNL     1      -2.378   9.531  18.285  0.00  0.00    +0.028 HD
ATOM     63  H   UNL     1      -4.682   9.349  18.568  0.00  0.00    +0.027 HD
ATOM     64  H   UNL     1      -5.064  10.056  17.009  0.00  0.00    +0.027 HD
ATOM     65  H   UNL     1      -5.411  11.420  19.312  0.00  0.00    +0.028 HD
ATOM     66  H   UNL     1      -5.053  12.211  17.787  0.00  0.00    +0.028 HD
ATOM     67  H   UNL     1      -2.990  11.407  19.894  0.00  0.00    +0.043 HD
ATOM     68  H   UNL     1      -3.593  13.043  19.614  0.00  0.00    +0.043 HD
ENDBRANCH  50  53
ENDBRANCH   6  50
TORSDOF 8
ENDMDL
MODEL 7
REMARK VINA RESULT:    -8.668      2.498      9.184
REMARK INTER + INTRA:         -13.631
REMARK INTER:                 -12.793
REMARK INTRA:                  -0.838
REMARK UNBOUND:                -1.163
REMARK  Name = 
REMARK  8 active torsions:
REMARK  status: ('A' for Active; 'I' for Inactive)
REMARK    1  A    between atoms: C_1  and  N_2
REMARK    2  A    between atoms: C_6  and  C_7
REMARK    3  A    between atoms: C_7  and  C_8
REMARK    4  A    between atoms: C_8  and  C_12
REMARK    5  A    between atoms: C_16  and  N_18
REMARK    6  A    between atoms: C_23  and  C_24
REMARK    7  A    between atoms: C_24  and  N_25
REMARK    8  A    between atoms: C_32  and  C_33
REMARK                            x       y       z     vdW  Elec       q    Type
REMARK                         _______ _______ _______ _____ _____    ______ ____
ROOT
ATOM      1  N   UNL     1       2.257   7.289  19.419  0.00  0.00    -0.263 N 
ATOM      2  C   UNL     1       1.623   7.646  20.680  0.00  0.00    +0.046 C 
ATOM      3  C   UNL     1       0.929   8.933  20.377  0.00  0.00    -0.006 A 
ATOM      4  C   UNL     1       1.159   9.284  19.053  0.00  0.00    +0.043 A 
ATOM      5  C   UNL     1       0.654  10.441  18.491  0.00  0.00    -0.045 A 
ATOM      6  C   UNL     1      -0.125  11.285  19.299  0.00  0.00    -0.032 A 
ATOM      7  C   UNL     1      -0.363  10.929  20.648  0.00  0.00    -0.045 A 
ATOM      8  C   UNL     1       0.160   9.745  21.206  0.00  0.00    +0.061 A 
ATOM      9  C   UNL     1       2.002   8.252  18.434  0.00  0.00    +0.251 C 
ATOM     10  O   UNL     1       2.364   8.329  17.275  0.00  0.00    -0.270 OA
ATOM     11  H   UNL     1       2.388   7.794  21.448  0.00  0.00    +0.052 HD
ATOM     12  H   UNL     1       0.902   6.871  20.966  0.00  0.00    +0.052 HD
ATOM     13  H   UNL     1       0.857  10.684  17.451  0.00  0.00    +0.063 HD
ATOM     14  H   UNL     1      -0.967  11.589  21.272  0.00  0.00    +0.063 HD
ENDROOT
BRANCH   1  19
ATOM     15  C   UNL     1       4.717   4.814  17.960  0.00  0.00    -0.035 A 
ATOM     16  C   UNL     1       4.615   3.803  18.929  0.00  0.00    -0.058 A 
ATOM     17  C   UNL     1       3.769   3.925  20.029  0.00  0.00    -0.060 A 
ATOM     18  C   UNL     1       2.989   5.069  20.195  0.00  0.00    -0.040 A 
ATOM     19  C   UNL     1       3.048   6.114  19.272  0.00  0.00    +0.037 A 
ATOM     20  C   UNL     1       3.922   5.967  18.176  0.00  0.00    -0.036 A 
ATOM     21  H   UNL     1       5.225   2.904  18.839  0.00  0.00    +0.062 HD
ATOM     22  H   UNL     1       3.724   3.128  20.769  0.00  0.00    +0.062 HD
ATOM     23  H   UNL     1       2.349   5.113  21.070  0.00  0.00    +0.064 HD
ATOM     24  H   UNL     1       4.005   6.762  17.440  0.00  0.00    +0.064 HD
BRANCH  15  25
ATOM     25  C   UNL     1       5.674   4.669  16.679  0.00  0.00    +0.049 C 
ATOM     26  C   UNL     1       5.337   3.555  15.643  0.00  0.00    +0.060 C 
ATOM     27  O   UNL     1       5.586   4.477  14.545  0.00  0.00    -0.378 OA
ATOM     28  C   UNL     1       5.355   5.585  15.460  0.00  0.00    +0.060 C 
ATOM     29  H   UNL     1       4.297   3.208  15.629  0.00  0.00    +0.057 HD
ATOM     30  H   UNL     1       6.000   2.689  15.602  0.00  0.00    +0.057 HD
ATOM     31  H   UNL     1       6.043   6.416  15.279  0.00  0.00    +0.057 HD
ATOM     32  H   UNL     1       4.324   5.948  15.376  0.00  0.00    +0.057 HD
BRANCH  25  33
ATOM     33  C   UNL     1       7.165   4.771  17.065  0.00  0.00    +0.021 C 
ATOM     34  H   UNL     1       7.404   4.042  17.849  0.00  0.00    +0.035 HD
ATOM     35  H   UNL     1       7.793   4.485  16.210  0.00  0.00    +0.035 HD
BRANCH  33  40
ATOM     36  N   UNL     1       7.982   6.448  18.793  0.00  0.00    -0.320 N 
ATOM     37  C   UNL     1       8.221   7.789  18.791  0.00  0.00    +0.120 A 
ATOM     38  N   UNL     1       7.987   8.272  17.595  0.00  0.00    -0.138 NA
ATOM     39  N   UNL     1       7.587   7.230  16.796  0.00  0.00    -0.135 NA
ATOM     40  C   UNL     1       7.569   6.130  17.523  0.00  0.00    +0.134 A 
ATOM     41  H   UNL     1       8.554   8.352  19.653  0.00  0.00    +0.105 HD
BRANCH  36  42
ATOM     42  C   UNL     1       8.146   5.567  19.917  0.00  0.00    +0.014 C 
ATOM     43  H   UNL     1       9.182   5.219  19.930  0.00  0.00    +0.046 HD
ATOM     44  H   UNL     1       7.457   4.726  19.815  0.00  0.00    +0.046 HD
ATOM     45  H   UNL     1       7.925   6.106  20.842  0.00  0.00    +0.046 HD
ENDBRANCH  36  42
ENDBRANCH  33  40
ENDBRANCH  25  33
ENDBRANCH  15  25
ENDBRANCH   1  19
BRANCH   8  46
ATOM     46  C   UNL     1      -0.092   9.368  22.640  0.00  0.00    +0.418 C 
ATOM     47  F   UNL     1      -0.772   8.193  22.752  0.00  0.00    -0.166 F 
ATOM     48  F   UNL     1       1.042   9.218  23.378  0.00  0.00    -0.166 F 
ATOM     49  F   UNL     1      -0.847  10.295  23.292  0.00  0.00    -0.166 F 
ENDBRANCH   8  46
BRANCH   6  50
ATOM     50  C   UNL     1      -0.675  12.584  18.741  0.00  0.00    +0.024 C 
ATOM     51  H   UNL     1       0.043  12.910  17.976  0.00  0.00    +0.048 HD
ATOM     52  H   UNL     1      -0.680  13.365  19.513  0.00  0.00    +0.048 HD
BRANCH  50  53
ATOM     53  N   UNL     1      -2.011  12.444  18.151  0.00  0.00    -0.298 NA
ATOM     54  C   UNL     1      -2.063  11.477  17.043  0.00  0.00    -0.001 C 
ATOM     55  C   UNL     1      -2.757  10.163  17.399  0.00  0.00    -0.040 C 
ATOM     56  C   UNL     1      -4.189  10.397  17.878  0.00  0.00    -0.051 C 
ATOM     57  C   UNL     1      -4.343  11.725  18.617  0.00  0.00    -0.040 C 
ATOM     58  C   UNL     1      -3.013  12.200  19.199  0.00  0.00    -0.001 C 
ATOM     59  H   UNL     1      -2.615  11.949  16.221  0.00  0.00    +0.043 HD
ATOM     60  H   UNL     1      -1.068  11.254  16.638  0.00  0.00    +0.043 HD
ATOM     61  H   UNL     1      -2.767   9.494  16.531  0.00  0.00    +0.028 HD
ATOM     62  H   UNL     1      -2.187   9.649  18.183  0.00  0.00    +0.028 HD
ATOM     63  H   UNL     1      -4.489   9.566  18.526  0.00  0.00    +0.027 HD
ATOM     64  H   UNL     1      -4.877  10.385  17.024  0.00  0.00    +0.027 HD
ATOM     65  H   UNL     1      -5.089  11.622  19.414  0.00  0.00    +0.028 HD
ATOM     66  H   UNL     1      -4.733  12.485  17.928  0.00  0.00    +0.028 HD
ATOM     67  H   UNL     1      -2.656  11.452  19.919  0.00  0.00    +0.043 HD
ATOM     68  H   UNL     1      -3.181  13.130  19.755  0.00  0.00    +0.043 HD
ENDBRANCH  50  53
ENDBRANCH   6  50
TORSDOF 8
ENDMDL
MODEL 8
REMARK VINA RESULT:    -8.640      2.827      8.845
REMARK INTER + INTRA:         -13.592
REMARK INTER:                 -12.665
REMARK INTRA:                  -0.927
REMARK UNBOUND:                -1.163
REMARK  Name = 
REMARK  8 active torsions:
REMARK  status: ('A' for Active; 'I' for Inactive)
REMARK    1  A    between atoms: C_1  and  N_2
REMARK    2  A    between atoms: C_6  and  C_7
REMARK    3  A    between atoms: C_7  and  C_8
REMARK    4  A    between atoms: C_8  and  C_12
REMARK    5  A    between atoms: C_16  and  N_18
REMARK    6  A    between atoms: C_23  and  C_24
REMARK    7  A    between atoms: C_24  and  N_25
REMARK    8  A    between atoms: C_32  and  C_33
REMARK                            x       y       z     vdW  Elec       q    Type
REMARK                         _______ _______ _______ _____ _____    ______ ____
ROOT
ATOM      1  N   UNL     1       2.113   7.519  19.607  0.00  0.00    -0.263 N 
ATOM      2  C   UNL     1       1.429   7.930  20.825  0.00  0.00    +0.046 C 
ATOM      3  C   UNL     1       0.688   9.161  20.418  0.00  0.00    -0.006 A 
ATOM      4  C   UNL     1       0.940   9.434  19.079  0.00  0.00    +0.043 A 
ATOM      5  C   UNL     1       0.400  10.527  18.428  0.00  0.00    -0.045 A 
ATOM      6  C   UNL     1      -0.438  11.385  19.157  0.00  0.00    -0.032 A 
ATOM      7  C   UNL     1      -0.698  11.109  20.520  0.00  0.00    -0.045 A 
ATOM      8  C   UNL     1      -0.139   9.991  21.170  0.00  0.00    +0.061 A 
ATOM      9  C   UNL     1       1.844   8.402  18.553  0.00  0.00    +0.251 C 
ATOM     10  O   UNL     1       2.235   8.418  17.401  0.00  0.00    -0.270 OA
ATOM     11  H   UNL     1       2.165   8.164  21.600  0.00  0.00    +0.052 HD
ATOM     12  H   UNL     1       0.735   7.144  21.144  0.00  0.00    +0.052 HD
ATOM     13  H   UNL     1       0.622  10.709  17.379  0.00  0.00    +0.063 HD
ATOM     14  H   UNL     1      -1.348  11.782  21.082  0.00  0.00    +0.063 HD
ENDROOT
BRANCH   1  19
ATOM     15  C   UNL     1       5.171   5.376  19.007  0.00  0.00    -0.035 A 
ATOM     16  C   UNL     1       4.660   4.138  19.430  0.00  0.00    -0.058 A 
ATOM     17  C   UNL     1       3.356   4.006  19.901  0.00  0.00    -0.060 A 
ATOM     18  C   UNL     1       2.512   5.115  19.959  0.00  0.00    -0.040 A 
ATOM     19  C   UNL     1       2.959   6.375  19.560  0.00  0.00    +0.037 A 
ATOM     20  C   UNL     1       4.287   6.480  19.101  0.00  0.00    -0.036 A 
ATOM     21  H   UNL     1       5.300   3.255  19.415  0.00  0.00    +0.062 HD
ATOM     22  H   UNL     1       2.996   3.035  20.233  0.00  0.00    +0.062 HD
ATOM     23  H   UNL     1       1.507   4.956  20.335  0.00  0.00    +0.064 HD
ATOM     24  H   UNL     1       4.678   7.445  18.790  0.00  0.00    +0.064 HD
BRANCH  15  25
ATOM     25  C   UNL     1       6.667   5.529  18.444  0.00  0.00    +0.049 C 
ATOM     26  C   UNL     1       7.082   6.909  17.851  0.00  0.00    +0.060 C 
ATOM     27  O   UNL     1       8.360   6.842  18.545  0.00  0.00    -0.378 OA
ATOM     28  C   UNL     1       7.770   5.896  19.481  0.00  0.00    +0.060 C 
ATOM     29  H   UNL     1       6.501   7.775  18.191  0.00  0.00    +0.057 HD
ATOM     30  H   UNL     1       7.212   6.973  16.769  0.00  0.00    +0.057 HD
ATOM     31  H   UNL     1       8.469   5.101  19.755  0.00  0.00    +0.057 HD
ATOM     32  H   UNL     1       7.436   6.410  20.391  0.00  0.00    +0.057 HD
BRANCH  25  33
ATOM     33  C   UNL     1       7.091   4.305  17.605  0.00  0.00    +0.021 C 
ATOM     34  H   UNL     1       8.170   4.136  17.702  0.00  0.00    +0.035 HD
ATOM     35  H   UNL     1       6.623   3.396  18.007  0.00  0.00    +0.035 HD
BRANCH  33  40
ATOM     36  N   UNL     1       5.532   4.094  15.607  0.00  0.00    -0.320 N 
ATOM     37  C   UNL     1       5.650   4.323  14.270  0.00  0.00    +0.120 A 
ATOM     38  N   UNL     1       6.850   4.781  14.009  0.00  0.00    -0.138 NA
ATOM     39  N   UNL     1       7.534   4.855  15.197  0.00  0.00    -0.135 NA
ATOM     40  C   UNL     1       6.744   4.425  16.161  0.00  0.00    +0.134 A 
ATOM     41  H   UNL     1       4.862   4.149  13.548  0.00  0.00    +0.105 HD
BRANCH  36  42
ATOM     42  C   UNL     1       4.357   3.607  16.276  0.00  0.00    +0.014 C 
ATOM     43  H   UNL     1       4.215   4.192  17.188  0.00  0.00    +0.046 HD
ATOM     44  H   UNL     1       4.492   2.550  16.512  0.00  0.00    +0.046 HD
ATOM     45  H   UNL     1       3.487   3.724  15.623  0.00  0.00    +0.046 HD
ENDBRANCH  36  42
ENDBRANCH  33  40
ENDBRANCH  25  33
ENDBRANCH  15  25
ENDBRANCH   1  19
BRANCH   8  46
ATOM     46  C   UNL     1      -0.415   9.698  22.620  0.00  0.00    +0.418 C 
ATOM     47  F   UNL     1      -1.058   8.510  22.793  0.00  0.00    -0.166 F 
ATOM     48  F   UNL     1       0.704   9.636  23.392  0.00  0.00    -0.166 F 
ATOM     49  F   UNL     1      -1.216  10.639  23.192  0.00  0.00    -0.166 F 
ENDBRANCH   8  46
BRANCH   6  50
ATOM     50  C   UNL     1      -1.028  12.618  18.498  0.00  0.00    +0.024 C 
ATOM     51  H   UNL     1      -1.989  12.797  19.000  0.00  0.00    +0.048 HD
ATOM     52  H   UNL     1      -1.262  12.419  17.445  0.00  0.00    +0.048 HD
BRANCH  50  53
ATOM     53  N   UNL     1      -0.171  13.804  18.613  0.00  0.00    -0.298 NA
ATOM     54  C   UNL     1      -0.476  14.635  19.788  0.00  0.00    -0.001 C 
ATOM     55  C   UNL     1       0.564  14.537  20.904  0.00  0.00    -0.040 C 
ATOM     56  C   UNL     1       1.956  14.926  20.409  0.00  0.00    -0.051 C 
ATOM     57  C   UNL     1       2.173  14.559  18.942  0.00  0.00    -0.040 C 
ATOM     58  C   UNL     1       1.246  13.427  18.504  0.00  0.00    -0.001 C 
ATOM     59  H   UNL     1      -0.524  15.678  19.450  0.00  0.00    +0.043 HD
ATOM     60  H   UNL     1      -1.467  14.418  20.206  0.00  0.00    +0.043 HD
ATOM     61  H   UNL     1       0.280  15.184  21.742  0.00  0.00    +0.028 HD
ATOM     62  H   UNL     1       0.586  13.511  21.293  0.00  0.00    +0.028 HD
ATOM     63  H   UNL     1       2.708  14.436  21.037  0.00  0.00    +0.027 HD
ATOM     64  H   UNL     1       2.109  16.005  20.531  0.00  0.00    +0.027 HD
ATOM     65  H   UNL     1       3.219  14.275  18.782  0.00  0.00    +0.028 HD
ATOM     66  H   UNL     1       1.994  15.442  18.314  0.00  0.00    +0.028 HD
ATOM     67  H   UNL     1       1.464  12.538  19.111  0.00  0.00    +0.043 HD
ATOM     68  H   UNL     1       1.468  13.170  17.462  0.00  0.00    +0.043 HD
ENDBRANCH  50  53
ENDBRANCH   6  50
TORSDOF 8
ENDMDL
MODEL 9
REMARK VINA RESULT:    -8.638      3.033      8.842
REMARK INTER + INTRA:         -13.588
REMARK INTER:                 -12.981
REMARK INTRA:                  -0.607
REMARK UNBOUND:                -1.163
REMARK  Name = 
REMARK  8 active torsions:
REMARK  status: ('A' for Active; 'I' for Inactive)
REMARK    1  A    between atoms: C_1  and  N_2
REMARK    2  A    between atoms: C_6  and  C_7
REMARK    3  A    between atoms: C_7  and  C_8
REMARK    4  A    between atoms: C_8  and  C_12
REMARK    5  A    between atoms: C_16  and  N_18
REMARK    6  A    between atoms: C_23  and  C_24
REMARK    7  A    between atoms: C_24  and  N_25
REMARK    8  A    between atoms: C_32  and  C_33
REMARK                            x       y       z     vdW  Elec       q    Type
REMARK                         _______ _______ _______ _____ _____    ______ ____
ROOT
ATOM      1  N   UNL     1       2.132   7.489  19.457  0.00  0.00    -0.263 N 
ATOM      2  C   UNL     1       1.493   7.843  20.716  0.00  0.00    +0.046 C 
ATOM      3  C   UNL     1       0.901   9.188  20.448  0.00  0.00    -0.006 A 
ATOM      4  C   UNL     1       1.190   9.571  19.145  0.00  0.00    +0.043 A 
ATOM      5  C   UNL     1       0.784  10.782  18.618  0.00  0.00    -0.045 A 
ATOM      6  C   UNL     1       0.046  11.649  19.441  0.00  0.00    -0.032 A 
ATOM      7  C   UNL     1      -0.251  11.260  20.768  0.00  0.00    -0.045 A 
ATOM      8  C   UNL     1       0.172  10.022  21.291  0.00  0.00    +0.061 A 
ATOM      9  C   UNL     1       1.972   8.504  18.505  0.00  0.00    +0.251 C 
ATOM     10  O   UNL     1       2.368   8.599  17.359  0.00  0.00    -0.270 OA
ATOM     11  H   UNL     1       2.248   7.906  21.507  0.00  0.00    +0.052 HD
ATOM     12  H   UNL     1       0.711   7.113  20.954  0.00  0.00    +0.052 HD
ATOM     13  H   UNL     1       1.030  11.049  17.593  0.00  0.00    +0.063 HD
ATOM     14  H   UNL     1      -0.822  11.939  21.404  0.00  0.00    +0.063 HD
ENDROOT
BRANCH   1  19
ATOM     15  C   UNL     1       4.470   4.911  17.976  0.00  0.00    -0.035 A 
ATOM     16  C   UNL     1       4.247   3.863  18.883  0.00  0.00    -0.058 A 
ATOM     17  C   UNL     1       3.361   3.993  19.950  0.00  0.00    -0.060 A 
ATOM     18  C   UNL     1       2.660   5.183  20.142  0.00  0.00    -0.040 A 
ATOM     19  C   UNL     1       2.840   6.267  19.281  0.00  0.00    +0.037 A 
ATOM     20  C   UNL     1       3.753   6.109  18.219  0.00  0.00    -0.036 A 
ATOM     21  H   UNL     1       4.793   2.926  18.771  0.00  0.00    +0.062 HD
ATOM     22  H   UNL     1       3.221   3.166  20.642  0.00  0.00    +0.062 HD
ATOM     23  H   UNL     1       1.984   5.232  20.990  0.00  0.00    +0.064 HD
ATOM     24  H   UNL     1       3.930   6.932  17.531  0.00  0.00    +0.064 HD
BRANCH  15  25
ATOM     25  C   UNL     1       5.475   4.758  16.732  0.00  0.00    +0.049 C 
ATOM     26  C   UNL     1       5.120   3.710  15.636  0.00  0.00    +0.060 C 
ATOM     27  O   UNL     1       5.473   4.658  14.590  0.00  0.00    -0.378 OA
ATOM     28  C   UNL     1       5.267   5.741  15.541  0.00  0.00    +0.060 C 
ATOM     29  H   UNL     1       4.062   3.428  15.563  0.00  0.00    +0.057 HD
ATOM     30  H   UNL     1       5.731   2.807  15.587  0.00  0.00    +0.057 HD
ATOM     31  H   UNL     1       6.011   6.534  15.426  0.00  0.00    +0.057 HD
ATOM     32  H   UNL     1       4.265   6.170  15.428  0.00  0.00    +0.057 HD
BRANCH  25  33
ATOM     33  C   UNL     1       6.950   4.753  17.186  0.00  0.00    +0.021 C 
ATOM     34  H   UNL     1       7.085   4.059  18.025  0.00  0.00    +0.035 HD
ATOM     35  H   UNL     1       7.587   4.357  16.384  0.00  0.00    +0.035 HD
BRANCH  33  40
ATOM     36  N   UNL     1       7.963   6.424  18.814  0.00  0.00    -0.320 N 
ATOM     37  C   UNL     1       8.275   7.748  18.759  0.00  0.00    +0.120 A 
ATOM     38  N   UNL     1       7.995   8.214  17.567  0.00  0.00    -0.138 NA
ATOM     39  N   UNL     1       7.490   7.176  16.823  0.00  0.00    -0.135 NA
ATOM     40  C   UNL     1       7.456   6.098  17.581  0.00  0.00    +0.134 A 
ATOM     41  H   UNL     1       8.690   8.313  19.584  0.00  0.00    +0.105 HD
BRANCH  36  42
ATOM     42  C   UNL     1       8.146   5.564  19.951  0.00  0.00    +0.014 C 
ATOM     43  H   UNL     1       7.234   4.979  20.088  0.00  0.00    +0.046 HD
ATOM     44  H   UNL     1       8.350   6.175  20.833  0.00  0.00    +0.046 HD
ATOM     45  H   UNL     1       8.992   4.894  19.773  0.00  0.00    +0.046 HD
ENDBRANCH  36  42
ENDBRANCH  33  40
ENDBRANCH  25  33
ENDBRANCH  15  25
ENDBRANCH   1  19
BRANCH   8  46
ATOM     46  C   UNL     1      -0.143   9.609  22.703  0.00  0.00    +0.418 C 
ATOM     47  F   UNL     1      -0.938   8.504  22.753  0.00  0.00    -0.166 F 
ATOM     48  F   UNL     1       0.956   9.316  23.449  0.00  0.00    -0.166 F 
ATOM     49  F   UNL     1      -0.815  10.578  23.385  0.00  0.00    -0.166 F 
ENDBRANCH   8  46
BRANCH   6  50
ATOM     50  C   UNL     1      -0.394  13.005  18.922  0.00  0.00    +0.024 C 
ATOM     51  H   UNL     1      -1.218  13.324  19.575  0.00  0.00    +0.048 HD
ATOM     52  H   UNL     1      -0.817  12.914  17.913  0.00  0.00    +0.048 HD
BRANCH  50  53
ATOM     53  N   UNL     1       0.677  14.008  18.936  0.00  0.00    -0.298 NA
ATOM     54  C   UNL     1       1.008  14.492  20.285  0.00  0.00    -0.001 C 
ATOM     55  C   UNL     1       2.337  13.964  20.825  0.00  0.00    -0.040 C 
ATOM     56  C   UNL     1       3.500  14.328  19.903  0.00  0.00    -0.051 C 
ATOM     57  C   UNL     1       3.082  14.379  18.435  0.00  0.00    -0.040 C 
ATOM     58  C   UNL     1       1.841  13.529  18.175  0.00  0.00    -0.001 C 
ATOM     59  H   UNL     1       1.063  15.587  20.237  0.00  0.00    +0.043 HD
ATOM     60  H   UNL     1       0.217  14.271  21.013  0.00  0.00    +0.043 HD
ATOM     61  H   UNL     1       2.525  14.368  21.826  0.00  0.00    +0.028 HD
ATOM     62  H   UNL     1       2.281  12.874  20.932  0.00  0.00    +0.028 HD
ATOM     63  H   UNL     1       4.307  13.600  20.042  0.00  0.00    +0.027 HD
ATOM     64  H   UNL     1       3.914  15.303  20.188  0.00  0.00    +0.027 HD
ATOM     65  H   UNL     1       3.910  14.043  17.801  0.00  0.00    +0.028 HD
ATOM     66  H   UNL     1       2.878  15.420  18.148  0.00  0.00    +0.028 HD
ATOM     67  H   UNL     1       2.071  12.484  18.425  0.00  0.00    +0.043 HD
ATOM     68  H   UNL     1       1.605  13.562  17.105  0.00  0.00    +0.043 HD
ENDBRANCH  50  53
ENDBRANCH   6  50
TORSDOF 8
ENDMDL
MODEL 10
REMARK VINA RESULT:    -8.367      2.011      3.136
REMARK INTER + INTRA:         -13.199
REMARK INTER:                 -12.065
REMARK INTRA:                  -1.134
REMARK UNBOUND:                -1.163
REMARK  Name = 
REMARK  8 active torsions:
REMARK  status: ('A' for Active; 'I' for Inactive)
REMARK    1  A    between atoms: C_1  and  N_2
REMARK    2  A    between atoms: C_6  and  C_7
REMARK    3  A    between atoms: C_7  and  C_8
REMARK    4  A    between atoms: C_8  and  C_12
REMARK    5  A    between atoms: C_16  and  N_18
REMARK    6  A    between atoms: C_23  and  C_24
REMARK    7  A    between atoms: C_24  and  N_25
REMARK    8  A    between atoms: C_32  and  C_33
REMARK                            x       y       z     vdW  Elec       q    Type
REMARK                         _______ _______ _______ _____ _____    ______ ____
ROOT
ATOM      1  N   UNL     1       1.564   7.709  20.073  0.00  0.00    -0.263 N 
ATOM      2  C   UNL     1       1.488   6.421  20.749  0.00  0.00    +0.046 C 
ATOM      3  C   UNL     1       2.377   5.540  19.933  0.00  0.00    -0.006 A 
ATOM      4  C   UNL     1       2.906   6.267  18.874  0.00  0.00    +0.043 A 
ATOM      5  C   UNL     1       3.755   5.707  17.938  0.00  0.00    -0.045 A 
ATOM      6  C   UNL     1       4.092   4.351  18.076  0.00  0.00    -0.032 A 
ATOM      7  C   UNL     1       3.556   3.609  19.155  0.00  0.00    -0.045 A 
ATOM      8  C   UNL     1       2.691   4.195  20.101  0.00  0.00    +0.061 A 
ATOM      9  C   UNL     1       2.397   7.643  18.950  0.00  0.00    +0.251 C 
ATOM     10  O   UNL     1       2.698   8.484  18.124  0.00  0.00    -0.270 OA
ATOM     11  H   UNL     1       0.458   6.053  20.726  0.00  0.00    +0.052 HD
ATOM     12  H   UNL     1       1.866   6.516  21.773  0.00  0.00    +0.052 HD
ATOM     13  H   UNL     1       4.148   6.307  17.121  0.00  0.00    +0.063 HD
ATOM     14  H   UNL     1       3.819   2.554  19.255  0.00  0.00    +0.063 HD
ENDROOT
BRANCH   1  19
ATOM     15  C   UNL     1      -0.699  10.739  20.019  0.00  0.00    -0.035 A 
ATOM     16  C   UNL     1      -0.598  11.115  21.368  0.00  0.00    -0.058 A 
ATOM     17  C   UNL     1       0.183  10.399  22.272  0.00  0.00    -0.060 A 
ATOM     18  C   UNL     1       0.899   9.279  21.851  0.00  0.00    -0.040 A 
ATOM     19  C   UNL     1       0.838   8.847  20.525  0.00  0.00    +0.037 A 
ATOM     20  C   UNL     1       0.028   9.584  19.637  0.00  0.00    -0.036 A 
ATOM     21  H   UNL     1      -1.160  11.975  21.733  0.00  0.00    +0.062 HD
ATOM     22  H   UNL     1       0.229  10.709  23.313  0.00  0.00    +0.062 HD
ATOM     23  H   UNL     1       1.491   8.757  22.596  0.00  0.00    +0.064 HD
ATOM     24  H   UNL     1      -0.055   9.276  18.598  0.00  0.00    +0.064 HD
BRANCH  15  25
ATOM     25  C   UNL     1      -1.583  11.573  18.969  0.00  0.00    +0.049 C 
ATOM     26  C   UNL     1      -2.665  10.801  18.155  0.00  0.00    +0.060 C 
ATOM     27  O   UNL     1      -3.621  11.877  18.375  0.00  0.00    -0.378 OA
ATOM     28  C   UNL     1      -2.844  12.294  19.533  0.00  0.00    +0.060 C 
ATOM     29  H   UNL     1      -3.025   9.866  18.598  0.00  0.00    +0.057 HD
ATOM     30  H   UNL     1      -2.475  10.640  17.093  0.00  0.00    +0.057 HD
ATOM     31  H   UNL     1      -2.788  13.383  19.618  0.00  0.00    +0.057 HD
ATOM     32  H   UNL     1      -3.272  11.883  20.455  0.00  0.00    +0.057 HD
BRANCH  25  33
ATOM     33  C   UNL     1      -0.719  12.550  18.143  0.00  0.00    +0.021 C 
ATOM     34  H   UNL     1      -0.210  12.012  17.333  0.00  0.00    +0.035 HD
ATOM     35  H   UNL     1      -1.362  13.283  17.638  0.00  0.00    +0.035 HD
BRANCH  33  40
ATOM     36  N   UNL     1       1.646  13.038  18.941  0.00  0.00    -0.320 N 
ATOM     37  C   UNL     1       2.196  13.897  19.844  0.00  0.00    +0.120 A 
ATOM     38  N   UNL     1       1.252  14.635  20.375  0.00  0.00    -0.138 NA
ATOM     39  N   UNL     1       0.060  14.256  19.810  0.00  0.00    -0.135 NA
ATOM     40  C   UNL     1       0.295  13.280  18.955  0.00  0.00    +0.134 A 
ATOM     41  H   UNL     1       3.252  13.947  20.074  0.00  0.00    +0.105 HD
BRANCH  36  42
ATOM     42  C   UNL     1       2.366  12.084  18.143  0.00  0.00    +0.014 C 
ATOM     43  H   UNL     1       3.119  12.621  17.562  0.00  0.00    +0.046 HD
ATOM     44  H   UNL     1       1.664  11.568  17.483  0.00  0.00    +0.046 HD
ATOM     45  H   UNL     1       2.853  11.352  18.794  0.00  0.00    +0.046 HD
ENDBRANCH  36  42
ENDBRANCH  33  40
ENDBRANCH  25  33
ENDBRANCH  15  25
ENDBRANCH   1  19
BRANCH   8  46
ATOM     46  C   UNL     1       2.120   3.405  21.247  0.00  0.00    +0.418 C 
ATOM     47  F   UNL     1       2.643   2.149  21.319  0.00  0.00    -0.166 F 
ATOM     48  F   UNL     1       2.332   3.971  22.466  0.00  0.00    -0.166 F 
ATOM     49  F   UNL     1       0.773   3.238  21.138  0.00  0.00    -0.166 F 
ENDBRANCH   8  46
BRANCH   6  50
ATOM     50  C   UNL     1       4.991   3.679  17.056  0.00  0.00    +0.024 C 
ATOM     51  H   UNL     1       4.501   2.730  16.801  0.00  0.00    +0.048 HD
ATOM     52  H   UNL     1       5.958   3.417  17.506  0.00  0.00    +0.048 HD
BRANCH  50  53
ATOM     53  N   UNL     1       5.196   4.482  15.844  0.00  0.00    -0.298 NA
ATOM     54  C   UNL     1       6.282   5.466  15.971  0.00  0.00    -0.001 C 
ATOM     55  C   UNL     1       7.547   5.099  15.196  0.00  0.00    -0.040 C 
ATOM     56  C   UNL     1       7.258   4.915  13.707  0.00  0.00    -0.051 C 
ATOM     57  C   UNL     1       5.854   4.368  13.452  0.00  0.00    -0.040 C 
ATOM     58  C   UNL     1       5.318   3.612  14.665  0.00  0.00    -0.001 C 
ATOM     59  H   UNL     1       5.905   6.422  15.586  0.00  0.00    +0.043 HD
ATOM     60  H   UNL     1       6.550   5.658  17.017  0.00  0.00    +0.043 HD
ATOM     61  H   UNL     1       8.309   5.874  15.327  0.00  0.00    +0.028 HD
ATOM     62  H   UNL     1       7.969   4.172  15.604  0.00  0.00    +0.028 HD
ATOM     63  H   UNL     1       8.010   4.244  13.277  0.00  0.00    +0.027 HD
ATOM     64  H   UNL     1       7.365   5.873  13.183  0.00  0.00    +0.027 HD
ATOM     65  H   UNL     1       5.866   3.713  12.573  0.00  0.00    +0.028 HD
ATOM     66  H   UNL     1       5.177   5.197  13.208  0.00  0.00    +0.028 HD
ATOM     67  H   UNL     1       5.981   2.761  14.871  0.00  0.00    +0.043 HD
ATOM     68  H   UNL     1       4.331   3.202  14.420  0.00  0.00    +0.043 HD
ENDBRANCH  50  53
ENDBRANCH   6  50
TORSDOF 8
ENDMDL
MODEL 11
REMARK VINA RESULT:    -8.341      0.994      1.622
REMARK INTER + INTRA:         -13.162
REMARK INTER:                 -12.760
REMARK INTRA:                  -0.401
REMARK UNBOUND:                -1.163
REMARK  Name = 
REMARK  8 active torsions:
REMARK  status: ('A' for Active; 'I' for Inactive)
REMARK    1  A    between atoms: C_1  and  N_2
REMARK    2  A    between atoms: C_6  and  C_7
REMARK    3  A    between atoms: C_7  and  C_8
REMARK    4  A    between atoms: C_8  and  C_12
REMARK    5  A    between atoms: C_16  and  N_18
REMARK    6  A    between atoms: C_23  and  C_24
REMARK    7  A    between atoms: C_24  and  N_25
REMARK    8  A    between atoms: C_32  and  C_33
REMARK                            x       y       z     vdW  Elec       q    Type
REMARK                         _______ _______ _______ _____ _____    ______ ____
ROOT
ATOM      1  N   UNL     1       1.547   7.566  20.189  0.00  0.00    -0.263 N 
ATOM      2  C   UNL     1       1.437   6.241  20.781  0.00  0.00    +0.046 C 
ATOM      3  C   UNL     1       2.241   5.376  19.867  0.00  0.00    -0.006 A 
ATOM      4  C   UNL     1       2.757   6.146  18.833  0.00  0.00    +0.043 A 
ATOM      5  C   UNL     1       3.531   5.612  17.821  0.00  0.00    -0.045 A 
ATOM      6  C   UNL     1       3.804   4.235  17.852  0.00  0.00    -0.032 A 
ATOM      7  C   UNL     1       3.281   3.448  18.905  0.00  0.00    -0.045 A 
ATOM      8  C   UNL     1       2.492   4.008  19.930  0.00  0.00    +0.061 A 
ATOM      9  C   UNL     1       2.323   7.537  19.024  0.00  0.00    +0.251 C 
ATOM     10  O   UNL     1       2.628   8.418  18.242  0.00  0.00    -0.270 OA
ATOM     11  H   UNL     1       0.389   5.924  20.785  0.00  0.00    +0.052 HD
ATOM     12  H   UNL     1       1.866   6.247  21.790  0.00  0.00    +0.052 HD
ATOM     13  H   UNL     1       3.916   6.247  17.027  0.00  0.00    +0.063 HD
ATOM     14  H   UNL     1       3.494   2.377  18.923  0.00  0.00    +0.063 HD
ENDROOT
BRANCH   1  19
ATOM     15  C   UNL     1      -0.378  10.814  20.419  0.00  0.00    -0.035 A 
ATOM     16  C   UNL     1      -0.368  10.980  21.813  0.00  0.00    -0.058 A 
ATOM     17  C   UNL     1       0.248  10.057  22.656  0.00  0.00    -0.060 A 
ATOM     18  C   UNL     1       0.882   8.933  22.128  0.00  0.00    -0.040 A 
ATOM     19  C   UNL     1       0.902   8.704  20.751  0.00  0.00    +0.037 A 
ATOM     20  C   UNL     1       0.260   9.649  19.925  0.00  0.00    -0.036 A 
ATOM     21  H   UNL     1      -0.871  11.838  22.260  0.00  0.00    +0.062 HD
ATOM     22  H   UNL     1       0.226  10.208  23.733  0.00  0.00    +0.062 HD
ATOM     23  H   UNL     1       1.343   8.245  22.829  0.00  0.00    +0.064 HD
ATOM     24  H   UNL     1       0.244   9.503  18.848  0.00  0.00    +0.064 HD
BRANCH  15  25
ATOM     25  C   UNL     1      -1.068  11.885  19.442  0.00  0.00    +0.049 C 
ATOM     26  C   UNL     1      -0.860  13.397  19.759  0.00  0.00    +0.060 C 
ATOM     27  O   UNL     1      -0.621  13.676  18.350  0.00  0.00    -0.378 OA
ATOM     28  C   UNL     1      -0.274  12.275  18.160  0.00  0.00    +0.060 C 
ATOM     29  H   UNL     1       0.023  13.647  20.359  0.00  0.00    +0.057 HD
ATOM     30  H   UNL     1      -1.717  13.953  20.142  0.00  0.00    +0.057 HD
ATOM     31  H   UNL     1      -0.653  11.885  17.211  0.00  0.00    +0.057 HD
ATOM     32  H   UNL     1       0.814  12.139  18.196  0.00  0.00    +0.057 HD
BRANCH  25  33
ATOM     33  C   UNL     1      -2.517  11.487  19.087  0.00  0.00    +0.021 C 
ATOM     34  H   UNL     1      -2.906  10.778  19.828  0.00  0.00    +0.035 HD
ATOM     35  H   UNL     1      -3.174  12.364  19.160  0.00  0.00    +0.035 HD
BRANCH  33  40
ATOM     36  N   UNL     1      -3.712  11.102  16.876  0.00  0.00    -0.320 N 
ATOM     37  C   UNL     1      -3.456  10.359  15.764  0.00  0.00    +0.120 A 
ATOM     38  N   UNL     1      -2.309   9.741  15.906  0.00  0.00    -0.138 NA
ATOM     39  N   UNL     1      -1.800  10.086  17.133  0.00  0.00    -0.135 NA
ATOM     40  C   UNL     1      -2.654  10.895  17.727  0.00  0.00    +0.134 A 
ATOM     41  H   UNL     1      -4.112  10.300  14.904  0.00  0.00    +0.105 HD
BRANCH  36  42
ATOM     42  C   UNL     1      -4.866  11.934  17.084  0.00  0.00    +0.014 C 
ATOM     43  H   UNL     1      -4.995  12.076  18.159  0.00  0.00    +0.046 HD
ATOM     44  H   UNL     1      -5.741  11.445  16.651  0.00  0.00    +0.046 HD
ATOM     45  H   UNL     1      -4.715  12.901  16.598  0.00  0.00    +0.046 HD
ENDBRANCH  36  42
ENDBRANCH  33  40
ENDBRANCH  25  33
ENDBRANCH  15  25
ENDBRANCH   1  19
BRANCH   8  46
ATOM     46  C   UNL     1       1.935   3.170  21.048  0.00  0.00    +0.418 C 
ATOM     47  F   UNL     1       0.573   3.178  21.070  0.00  0.00    -0.166 F 
ATOM     48  F   UNL     1       2.303   1.862  20.992  0.00  0.00    -0.166 F 
ATOM     49  F   UNL     1       2.326   3.620  22.273  0.00  0.00    -0.166 F 
ENDBRANCH   8  46
BRANCH   6  50
ATOM     50  C   UNL     1       4.620   3.592  16.747  0.00  0.00    +0.024 C 
ATOM     51  H   UNL     1       3.961   2.848  16.280  0.00  0.00    +0.048 HD
ATOM     52  H   UNL     1       5.467   3.034  17.166  0.00  0.00    +0.048 HD
BRANCH  50  53
ATOM     53  N   UNL     1       5.091   4.551  15.740  0.00  0.00    -0.298 NA
ATOM     54  C   UNL     1       6.215   5.380  16.202  0.00  0.00    -0.001 C 
ATOM     55  C   UNL     1       7.559   5.006  15.578  0.00  0.00    -0.040 C 
ATOM     56  C   UNL     1       7.513   5.094  14.053  0.00  0.00    -0.051 C 
ATOM     57  C   UNL     1       6.134   4.749  13.494  0.00  0.00    -0.040 C 
ATOM     58  C   UNL     1       5.341   3.872  14.460  0.00  0.00    -0.001 C 
ATOM     59  H   UNL     1       5.987   6.420  15.937  0.00  0.00    +0.043 HD
ATOM     60  H   UNL     1       6.317   5.372  17.294  0.00  0.00    +0.043 HD
ATOM     61  H   UNL     1       8.348   5.664  15.958  0.00  0.00    +0.028 HD
ATOM     62  H   UNL     1       7.830   3.986  15.878  0.00  0.00    +0.028 HD
ATOM     63  H   UNL     1       8.271   4.423  13.634  0.00  0.00    +0.027 HD
ATOM     64  H   UNL     1       7.785   6.106  13.728  0.00  0.00    +0.027 HD
ATOM     65  H   UNL     1       6.242   4.245  12.527  0.00  0.00    +0.028 HD
ATOM     66  H   UNL     1       5.576   5.674  13.298  0.00  0.00    +0.028 HD
ATOM     67  H   UNL     1       5.889   2.932  14.614  0.00  0.00    +0.043 HD
ATOM     68  H   UNL     1       4.380   3.615  13.999  0.00  0.00    +0.043 HD
ENDBRANCH  50  53
ENDBRANCH   6  50
TORSDOF 8
ENDMDL
MODEL 12
REMARK VINA RESULT:    -7.730      3.554      5.100
REMARK INTER + INTRA:         -12.283
REMARK INTER:                 -11.996
REMARK INTRA:                  -0.287
REMARK UNBOUND:                -1.163
REMARK  Name = 
REMARK  8 active torsions:
REMARK  status: ('A' for Active; 'I' for Inactive)
REMARK    1  A    between atoms: C_1  and  N_2
REMARK    2  A    between atoms: C_6  and  C_7
REMARK    3  A    between atoms: C_7  and  C_8
REMARK    4  A    between atoms: C_8  and  C_12
REMARK    5  A    between atoms: C_16  and  N_18
REMARK    6  A    between atoms: C_23  and  C_24
REMARK    7  A    between atoms: C_24  and  N_25
REMARK    8  A    between atoms: C_32  and  C_33
REMARK                            x       y       z     vdW  Elec       q    Type
REMARK                         _______ _______ _______ _____ _____    ______ ____
ROOT
ATOM      1  N   UNL     1       1.085   9.530  19.619  0.00  0.00    -0.263 N 
ATOM      2  C   UNL     1       2.065   8.996  18.684  0.00  0.00    +0.046 C 
ATOM      3  C   UNL     1       2.328   7.617  19.194  0.00  0.00    -0.006 A 
ATOM      4  C   UNL     1       1.566   7.391  20.333  0.00  0.00    +0.043 A 
ATOM      5  C   UNL     1       1.615   6.202  21.037  0.00  0.00    -0.045 A 
ATOM      6  C   UNL     1       2.468   5.190  20.569  0.00  0.00    -0.032 A 
ATOM      7  C   UNL     1       3.243   5.417  19.408  0.00  0.00    -0.045 A 
ATOM      8  C   UNL     1       3.183   6.635  18.702  0.00  0.00    +0.061 A 
ATOM      9  C   UNL     1       0.775   8.596  20.615  0.00  0.00    +0.251 C 
ATOM     10  O   UNL     1       0.030   8.665  21.575  0.00  0.00    -0.270 OA
ATOM     11  H   UNL     1       2.977   9.600  18.722  0.00  0.00    +0.052 HD
ATOM     12  H   UNL     1       1.637   8.964  17.675  0.00  0.00    +0.052 HD
ATOM     13  H   UNL     1       1.005   6.062  21.926  0.00  0.00    +0.063 HD
ATOM     14  H   UNL     1       3.906   4.628  19.050  0.00  0.00    +0.063 HD
ENDROOT
BRANCH   1  19
ATOM     15  C   UNL     1      -1.184  12.518  20.103  0.00  0.00    -0.035 A 
ATOM     16  C   UNL     1      -0.511  13.441  19.288  0.00  0.00    -0.058 A 
ATOM     17  C   UNL     1       0.652  13.101  18.600  0.00  0.00    -0.060 A 
ATOM     18  C   UNL     1       1.181  11.815  18.703  0.00  0.00    -0.040 A 
ATOM     19  C   UNL     1       0.565  10.850  19.502  0.00  0.00    +0.037 A 
ATOM     20  C   UNL     1      -0.603  11.228  20.195  0.00  0.00    -0.036 A 
ATOM     21  H   UNL     1      -0.887  14.461  19.200  0.00  0.00    +0.062 HD
ATOM     22  H   UNL     1       1.157  13.845  17.987  0.00  0.00    +0.062 HD
ATOM     23  H   UNL     1       2.089  11.604  18.149  0.00  0.00    +0.064 HD
ATOM     24  H   UNL     1      -1.108  10.510  20.836  0.00  0.00    +0.064 HD
BRANCH  15  25
ATOM     25  C   UNL     1      -2.536  12.899  20.881  0.00  0.00    +0.049 C 
ATOM     26  C   UNL     1      -3.044  14.369  20.777  0.00  0.00    +0.060 C 
ATOM     27  O   UNL     1      -4.408  13.901  20.577  0.00  0.00    -0.378 OA
ATOM     28  C   UNL     1      -3.874  12.622  20.133  0.00  0.00    +0.060 C 
ATOM     29  H   UNL     1      -2.698  14.938  19.906  0.00  0.00    +0.057 HD
ATOM     30  H   UNL     1      -2.957  14.994  21.667  0.00  0.00    +0.057 HD
ATOM     31  H   UNL     1      -4.472  11.781  20.495  0.00  0.00    +0.057 HD
ATOM     32  H   UNL     1      -3.825  12.582  19.038  0.00  0.00    +0.057 HD
BRANCH  25  33
ATOM     33  C   UNL     1      -2.569  12.297  22.301  0.00  0.00    +0.021 C 
ATOM     34  H   UNL     1      -3.475  11.694  22.436  0.00  0.00    +0.035 HD
ATOM     35  H   UNL     1      -1.737  11.591  22.427  0.00  0.00    +0.035 HD
BRANCH  33  40
ATOM     36  N   UNL     1      -3.560  13.745  24.141  0.00  0.00    -0.320 N 
ATOM     37  C   UNL     1      -3.070  14.699  24.980  0.00  0.00    +0.120 A 
ATOM     38  N   UNL     1      -1.785  14.848  24.770  0.00  0.00    -0.138 NA
ATOM     39  N   UNL     1      -1.423  13.974  23.774  0.00  0.00    -0.135 NA
ATOM     40  C   UNL     1      -2.498  13.320  23.383  0.00  0.00    +0.134 A 
ATOM     41  H   UNL     1      -3.666  15.241  25.704  0.00  0.00    +0.105 HD
BRANCH  36  42
ATOM     42  C   UNL     1      -4.923  13.292  24.088  0.00  0.00    +0.014 C 
ATOM     43  H   UNL     1      -5.155  12.794  25.032  0.00  0.00    +0.046 HD
ATOM     44  H   UNL     1      -5.039  12.603  23.249  0.00  0.00    +0.046 HD
ATOM     45  H   UNL     1      -5.590  14.148  23.948  0.00  0.00    +0.046 HD
ENDBRANCH  36  42
ENDBRANCH  33  40
ENDBRANCH  25  33
ENDBRANCH  15  25
ENDBRANCH   1  19
BRANCH   8  46
ATOM     46  C   UNL     1       4.009   6.877  17.468  0.00  0.00    +0.418 C 
ATOM     47  F   UNL     1       4.194   5.741  16.740  0.00  0.00    -0.166 F 
ATOM     48  F   UNL     1       3.469   7.788  16.613  0.00  0.00    -0.166 F 
ATOM     49  F   UNL     1       5.258   7.333  17.765  0.00  0.00    -0.166 F 
ENDBRANCH   8  46
BRANCH   6  50
ATOM     50  C   UNL     1       2.584   3.879  21.324  0.00  0.00    +0.024 C 
ATOM     51  H   UNL     1       1.773   3.886  22.065  0.00  0.00    +0.048 HD
ATOM     52  H   UNL     1       3.522   3.842  21.893  0.00  0.00    +0.048 HD
BRANCH  50  53
ATOM     53  N   UNL     1       2.466   2.698  20.460  0.00  0.00    -0.298 NA
ATOM     54  C   UNL     1       1.246   2.693  19.638  0.00  0.00    -0.001 C 
ATOM     55  C   UNL     1       1.492   2.987  18.159  0.00  0.00    -0.040 C 
ATOM     56  C   UNL     1       2.470   1.987  17.544  0.00  0.00    -0.051 C 
ATOM     57  C   UNL     1       3.510   1.500  18.551  0.00  0.00    -0.040 C 
ATOM     58  C   UNL     1       3.702   2.501  19.688  0.00  0.00    -0.001 C 
ATOM     59  H   UNL     1       0.796   1.696  19.724  0.00  0.00    +0.043 HD
ATOM     60  H   UNL     1       0.486   3.389  20.017  0.00  0.00    +0.043 HD
ATOM     61  H   UNL     1       0.546   2.961  17.607  0.00  0.00    +0.028 HD
ATOM     62  H   UNL     1       1.891   4.004  18.050  0.00  0.00    +0.028 HD
ATOM     63  H   UNL     1       2.963   2.452  16.684  0.00  0.00    +0.027 HD
ATOM     64  H   UNL     1       1.922   1.120  17.153  0.00  0.00    +0.027 HD
ATOM     65  H   UNL     1       4.464   1.320  18.041  0.00  0.00    +0.028 HD
ATOM     66  H   UNL     1       3.196   0.533  18.964  0.00  0.00    +0.028 HD
ATOM     67  H   UNL     1       4.058   3.450  19.266  0.00  0.00    +0.043 HD
ATOM     68  H   UNL     1       4.486   2.131  20.358  0.00  0.00    +0.043 HD
ENDBRANCH  50  53
ENDBRANCH   6  50
TORSDOF 8
ENDMDL
MODEL 13
REMARK VINA RESULT:    -7.547      2.879      4.384
REMARK INTER + INTRA:         -12.019
REMARK INTER:                 -11.456
REMARK INTRA:                  -0.562
REMARK UNBOUND:                -1.163
REMARK  Name = 
REMARK  8 active torsions:
REMARK  status: ('A' for Active; 'I' for Inactive)
REMARK    1  A    between atoms: C_1  and  N_2
REMARK    2  A    between atoms: C_6  and  C_7
REMARK    3  A    between atoms: C_7  and  C_8
REMARK    4  A    between atoms: C_8  and  C_12
REMARK    5  A    between atoms: C_16  and  N_18
REMARK    6  A    between atoms: C_23  and  C_24
REMARK    7  A    between atoms: C_24  and  N_25
REMARK    8  A    between atoms: C_32  and  C_33
REMARK                            x       y       z     vdW  Elec       q    Type
REMARK                         _______ _______ _______ _____ _____    ______ ____
ROOT
ATOM      1  N   UNL     1       2.525   8.590  18.375  0.00  0.00    -0.263 N 
ATOM      2  C   UNL     1       3.414   8.162  17.305  0.00  0.00    +0.046 C 
ATOM      3  C   UNL     1       3.801   6.774  17.699  0.00  0.00    -0.006 A 
ATOM      4  C   UNL     1       3.189   6.445  18.901  0.00  0.00    +0.043 A 
ATOM      5  C   UNL     1       3.376   5.225  19.523  0.00  0.00    -0.045 A 
ATOM      6  C   UNL     1       4.217   4.288  18.901  0.00  0.00    -0.032 A 
ATOM      7  C   UNL     1       4.840   4.619  17.675  0.00  0.00    -0.045 A 
ATOM      8  C   UNL     1       4.639   5.869  17.055  0.00  0.00    +0.061 A 
ATOM      9  C   UNL     1       2.378   7.589  19.343  0.00  0.00    +0.251 C 
ATOM     10  O   UNL     1       1.748   7.564  20.383  0.00  0.00    -0.270 OA
ATOM     11  H   UNL     1       4.294   8.812  17.275  0.00  0.00    +0.052 HD
ATOM     12  H   UNL     1       2.874   8.161  16.351  0.00  0.00    +0.052 HD
ATOM     13  H   UNL     1       2.881   5.004  20.465  0.00  0.00    +0.063 HD
ATOM     14  H   UNL     1       5.495   3.888  17.199  0.00  0.00    +0.063 HD
ENDROOT
BRANCH   1  19
ATOM     15  C   UNL     1      -0.050  11.318  18.866  0.00  0.00    -0.035 A 
ATOM     16  C   UNL     1       0.710  12.419  18.440  0.00  0.00    -0.058 A 
ATOM     17  C   UNL     1       2.027  12.277  18.007  0.00  0.00    -0.060 A 
ATOM     18  C   UNL     1       2.629  11.019  17.981  0.00  0.00    -0.040 A 
ATOM     19  C   UNL     1       1.932   9.884  18.397  0.00  0.00    +0.037 A 
ATOM     20  C   UNL     1       0.606  10.061  18.842  0.00  0.00    -0.036 A 
ATOM     21  H   UNL     1       0.276  13.419  18.466  0.00  0.00    +0.062 HD
ATOM     22  H   UNL     1       2.593  13.153  17.696  0.00  0.00    +0.062 HD
ATOM     23  H   UNL     1       3.656  10.966  17.636  0.00  0.00    +0.064 HD
ATOM     24  H   UNL     1       0.031   9.205  19.184  0.00  0.00    +0.064 HD
BRANCH  15  25
ATOM     25  C   UNL     1      -1.574  11.473  19.346  0.00  0.00    +0.049 C 
ATOM     26  C   UNL     1      -1.831  11.865  20.832  0.00  0.00    +0.060 C 
ATOM     27  O   UNL     1      -2.854  12.816  20.422  0.00  0.00    -0.378 OA
ATOM     28  C   UNL     1      -2.247  12.857  19.100  0.00  0.00    +0.060 C 
ATOM     29  H   UNL     1      -1.008  12.378  21.345  0.00  0.00    +0.057 HD
ATOM     30  H   UNL     1      -2.235  11.096  21.492  0.00  0.00    +0.057 HD
ATOM     31  H   UNL     1      -2.997  12.902  18.306  0.00  0.00    +0.057 HD
ATOM     32  H   UNL     1      -1.576  13.720  19.010  0.00  0.00    +0.057 HD
BRANCH  25  33
ATOM     33  C   UNL     1      -2.462  10.330  18.810  0.00  0.00    +0.021 C 
ATOM     34  H   UNL     1      -1.973   9.363  18.975  0.00  0.00    +0.035 HD
ATOM     35  H   UNL     1      -3.395  10.280  19.387  0.00  0.00    +0.035 HD
BRANCH  33  40
ATOM     36  N   UNL     1      -3.995  10.922  16.869  0.00  0.00    -0.320 N 
ATOM     37  C   UNL     1      -3.894  10.858  15.513  0.00  0.00    +0.120 A 
ATOM     38  N   UNL     1      -2.708  10.407  15.184  0.00  0.00    -0.138 NA
ATOM     39  N   UNL     1      -2.016  10.171  16.346  0.00  0.00    -0.135 NA
ATOM     40  C   UNL     1      -2.798  10.467  17.365  0.00  0.00    +0.134 A 
ATOM     41  H   UNL     1      -4.682  11.141  14.827  0.00  0.00    +0.105 HD
BRANCH  36  42
ATOM     42  C   UNL     1      -5.139  11.385  17.606  0.00  0.00    +0.014 C 
ATOM     43  H   UNL     1      -5.036  12.462  17.757  0.00  0.00    +0.046 HD
ATOM     44  H   UNL     1      -5.183  10.863  18.564  0.00  0.00    +0.046 HD
ATOM     45  H   UNL     1      -6.051  11.177  17.039  0.00  0.00    +0.046 HD
ENDBRANCH  36  42
ENDBRANCH  33  40
ENDBRANCH  25  33
ENDBRANCH  15  25
ENDBRANCH   1  19
BRANCH   8  46
ATOM     46  C   UNL     1       5.304   6.222  15.752  0.00  0.00    +0.418 C 
ATOM     47  F   UNL     1       5.383   5.155  14.908  0.00  0.00    -0.166 F 
ATOM     48  F   UNL     1       4.668   7.205  15.058  0.00  0.00    -0.166 F 
ATOM     49  F   UNL     1       6.585   6.650  15.926  0.00  0.00    -0.166 F 
ENDBRANCH   8  46
BRANCH   6  50
ATOM     50  C   UNL     1       4.484   2.946  19.559  0.00  0.00    +0.024 C 
ATOM     51  H   UNL     1       4.955   3.174  20.525  0.00  0.00    +0.048 HD
ATOM     52  H   UNL     1       5.221   2.373  18.983  0.00  0.00    +0.048 HD
BRANCH  50  53
ATOM     53  N   UNL     1       3.269   2.149  19.766  0.00  0.00    -0.298 NA
ATOM     54  C   UNL     1       2.613   2.406  21.057  0.00  0.00    -0.001 C 
ATOM     55  C   UNL     1       1.321   3.215  20.947  0.00  0.00    -0.040 C 
ATOM     56  C   UNL     1       0.304   2.525  20.039  0.00  0.00    -0.051 C 
ATOM     57  C   UNL     1       0.972   1.738  18.913  0.00  0.00    -0.040 C 
ATOM     58  C   UNL     1       2.370   2.272  18.609  0.00  0.00    -0.001 C 
ATOM     59  H   UNL     1       2.376   1.433  21.505  0.00  0.00    +0.043 HD
ATOM     60  H   UNL     1       3.281   2.901  21.772  0.00  0.00    +0.043 HD
ATOM     61  H   UNL     1       0.882   3.363  21.940  0.00  0.00    +0.028 HD
ATOM     62  H   UNL     1       1.547   4.213  20.552  0.00  0.00    +0.028 HD
ATOM     63  H   UNL     1      -0.374   3.279  19.624  0.00  0.00    +0.027 HD
ATOM     64  H   UNL     1      -0.321   1.841  20.627  0.00  0.00    +0.027 HD
ATOM     65  H   UNL     1       0.348   1.776  18.012  0.00  0.00    +0.028 HD
ATOM     66  H   UNL     1       1.039   0.679  19.196  0.00  0.00    +0.028 HD
ATOM     67  H   UNL     1       2.285   3.318  18.286  0.00  0.00    +0.043 HD
ATOM     68  H   UNL     1       2.791   1.707  17.768  0.00  0.00    +0.043 HD
ENDBRANCH  50  53
ENDBRANCH   6  50
TORSDOF 8
ENDMDL
MODEL 14
REMARK VINA RESULT:    -7.472      3.273      4.961
REMARK INTER + INTRA:         -11.912
REMARK INTER:                 -11.100
REMARK INTRA:                  -0.812
REMARK UNBOUND:                -1.163
REMARK  Name = 
REMARK  8 active torsions:
REMARK  status: ('A' for Active; 'I' for Inactive)
REMARK    1  A    between atoms: C_1  and  N_2
REMARK    2  A    between atoms: C_6  and  C_7
REMARK    3  A    between atoms: C_7  and  C_8
REMARK    4  A    between atoms: C_8  and  C_12
REMARK    5  A    between atoms: C_16  and  N_18
REMARK    6  A    between atoms: C_23  and  C_24
REMARK    7  A    between atoms: C_24  and  N_25
REMARK    8  A    between atoms: C_32  and  C_33
REMARK                            x       y       z     vdW  Elec       q    Type
REMARK                         _______ _______ _______ _____ _____    ______ ____
ROOT
ATOM      1  N   UNL     1       2.292   8.888  18.389  0.00  0.00    -0.263 N 
ATOM      2  C   UNL     1       3.230   8.473  17.356  0.00  0.00    +0.046 C 
ATOM      3  C   UNL     1       3.645   7.103  17.783  0.00  0.00    -0.006 A 
ATOM      4  C   UNL     1       3.002   6.771  18.968  0.00  0.00    +0.043 A 
ATOM      5  C   UNL     1       3.204   5.565  19.613  0.00  0.00    -0.045 A 
ATOM      6  C   UNL     1       4.093   4.646  19.033  0.00  0.00    -0.032 A 
ATOM      7  C   UNL     1       4.748   4.980  17.825  0.00  0.00    -0.045 A 
ATOM      8  C   UNL     1       4.532   6.215  17.181  0.00  0.00    +0.061 A 
ATOM      9  C   UNL     1       2.143   7.895  19.365  0.00  0.00    +0.251 C 
ATOM     10  O   UNL     1       1.478   7.865  20.384  0.00  0.00    -0.270 OA
ATOM     11  H   UNL     1       4.091   9.149  17.347  0.00  0.00    +0.052 HD
ATOM     12  H   UNL     1       2.723   8.443  16.385  0.00  0.00    +0.052 HD
ATOM     13  H   UNL     1       2.684   5.341  20.541  0.00  0.00    +0.063 HD
ATOM     14  H   UNL     1       5.440   4.263  17.381  0.00  0.00    +0.063 HD
ENDROOT
BRANCH   1  19
ATOM     15  C   UNL     1      -0.428  11.514  18.495  0.00  0.00    -0.035 A 
ATOM     16  C   UNL     1       0.365  12.661  18.328  0.00  0.00    -0.058 A 
ATOM     17  C   UNL     1       1.749  12.581  18.187  0.00  0.00    -0.060 A 
ATOM     18  C   UNL     1       2.388  11.342  18.204  0.00  0.00    -0.040 A 
ATOM     19  C   UNL     1       1.660  10.163  18.373  0.00  0.00    +0.037 A 
ATOM     20  C   UNL     1       0.264  10.277  18.526  0.00  0.00    -0.036 A 
ATOM     21  H   UNL     1      -0.102  13.646  18.329  0.00  0.00    +0.062 HD
ATOM     22  H   UNL     1       2.335  13.490  18.072  0.00  0.00    +0.062 HD
ATOM     23  H   UNL     1       3.468  11.337  18.092  0.00  0.00    +0.064 HD
ATOM     24  H   UNL     1      -0.339   9.384  18.670  0.00  0.00    +0.064 HD
BRANCH  15  25
ATOM     25  C   UNL     1      -2.025  11.600  18.637  0.00  0.00    +0.049 C 
ATOM     26  C   UNL     1      -2.874  11.554  17.331  0.00  0.00    +0.060 C 
ATOM     27  O   UNL     1      -3.813  10.633  17.953  0.00  0.00    -0.378 OA
ATOM     28  C   UNL     1      -2.776  10.260  18.904  0.00  0.00    +0.060 C 
ATOM     29  H   UNL     1      -2.395  11.090  16.460  0.00  0.00    +0.057 HD
ATOM     30  H   UNL     1      -3.361  12.478  17.016  0.00  0.00    +0.057 HD
ATOM     31  H   UNL     1      -3.176  10.116  19.911  0.00  0.00    +0.057 HD
ATOM     32  H   UNL     1      -2.270   9.342  18.583  0.00  0.00    +0.057 HD
BRANCH  25  33
ATOM     33  C   UNL     1      -2.452  12.678  19.655  0.00  0.00    +0.021 C 
ATOM     34  H   UNL     1      -1.933  13.622  19.447  0.00  0.00    +0.035 HD
ATOM     35  H   UNL     1      -3.519  12.907  19.532  0.00  0.00    +0.035 HD
BRANCH  33  40
ATOM     36  N   UNL     1      -3.131  12.350  22.084  0.00  0.00    -0.320 N 
ATOM     37  C   UNL     1      -2.490  11.938  23.212  0.00  0.00    +0.120 A 
ATOM     38  N   UNL     1      -1.251  11.626  22.921  0.00  0.00    -0.138 NA
ATOM     39  N   UNL     1      -1.075  11.835  21.576  0.00  0.00    -0.135 NA
ATOM     40  C   UNL     1      -2.205  12.289  21.072  0.00  0.00    +0.134 A 
ATOM     41  H   UNL     1      -2.950  11.883  24.191  0.00  0.00    +0.105 HD
BRANCH  36  42
ATOM     42  C   UNL     1      -4.508  12.758  22.000  0.00  0.00    +0.014 C 
ATOM     43  H   UNL     1      -4.724  13.020  20.962  0.00  0.00    +0.046 HD
ATOM     44  H   UNL     1      -4.667  13.615  22.657  0.00  0.00    +0.046 HD
ATOM     45  H   UNL     1      -5.155  11.935  22.317  0.00  0.00    +0.046 HD
ENDBRANCH  36  42
ENDBRANCH  33  40
ENDBRANCH  25  33
ENDBRANCH  15  25
ENDBRANCH   1  19
BRANCH   8  46
ATOM     46  C   UNL     1       5.229   6.571  15.896  0.00  0.00    +0.418 C 
ATOM     47  F   UNL     1       5.622   5.468  15.200  0.00  0.00    -0.166 F 
ATOM     48  F   UNL     1       4.468   7.304  15.040  0.00  0.00    -0.166 F 
ATOM     49  F   UNL     1       6.363   7.295  16.109  0.00  0.00    -0.166 F 
ENDBRANCH   8  46
BRANCH   6  50
ATOM     50  C   UNL     1       4.377   3.322  19.719  0.00  0.00    +0.024 C 
ATOM     51  H   UNL     1       4.715   3.575  20.733  0.00  0.00    +0.048 HD
ATOM     52  H   UNL     1       5.216   2.807  19.232  0.00  0.00    +0.048 HD
BRANCH  50  53
ATOM     53  N   UNL     1       3.207   2.439  19.783  0.00  0.00    -0.298 NA
ATOM     54  C   UNL     1       2.429   2.586  21.023  0.00  0.00    -0.001 C 
ATOM     55  C   UNL     1       1.099   3.314  20.839  0.00  0.00    -0.040 C 
ATOM     56  C   UNL     1       0.211   2.608  19.815  0.00  0.00    -0.051 C 
ATOM     57  C   UNL     1       1.023   1.925  18.717  0.00  0.00    -0.040 C 
ATOM     58  C   UNL     1       2.401   2.562  18.559  0.00  0.00    -0.001 C 
ATOM     59  H   UNL     1       2.224   1.578  21.404  0.00  0.00    +0.043 HD
ATOM     60  H   UNL     1       3.001   3.086  21.815  0.00  0.00    +0.043 HD
ATOM     61  H   UNL     1       0.570   3.383  21.796  0.00  0.00    +0.028 HD
ATOM     62  H   UNL     1       1.288   4.344  20.511  0.00  0.00    +0.028 HD
ATOM     63  H   UNL     1      -0.480   3.337  19.378  0.00  0.00    +0.027 HD
ATOM     64  H   UNL     1      -0.412   1.856  20.315  0.00  0.00    +0.027 HD
ATOM     65  H   UNL     1       0.475   1.969  17.768  0.00  0.00    +0.028 HD
ATOM     66  H   UNL     1       1.138   0.859  18.956  0.00  0.00    +0.028 HD
ATOM     67  H   UNL     1       2.272   3.616  18.278  0.00  0.00    +0.043 HD
ATOM     68  H   UNL     1       2.928   2.069  17.734  0.00  0.00    +0.043 HD
ENDBRANCH  50  53
ENDBRANCH   6  50
TORSDOF 8
ENDMDL
MODEL 15
REMARK VINA RESULT:    -7.471      3.632      9.991
REMARK INTER + INTRA:         -11.909
REMARK INTER:                 -11.724
REMARK INTRA:                  -0.185
REMARK UNBOUND:                -1.163
REMARK  Name = 
REMARK  8 active torsions:
REMARK  status: ('A' for Active; 'I' for Inactive)
REMARK    1  A    between atoms: C_1  and  N_2
REMARK    2  A    between atoms: C_6  and  C_7
REMARK    3  A    between atoms: C_7  and  C_8
REMARK    4  A    between atoms: C_8  and  C_12
REMARK    5  A    between atoms: C_16  and  N_18
REMARK    6  A    between atoms: C_23  and  C_24
REMARK    7  A    between atoms: C_24  and  N_25
REMARK    8  A    between atoms: C_32  and  C_33
REMARK                            x       y       z     vdW  Elec       q    Type
REMARK                         _______ _______ _______ _____ _____    ______ ____
ROOT
ATOM      1  N   UNL     1       0.604   9.379  18.466  0.00  0.00    -0.263 N 
ATOM      2  C   UNL     1      -0.498   9.547  17.531  0.00  0.00    +0.046 C 
ATOM      3  C   UNL     1      -1.400  10.522  18.216  0.00  0.00    -0.006 A 
ATOM      4  C   UNL     1      -0.858  10.870  19.446  0.00  0.00    +0.043 A 
ATOM      5  C   UNL     1      -1.482  11.746  20.313  0.00  0.00    -0.045 A 
ATOM      6  C   UNL     1      -2.710  12.304  19.922  0.00  0.00    -0.032 A 
ATOM      7  C   UNL     1      -3.264  11.952  18.668  0.00  0.00    -0.045 A 
ATOM      8  C   UNL     1      -2.615  11.056  17.796  0.00  0.00    +0.061 A 
ATOM      9  C   UNL     1       0.412  10.151  19.619  0.00  0.00    +0.251 C 
ATOM     10  O   UNL     1       1.084  10.269  20.627  0.00  0.00    -0.270 OA
ATOM     11  H   UNL     1      -1.009   8.590  17.386  0.00  0.00    +0.052 HD
ATOM     12  H   UNL     1      -0.124   9.959  16.586  0.00  0.00    +0.052 HD
ATOM     13  H   UNL     1      -1.028  11.994  21.269  0.00  0.00    +0.063 HD
ATOM     14  H   UNL     1      -4.220  12.386  18.371  0.00  0.00    +0.063 HD
ENDROOT
BRANCH   1  19
ATOM     15  C   UNL     1       2.721   6.244  18.410  0.00  0.00    -0.035 A 
ATOM     16  C   UNL     1       3.839   6.745  17.725  0.00  0.00    -0.058 A 
ATOM     17  C   UNL     1       3.902   8.068  17.291  0.00  0.00    -0.060 A 
ATOM     18  C   UNL     1       2.841   8.940  17.534  0.00  0.00    -0.040 A 
ATOM     19  C   UNL     1       1.696   8.505  18.204  0.00  0.00    +0.037 A 
ATOM     20  C   UNL     1       1.657   7.158  18.619  0.00  0.00    -0.036 A 
ATOM     21  H   UNL     1       4.678   6.085  17.502  0.00  0.00    +0.062 HD
ATOM     22  H   UNL     1       4.778   8.420  16.751  0.00  0.00    +0.062 HD
ATOM     23  H   UNL     1       2.941   9.958  17.173  0.00  0.00    +0.064 HD
ATOM     24  H   UNL     1       0.780   6.776  19.135  0.00  0.00    +0.064 HD
BRANCH  15  25
ATOM     25  C   UNL     1       2.653   4.727  18.930  0.00  0.00    +0.049 C 
ATOM     26  C   UNL     1       1.576   4.373  19.999  0.00  0.00    +0.060 C 
ATOM     27  O   UNL     1       1.246   3.148  19.286  0.00  0.00    -0.378 OA
ATOM     28  C   UNL     1       1.809   3.733  18.078  0.00  0.00    +0.060 C 
ATOM     29  H   UNL     1       0.707   5.040  20.047  0.00  0.00    +0.057 HD
ATOM     30  H   UNL     1       1.923   4.170  21.014  0.00  0.00    +0.057 HD
ATOM     31  H   UNL     1       2.366   2.998  17.488  0.00  0.00    +0.057 HD
ATOM     32  H   UNL     1       1.019   4.169  17.455  0.00  0.00    +0.057 HD
BRANCH  25  33
ATOM     33  C   UNL     1       4.059   4.154  19.206  0.00  0.00    +0.021 C 
ATOM     34  H   UNL     1       4.565   4.748  19.976  0.00  0.00    +0.035 HD
ATOM     35  H   UNL     1       3.975   3.146  19.634  0.00  0.00    +0.035 HD
BRANCH  33  40
ATOM     36  N   UNL     1       6.187   4.616  17.892  0.00  0.00    -0.320 N 
ATOM     37  C   UNL     1       6.602   4.366  16.620  0.00  0.00    +0.120 A 
ATOM     38  N   UNL     1       5.666   3.714  15.975  0.00  0.00    -0.138 NA
ATOM     39  N   UNL     1       4.616   3.530  16.840  0.00  0.00    -0.135 NA
ATOM     40  C   UNL     1       4.923   4.089  17.994  0.00  0.00    +0.134 A 
ATOM     41  H   UNL     1       7.562   4.668  16.219  0.00  0.00    +0.105 HD
BRANCH  36  42
ATOM     42  C   UNL     1       6.947   5.294  18.906  0.00  0.00    +0.014 C 
ATOM     43  H   UNL     1       6.710   6.359  18.856  0.00  0.00    +0.046 HD
ATOM     44  H   UNL     1       8.011   5.126  18.728  0.00  0.00    +0.046 HD
ATOM     45  H   UNL     1       6.680   4.901  19.891  0.00  0.00    +0.046 HD
ENDBRANCH  36  42
ENDBRANCH  33  40
ENDBRANCH  25  33
ENDBRANCH  15  25
ENDBRANCH   1  19
BRANCH   8  46
ATOM     46  C   UNL     1      -3.205  10.681  16.463  0.00  0.00    +0.418 C 
ATOM     47  F   UNL     1      -2.505  11.211  15.422  0.00  0.00    -0.166 F 
ATOM     48  F   UNL     1      -3.253   9.340  16.240  0.00  0.00    -0.166 F 
ATOM     49  F   UNL     1      -4.481  11.134  16.319  0.00  0.00    -0.166 F 
ENDBRANCH   8  46
BRANCH   6  50
ATOM     50  C   UNL     1      -3.454  13.244  20.852  0.00  0.00    +0.024 C 
ATOM     51  H   UNL     1      -4.517  12.989  20.750  0.00  0.00    +0.048 HD
ATOM     52  H   UNL     1      -3.351  14.283  20.513  0.00  0.00    +0.048 HD
BRANCH  50  53
ATOM     53  N   UNL     1      -3.038  13.123  22.254  0.00  0.00    -0.298 NA
ATOM     54  C   UNL     1      -2.217  14.250  22.721  0.00  0.00    -0.001 C 
ATOM     55  C   UNL     1      -2.950  15.204  23.664  0.00  0.00    -0.040 C 
ATOM     56  C   UNL     1      -3.480  14.474  24.897  0.00  0.00    -0.051 C 
ATOM     57  C   UNL     1      -3.874  13.030  24.591  0.00  0.00    -0.040 C 
ATOM     58  C   UNL     1      -4.198  12.839  23.112  0.00  0.00    -0.001 C 
ATOM     59  H   UNL     1      -1.354  13.830  23.253  0.00  0.00    +0.043 HD
ATOM     60  H   UNL     1      -1.793  14.829  21.890  0.00  0.00    +0.043 HD
ATOM     61  H   UNL     1      -2.281  16.013  23.978  0.00  0.00    +0.028 HD
ATOM     62  H   UNL     1      -3.784  15.676  23.130  0.00  0.00    +0.028 HD
ATOM     63  H   UNL     1      -4.339  15.025  25.296  0.00  0.00    +0.027 HD
ATOM     64  H   UNL     1      -2.721  14.474  25.688  0.00  0.00    +0.027 HD
ATOM     65  H   UNL     1      -4.735  12.742  25.207  0.00  0.00    +0.028 HD
ATOM     66  H   UNL     1      -3.054  12.358  24.876  0.00  0.00    +0.028 HD
ATOM     67  H   UNL     1      -5.048  13.484  22.850  0.00  0.00    +0.043 HD
ATOM     68  H   UNL     1      -4.517  11.802  22.949  0.00  0.00    +0.043 HD
ENDBRANCH  50  53
ENDBRANCH   6  50
TORSDOF 8
ENDMDL
MODEL 16
REMARK VINA RESULT:    -7.435      3.929     10.261
REMARK INTER + INTRA:         -11.858
REMARK INTER:                 -11.821
REMARK INTRA:                  -0.038
REMARK UNBOUND:                -1.163
REMARK  Name = 
REMARK  8 active torsions:
REMARK  status: ('A' for Active; 'I' for Inactive)
REMARK    1  A    between atoms: C_1  and  N_2
REMARK    2  A    between atoms: C_6  and  C_7
REMARK    3  A    between atoms: C_7  and  C_8
REMARK    4  A    between atoms: C_8  and  C_12
REMARK    5  A    between atoms: C_16  and  N_18
REMARK    6  A    between atoms: C_23  and  C_24
REMARK    7  A    between atoms: C_24  and  N_25
REMARK    8  A    between atoms: C_32  and  C_33
REMARK                            x       y       z     vdW  Elec       q    Type
REMARK                         _______ _______ _______ _____ _____    ______ ____
ROOT
ATOM      1  N   UNL     1       1.563   8.962  19.243  0.00  0.00    -0.263 N 
ATOM      2  C   UNL     1       1.174  10.235  18.653  0.00  0.00    +0.046 C 
ATOM      3  C   UNL     1       0.361  10.889  19.722  0.00  0.00    -0.006 A 
ATOM      4  C   UNL     1       0.286  10.050  20.826  0.00  0.00    +0.043 A 
ATOM      5  C   UNL     1      -0.418  10.383  21.967  0.00  0.00    -0.045 A 
ATOM      6  C   UNL     1      -1.076  11.623  22.002  0.00  0.00    -0.032 A 
ATOM      7  C   UNL     1      -0.999  12.481  20.879  0.00  0.00    -0.045 A 
ATOM      8  C   UNL     1      -0.277  12.125  19.722  0.00  0.00    +0.061 A 
ATOM      9  C   UNL     1       1.042   8.824  20.535  0.00  0.00    +0.251 C 
ATOM     10  O   UNL     1       1.121   7.913  21.339  0.00  0.00    -0.270 OA
ATOM     11  H   UNL     1       0.564  10.057  17.762  0.00  0.00    +0.052 HD
ATOM     12  H   UNL     1       2.068  10.828  18.425  0.00  0.00    +0.052 HD
ATOM     13  H   UNL     1      -0.456   9.699  22.812  0.00  0.00    +0.063 HD
ATOM     14  H   UNL     1      -1.514  13.442  20.910  0.00  0.00    +0.063 HD
ENDROOT
BRANCH   1  19
ATOM     15  C   UNL     1       3.191   5.673  18.326  0.00  0.00    -0.035 A 
ATOM     16  C   UNL     1       3.905   6.089  17.191  0.00  0.00    -0.058 A 
ATOM     17  C   UNL     1       3.856   7.405  16.735  0.00  0.00    -0.060 A 
ATOM     18  C   UNL     1       3.090   8.356  17.408  0.00  0.00    -0.040 A 
ATOM     19  C   UNL     1       2.349   8.007  18.538  0.00  0.00    +0.037 A 
ATOM     20  C   UNL     1       2.409   6.666  18.968  0.00  0.00    -0.036 A 
ATOM     21  H   UNL     1       4.500   5.366  16.631  0.00  0.00    +0.062 HD
ATOM     22  H   UNL     1       4.412   7.691  15.844  0.00  0.00    +0.062 HD
ATOM     23  H   UNL     1       3.085   9.365  17.009  0.00  0.00    +0.064 HD
ATOM     24  H   UNL     1       1.840   6.351  19.839  0.00  0.00    +0.064 HD
BRANCH  15  25
ATOM     25  C   UNL     1       3.260   4.163  18.867  0.00  0.00    +0.049 C 
ATOM     26  C   UNL     1       2.756   3.887  20.315  0.00  0.00    +0.060 C 
ATOM     27  O   UNL     1       2.059   2.692  19.863  0.00  0.00    -0.378 OA
ATOM     28  C   UNL     1       2.058   3.238  18.513  0.00  0.00    +0.060 C 
ATOM     29  H   UNL     1       2.049   4.616  20.727  0.00  0.00    +0.057 HD
ATOM     30  H   UNL     1       3.507   3.654  21.073  0.00  0.00    +0.057 HD
ATOM     31  H   UNL     1       2.239   2.466  17.759  0.00  0.00    +0.057 HD
ATOM     32  H   UNL     1       1.104   3.734  18.297  0.00  0.00    +0.057 HD
BRANCH  25  33
ATOM     33  C   UNL     1       4.598   3.486  18.501  0.00  0.00    +0.021 C 
ATOM     34  H   UNL     1       4.775   2.622  19.154  0.00  0.00    +0.035 HD
ATOM     35  H   UNL     1       4.541   3.069  17.487  0.00  0.00    +0.035 HD
BRANCH  33  40
ATOM     36  N   UNL     1       6.666   4.631  17.563  0.00  0.00    -0.320 N 
ATOM     37  C   UNL     1       7.588   5.502  18.058  0.00  0.00    +0.120 A 
ATOM     38  N   UNL     1       7.279   5.809  19.295  0.00  0.00    -0.138 NA
ATOM     39  N   UNL     1       6.132   5.128  19.618  0.00  0.00    -0.135 NA
ATOM     40  C   UNL     1       5.770   4.403  18.578  0.00  0.00    +0.134 A 
ATOM     41  H   UNL     1       8.439   5.873  17.502  0.00  0.00    +0.105 HD
BRANCH  36  42
ATOM     42  C   UNL     1       6.657   4.081  16.235  0.00  0.00    +0.014 C 
ATOM     43  H   UNL     1       7.579   4.385  15.733  0.00  0.00    +0.046 HD
ATOM     44  H   UNL     1       5.783   4.457  15.699  0.00  0.00    +0.046 HD
ATOM     45  H   UNL     1       6.606   2.990  16.289  0.00  0.00    +0.046 HD
ENDBRANCH  36  42
ENDBRANCH  33  40
ENDBRANCH  25  33
ENDBRANCH  15  25
ENDBRANCH   1  19
BRANCH   8  46
ATOM     46  C   UNL     1      -0.197  13.037  18.528  0.00  0.00    +0.418 C 
ATOM     47  F   UNL     1       1.082  13.200  18.088  0.00  0.00    -0.166 F 
ATOM     48  F   UNL     1      -0.911  12.602  17.454  0.00  0.00    -0.166 F 
ATOM     49  F   UNL     1      -0.655  14.290  18.804  0.00  0.00    -0.166 F 
ENDBRANCH   8  46
BRANCH   6  50
ATOM     50  C   UNL     1      -1.891  12.022  23.217  0.00  0.00    +0.024 C 
ATOM     51  H   UNL     1      -1.163  12.253  24.006  0.00  0.00    +0.048 HD
ATOM     52  H   UNL     1      -2.483  11.173  23.582  0.00  0.00    +0.048 HD
BRANCH  50  53
ATOM     53  N   UNL     1      -2.759  13.182  22.979  0.00  0.00    -0.298 NA
ATOM     54  C   UNL     1      -4.143  12.817  22.640  0.00  0.00    -0.001 C 
ATOM     55  C   UNL     1      -5.147  13.075  23.763  0.00  0.00    -0.040 C 
ATOM     56  C   UNL     1      -5.145  14.542  24.190  0.00  0.00    -0.051 C 
ATOM     57  C   UNL     1      -3.766  15.185  24.049  0.00  0.00    -0.040 C 
ATOM     58  C   UNL     1      -2.654  14.140  24.089  0.00  0.00    -0.001 C 
ATOM     59  H   UNL     1      -4.436  13.416  21.768  0.00  0.00    +0.043 HD
ATOM     60  H   UNL     1      -4.231  11.772  22.318  0.00  0.00    +0.043 HD
ATOM     61  H   UNL     1      -6.155  12.789  23.442  0.00  0.00    +0.028 HD
ATOM     62  H   UNL     1      -4.901  12.442  24.625  0.00  0.00    +0.028 HD
ATOM     63  H   UNL     1      -5.492  14.613  25.227  0.00  0.00    +0.027 HD
ATOM     64  H   UNL     1      -5.864  15.109  23.586  0.00  0.00    +0.027 HD
ATOM     65  H   UNL     1      -3.619  15.925  24.844  0.00  0.00    +0.028 HD
ATOM     66  H   UNL     1      -3.715  15.737  23.101  0.00  0.00    +0.028 HD
ATOM     67  H   UNL     1      -2.689  13.625  25.058  0.00  0.00    +0.043 HD
ATOM     68  H   UNL     1      -1.685  14.651  24.029  0.00  0.00    +0.043 HD
ENDBRANCH  50  53
ENDBRANCH   6  50
TORSDOF 8
ENDMDL
MODEL 17
REMARK VINA RESULT:    -7.430      2.766      3.969
REMARK INTER + INTRA:         -11.851
REMARK INTER:                 -10.734
REMARK INTRA:                  -1.118
REMARK UNBOUND:                -1.163
REMARK  Name = 
REMARK  8 active torsions:
REMARK  status: ('A' for Active; 'I' for Inactive)
REMARK    1  A    between atoms: C_1  and  N_2
REMARK    2  A    between atoms: C_6  and  C_7
REMARK    3  A    between atoms: C_7  and  C_8
REMARK    4  A    between atoms: C_8  and  C_12
REMARK    5  A    between atoms: C_16  and  N_18
REMARK    6  A    between atoms: C_23  and  C_24
REMARK    7  A    between atoms: C_24  and  N_25
REMARK    8  A    between atoms: C_32  and  C_33
REMARK                            x       y       z     vdW  Elec       q    Type
REMARK                         _______ _______ _______ _____ _____    ______ ____
ROOT
ATOM      1  N   UNL     1       1.313   8.741  18.938  0.00  0.00    -0.263 N 
ATOM      2  C   UNL     1       1.184   7.541  19.750  0.00  0.00    +0.046 C 
ATOM      3  C   UNL     1       2.210   6.616  19.183  0.00  0.00    -0.006 A 
ATOM      4  C   UNL     1       2.863   7.238  18.127  0.00  0.00    +0.043 A 
ATOM      5  C   UNL     1       3.856   6.616  17.395  0.00  0.00    -0.045 A 
ATOM      6  C   UNL     1       4.215   5.304  17.746  0.00  0.00    -0.032 A 
ATOM      7  C   UNL     1       3.553   4.668  18.823  0.00  0.00    -0.045 A 
ATOM      8  C   UNL     1       2.541   5.317  19.559  0.00  0.00    +0.061 A 
ATOM      9  C   UNL     1       2.302   8.586  17.958  0.00  0.00    +0.251 C 
ATOM     10  O   UNL     1       2.692   9.338  17.085  0.00  0.00    -0.270 OA
ATOM     11  H   UNL     1       0.180   7.120  19.630  0.00  0.00    +0.052 HD
ATOM     12  H   UNL     1       1.406   7.775  20.798  0.00  0.00    +0.052 HD
ATOM     13  H   UNL     1       4.343   7.134  16.573  0.00  0.00    +0.063 HD
ATOM     14  H   UNL     1       3.834   3.648  19.090  0.00  0.00    +0.063 HD
ENDROOT
BRANCH   1  19
ATOM     15  C   UNL     1       0.234  12.203  20.015  0.00  0.00    -0.035 A 
ATOM     16  C   UNL     1      -1.099  12.166  19.577  0.00  0.00    -0.058 A 
ATOM     17  C   UNL     1      -1.632  11.044  18.944  0.00  0.00    -0.060 A 
ATOM     18  C   UNL     1      -0.844   9.913  18.734  0.00  0.00    -0.040 A 
ATOM     19  C   UNL     1       0.492   9.887  19.139  0.00  0.00    +0.037 A 
ATOM     20  C   UNL     1       1.006  11.040  19.764  0.00  0.00    -0.036 A 
ATOM     21  H   UNL     1      -1.737  13.040  19.709  0.00  0.00    +0.062 HD
ATOM     22  H   UNL     1      -2.665  11.053  18.605  0.00  0.00    +0.062 HD
ATOM     23  H   UNL     1      -1.308   9.069  18.235  0.00  0.00    +0.064 HD
ATOM     24  H   UNL     1       2.043  11.065  20.086  0.00  0.00    +0.064 HD
BRANCH  15  25
ATOM     25  C   UNL     1       0.847  13.485  20.763  0.00  0.00    +0.049 C 
ATOM     26  C   UNL     1       0.273  14.886  20.391  0.00  0.00    +0.060 C 
ATOM     27  O   UNL     1       0.235  15.262  21.796  0.00  0.00    -0.378 OA
ATOM     28  C   UNL     1       0.229  13.849  22.146  0.00  0.00    +0.060 C 
ATOM     29  H   UNL     1      -0.736  14.895  19.960  0.00  0.00    +0.057 HD
ATOM     30  H   UNL     1       0.912  15.553  19.810  0.00  0.00    +0.057 HD
ATOM     31  H   UNL     1       0.845  13.642  23.026  0.00  0.00    +0.057 HD
ATOM     32  H   UNL     1      -0.794  13.502  22.333  0.00  0.00    +0.057 HD
BRANCH  25  33
ATOM     33  C   UNL     1       2.386  13.414  20.852  0.00  0.00    +0.021 C 
ATOM     34  H   UNL     1       2.731  13.858  21.794  0.00  0.00    +0.035 HD
ATOM     35  H   UNL     1       2.710  12.366  20.897  0.00  0.00    +0.035 HD
BRANCH  33  40
ATOM     36  N   UNL     1       4.244  14.804  19.811  0.00  0.00    -0.320 N 
ATOM     37  C   UNL     1       4.510  15.264  18.557  0.00  0.00    +0.120 A 
ATOM     38  N   UNL     1       3.582  14.846  17.732  0.00  0.00    -0.138 NA
ATOM     39  N   UNL     1       2.689  14.095  18.456  0.00  0.00    -0.135 NA
ATOM     40  C   UNL     1       3.079  14.083  19.715  0.00  0.00    +0.134 A 
ATOM     41  H   UNL     1       5.363  15.879  18.300  0.00  0.00    +0.105 HD
BRANCH  36  42
ATOM     42  C   UNL     1       5.046  15.038  20.980  0.00  0.00    +0.014 C 
ATOM     43  H   UNL     1       4.808  16.033  21.365  0.00  0.00    +0.046 HD
ATOM     44  H   UNL     1       6.102  14.972  20.709  0.00  0.00    +0.046 HD
ATOM     45  H   UNL     1       4.820  14.284  21.739  0.00  0.00    +0.046 HD
ENDBRANCH  36  42
ENDBRANCH  33  40
ENDBRANCH  25  33
ENDBRANCH  15  25
ENDBRANCH   1  19
BRANCH   8  46
ATOM     46  C   UNL     1       1.837   4.640  20.704  0.00  0.00    +0.418 C 
ATOM     47  F   UNL     1       2.265   5.095  21.914  0.00  0.00    -0.166 F 
ATOM     48  F   UNL     1       0.487   4.806  20.695  0.00  0.00    -0.166 F 
ATOM     49  F   UNL     1       2.052   3.295  20.718  0.00  0.00    -0.166 F 
ENDBRANCH   8  46
BRANCH   6  50
ATOM     50  C   UNL     1       5.275   4.563  16.953  0.00  0.00    +0.024 C 
ATOM     51  H   UNL     1       5.118   4.847  15.903  0.00  0.00    +0.048 HD
ATOM     52  H   UNL     1       5.112   3.479  17.008  0.00  0.00    +0.048 HD
BRANCH  50  53
ATOM     53  N   UNL     1       6.644   4.893  17.364  0.00  0.00    -0.298 NA
ATOM     54  C   UNL     1       7.259   5.957  16.555  0.00  0.00    -0.001 C 
ATOM     55  C   UNL     1       7.377   7.298  17.279  0.00  0.00    -0.040 C 
ATOM     56  C   UNL     1       8.187   7.169  18.568  0.00  0.00    -0.051 C 
ATOM     57  C   UNL     1       8.013   5.802  19.227  0.00  0.00    -0.040 C 
ATOM     58  C   UNL     1       6.701   5.142  18.813  0.00  0.00    -0.001 C 
ATOM     59  H   UNL     1       8.267   5.620  16.281  0.00  0.00    +0.043 HD
ATOM     60  H   UNL     1       6.734   6.112  15.604  0.00  0.00    +0.043 HD
ATOM     61  H   UNL     1       7.848   8.040  16.624  0.00  0.00    +0.028 HD
ATOM     62  H   UNL     1       6.374   7.677  17.512  0.00  0.00    +0.028 HD
ATOM     63  H   UNL     1       7.887   7.964  19.259  0.00  0.00    +0.027 HD
ATOM     64  H   UNL     1       9.252   7.329  18.359  0.00  0.00    +0.027 HD
ATOM     65  H   UNL     1       8.055   5.909  20.318  0.00  0.00    +0.028 HD
ATOM     66  H   UNL     1       8.854   5.152  18.950  0.00  0.00    +0.028 HD
ATOM     67  H   UNL     1       5.868   5.782  19.134  0.00  0.00    +0.043 HD
ATOM     68  H   UNL     1       6.600   4.188  19.343  0.00  0.00    +0.043 HD
ENDBRANCH  50  53
ENDBRANCH   6  50
TORSDOF 8
ENDMDL
MODEL 18
REMARK VINA RESULT:    -7.417      3.885      9.800
REMARK INTER + INTRA:         -11.833
REMARK INTER:                 -11.527
REMARK INTRA:                  -0.305
REMARK UNBOUND:                -1.163
REMARK  Name = 
REMARK  8 active torsions:
REMARK  status: ('A' for Active; 'I' for Inactive)
REMARK    1  A    between atoms: C_1  and  N_2
REMARK    2  A    between atoms: C_6  and  C_7
REMARK    3  A    between atoms: C_7  and  C_8
REMARK    4  A    between atoms: C_8  and  C_12
REMARK    5  A    between atoms: C_16  and  N_18
REMARK    6  A    between atoms: C_23  and  C_24
REMARK    7  A    between atoms: C_24  and  N_25
REMARK    8  A    between atoms: C_32  and  C_33
REMARK                            x       y       z     vdW  Elec       q    Type
REMARK                         _______ _______ _______ _____ _____    ______ ____
ROOT
ATOM      1  N   UNL     1       2.049   6.983  19.121  0.00  0.00    -0.263 N 
ATOM      2  C   UNL     1       2.108   8.324  18.559  0.00  0.00    +0.046 C 
ATOM      3  C   UNL     1       1.435   9.171  19.588  0.00  0.00    -0.006 A 
ATOM      4  C   UNL     1       1.018   8.373  20.645  0.00  0.00    +0.043 A 
ATOM      5  C   UNL     1       0.347   8.881  21.741  0.00  0.00    -0.045 A 
ATOM      6  C   UNL     1       0.087  10.261  21.778  0.00  0.00    -0.032 A 
ATOM      7  C   UNL     1       0.512  11.076  20.703  0.00  0.00    -0.045 A 
ATOM      8  C   UNL     1       1.195  10.542  19.592  0.00  0.00    +0.061 A 
ATOM      9  C   UNL     1       1.399   6.983  20.362  0.00  0.00    +0.251 C 
ATOM     10  O   UNL     1       1.133   6.076  21.128  0.00  0.00    -0.270 OA
ATOM     11  H   UNL     1       1.553   8.353  17.615  0.00  0.00    +0.052 HD
ATOM     12  H   UNL     1       3.154   8.626  18.427  0.00  0.00    +0.052 HD
ATOM     13  H   UNL     1       0.034   8.225  22.550  0.00  0.00    +0.063 HD
ATOM     14  H   UNL     1       0.305  12.147  20.736  0.00  0.00    +0.063 HD
ENDROOT
BRANCH   1  19
ATOM     15  C   UNL     1       4.279   4.881  16.904  0.00  0.00    -0.035 A 
ATOM     16  C   UNL     1       3.639   3.642  17.057  0.00  0.00    -0.058 A 
ATOM     17  C   UNL     1       2.512   3.493  17.863  0.00  0.00    -0.060 A 
ATOM     18  C   UNL     1       1.982   4.589  18.542  0.00  0.00    -0.040 A 
ATOM     19  C   UNL     1       2.575   5.849  18.440  0.00  0.00    +0.037 A 
ATOM     20  C   UNL     1       3.721   5.965  17.627  0.00  0.00    -0.036 A 
ATOM     21  H   UNL     1       4.038   2.760  16.554  0.00  0.00    +0.062 HD
ATOM     22  H   UNL     1       2.047   2.515  17.970  0.00  0.00    +0.062 HD
ATOM     23  H   UNL     1       1.105   4.418  19.158  0.00  0.00    +0.064 HD
ATOM     24  H   UNL     1       4.219   6.926  17.528  0.00  0.00    +0.064 HD
BRANCH  15  25
ATOM     25  C   UNL     1       5.566   5.061  15.960  0.00  0.00    +0.049 C 
ATOM     26  C   UNL     1       6.453   3.808  15.695  0.00  0.00    +0.060 C 
ATOM     27  O   UNL     1       6.543   4.150  14.283  0.00  0.00    -0.378 OA
ATOM     28  C   UNL     1       5.329   4.940  14.425  0.00  0.00    +0.060 C 
ATOM     29  H   UNL     1       5.966   2.835  15.827  0.00  0.00    +0.057 HD
ATOM     30  H   UNL     1       7.436   3.780  16.167  0.00  0.00    +0.057 HD
ATOM     31  H   UNL     1       5.374   5.868  13.848  0.00  0.00    +0.057 HD
ATOM     32  H   UNL     1       4.453   4.362  14.108  0.00  0.00    +0.057 HD
BRANCH  25  33
ATOM     33  C   UNL     1       6.343   6.353  16.293  0.00  0.00    +0.021 C 
ATOM     34  H   UNL     1       7.024   6.606  15.471  0.00  0.00    +0.035 HD
ATOM     35  H   UNL     1       5.649   7.201  16.359  0.00  0.00    +0.035 HD
BRANCH  33  40
ATOM     36  N   UNL     1       7.808   7.307  18.140  0.00  0.00    -0.320 N 
ATOM     37  C   UNL     1       8.396   6.798  19.257  0.00  0.00    +0.120 A 
ATOM     38  N   UNL     1       8.084   5.530  19.376  0.00  0.00    -0.138 NA
ATOM     39  N   UNL     1       7.274   5.200  18.318  0.00  0.00    -0.135 NA
ATOM     40  C   UNL     1       7.120   6.269  17.562  0.00  0.00    +0.134 A 
ATOM     41  H   UNL     1       9.023   7.367  19.932  0.00  0.00    +0.105 HD
BRANCH  36  42
ATOM     42  C   UNL     1       7.903   8.667  17.686  0.00  0.00    +0.014 C 
ATOM     43  H   UNL     1       8.869   9.067  18.002  0.00  0.00    +0.046 HD
ATOM     44  H   UNL     1       7.084   9.246  18.118  0.00  0.00    +0.046 HD
ATOM     45  H   UNL     1       7.829   8.697  16.595  0.00  0.00    +0.046 HD
ENDBRANCH  36  42
ENDBRANCH  33  40
ENDBRANCH  25  33
ENDBRANCH  15  25
ENDBRANCH   1  19
BRANCH   8  46
ATOM     46  C   UNL     1       1.646  11.409  18.448  0.00  0.00    +0.418 C 
ATOM     47  F   UNL     1       0.635  12.176  17.953  0.00  0.00    -0.166 F 
ATOM     48  F   UNL     1       2.648  12.271  18.772  0.00  0.00    -0.166 F 
ATOM     49  F   UNL     1       2.103  10.677  17.395  0.00  0.00    -0.166 F 
ENDBRANCH   8  46
BRANCH   6  50
ATOM     50  C   UNL     1      -0.677  10.863  22.942  0.00  0.00    +0.024 C 
ATOM     51  H   UNL     1       0.080  11.139  23.689  0.00  0.00    +0.048 HD
ATOM     52  H   UNL     1      -1.318  10.109  23.417  0.00  0.00    +0.048 HD
BRANCH  50  53
ATOM     53  N   UNL     1      -1.469  12.041  22.570  0.00  0.00    -0.298 NA
ATOM     54  C   UNL     1      -2.887  11.938  22.951  0.00  0.00    -0.001 C 
ATOM     55  C   UNL     1      -3.275  12.819  24.138  0.00  0.00    -0.040 C 
ATOM     56  C   UNL     1      -2.974  14.291  23.866  0.00  0.00    -0.051 C 
ATOM     57  C   UNL     1      -1.750  14.477  22.971  0.00  0.00    -0.040 C 
ATOM     58  C   UNL     1      -0.816  13.271  23.041  0.00  0.00    -0.001 C 
ATOM     59  H   UNL     1      -3.483  12.243  22.082  0.00  0.00    +0.043 HD
ATOM     60  H   UNL     1      -3.187  10.904  23.162  0.00  0.00    +0.043 HD
ATOM     61  H   UNL     1      -4.341  12.699  24.364  0.00  0.00    +0.028 HD
ATOM     62  H   UNL     1      -2.728  12.491  25.031  0.00  0.00    +0.028 HD
ATOM     63  H   UNL     1      -2.826  14.808  24.820  0.00  0.00    +0.027 HD
ATOM     64  H   UNL     1      -3.838  14.769  23.388  0.00  0.00    +0.027 HD
ATOM     65  H   UNL     1      -1.214  15.388  23.259  0.00  0.00    +0.028 HD
ATOM     66  H   UNL     1      -2.075  14.627  21.932  0.00  0.00    +0.028 HD
ATOM     67  H   UNL     1      -0.464  13.158  24.075  0.00  0.00    +0.043 HD
ATOM     68  H   UNL     1       0.065  13.468  22.419  0.00  0.00    +0.043 HD
ENDBRANCH  50  53
ENDBRANCH   6  50
TORSDOF 8
ENDMDL
MODEL 19
REMARK VINA RESULT:    -7.324      2.167      3.247
REMARK INTER + INTRA:         -11.698
REMARK INTER:                 -10.470
REMARK INTRA:                  -1.228
REMARK UNBOUND:                -1.163
REMARK  Name = 
REMARK  8 active torsions:
REMARK  status: ('A' for Active; 'I' for Inactive)
REMARK    1  A    between atoms: C_1  and  N_2
REMARK    2  A    between atoms: C_6  and  C_7
REMARK    3  A    between atoms: C_7  and  C_8
REMARK    4  A    between atoms: C_8  and  C_12
REMARK    5  A    between atoms: C_16  and  N_18
REMARK    6  A    between atoms: C_23  and  C_24
REMARK    7  A    between atoms: C_24  and  N_25
REMARK    8  A    between atoms: C_32  and  C_33
REMARK                            x       y       z     vdW  Elec       q    Type
REMARK                         _______ _______ _______ _____ _____    ______ ____
ROOT
ATOM      1  N   UNL     1       1.302   8.625  18.883  0.00  0.00    -0.263 N 
ATOM      2  C   UNL     1       1.207   7.444  19.730  0.00  0.00    +0.046 C 
ATOM      3  C   UNL     1       2.268   6.538  19.197  0.00  0.00    -0.006 A 
ATOM      4  C   UNL     1       2.907   7.151  18.127  0.00  0.00    +0.043 A 
ATOM      5  C   UNL     1       3.926   6.542  17.420  0.00  0.00    -0.045 A 
ATOM      6  C   UNL     1       4.326   5.254  17.812  0.00  0.00    -0.032 A 
ATOM      7  C   UNL     1       3.677   4.628  18.903  0.00  0.00    -0.045 A 
ATOM      8  C   UNL     1       2.639   5.263  19.612  0.00  0.00    +0.061 A 
ATOM      9  C   UNL     1       2.304   8.474  17.915  0.00  0.00    +0.251 C 
ATOM     10  O   UNL     1       2.674   9.213  17.023  0.00  0.00    -0.270 OA
ATOM     11  H   UNL     1       0.219   6.987  19.614  0.00  0.00    +0.052 HD
ATOM     12  H   UNL     1       1.413   7.717  20.771  0.00  0.00    +0.052 HD
ATOM     13  H   UNL     1       4.403   7.052  16.587  0.00  0.00    +0.063 HD
ATOM     14  H   UNL     1       3.990   3.625  19.201  0.00  0.00    +0.063 HD
ENDROOT
BRANCH   1  19
ATOM     15  C   UNL     1       0.096  12.072  19.867  0.00  0.00    -0.035 A 
ATOM     16  C   UNL     1      -1.228  11.983  19.406  0.00  0.00    -0.058 A 
ATOM     17  C   UNL     1      -1.713  10.833  18.788  0.00  0.00    -0.060 A 
ATOM     18  C   UNL     1      -0.886   9.723  18.616  0.00  0.00    -0.040 A 
ATOM     19  C   UNL     1       0.442   9.747  19.045  0.00  0.00    +0.037 A 
ATOM     20  C   UNL     1       0.908  10.929  19.655  0.00  0.00    -0.036 A 
ATOM     21  H   UNL     1      -1.895  12.840  19.509  0.00  0.00    +0.062 HD
ATOM     22  H   UNL     1      -2.740  10.802  18.430  0.00  0.00    +0.062 HD
ATOM     23  H   UNL     1      -1.314   8.854  18.127  0.00  0.00    +0.064 HD
ATOM     24  H   UNL     1       1.938  10.993  19.995  0.00  0.00    +0.064 HD
BRANCH  15  25
ATOM     25  C   UNL     1       0.653  13.388  20.598  0.00  0.00    +0.049 C 
ATOM     26  C   UNL     1       2.073  13.894  20.200  0.00  0.00    +0.060 C 
ATOM     27  O   UNL     1       1.591  15.267  20.162  0.00  0.00    -0.378 OA
ATOM     28  C   UNL     1       0.239  14.758  19.983  0.00  0.00    +0.060 C 
ATOM     29  H   UNL     1       2.436  13.583  19.214  0.00  0.00    +0.057 HD
ATOM     30  H   UNL     1       2.874  13.767  20.930  0.00  0.00    +0.057 HD
ATOM     31  H   UNL     1      -0.496  15.344  20.543  0.00  0.00    +0.057 HD
ATOM     32  H   UNL     1      -0.036  14.756  18.922  0.00  0.00    +0.057 HD
BRANCH  25  33
ATOM     33  C   UNL     1       0.372  13.363  22.116  0.00  0.00    +0.021 C 
ATOM     34  H   UNL     1       0.971  12.581  22.599  0.00  0.00    +0.035 HD
ATOM     35  H   UNL     1       0.707  14.302  22.574  0.00  0.00    +0.035 HD
BRANCH  33  40
ATOM     36  N   UNL     1      -1.617  11.964  22.861  0.00  0.00    -0.320 N 
ATOM     37  C   UNL     1      -2.948  12.199  23.027  0.00  0.00    +0.120 A 
ATOM     38  N   UNL     1      -3.206  13.455  22.752  0.00  0.00    -0.138 NA
ATOM     39  N   UNL     1      -2.023  14.056  22.400  0.00  0.00    -0.135 NA
ATOM     40  C   UNL     1      -1.065  13.152  22.450  0.00  0.00    +0.134 A 
ATOM     41  H   UNL     1      -3.667  11.453  23.339  0.00  0.00    +0.105 HD
BRANCH  36  42
ATOM     42  C   UNL     1      -0.951  10.710  23.086  0.00  0.00    +0.014 C 
ATOM     43  H   UNL     1      -0.918  10.528  24.163  0.00  0.00    +0.046 HD
ATOM     44  H   UNL     1       0.058  10.761  22.672  0.00  0.00    +0.046 HD
ATOM     45  H   UNL     1      -1.504   9.906  22.592  0.00  0.00    +0.046 HD
ENDBRANCH  36  42
ENDBRANCH  33  40
ENDBRANCH  25  33
ENDBRANCH  15  25
ENDBRANCH   1  19
BRANCH   8  46
ATOM     46  C   UNL     1       1.949   4.596  20.771  0.00  0.00    +0.418 C 
ATOM     47  F   UNL     1       2.140   5.268  21.941  0.00  0.00    -0.166 F 
ATOM     48  F   UNL     1       0.602   4.483  20.619  0.00  0.00    -0.166 F 
ATOM     49  F   UNL     1       2.412   3.334  20.990  0.00  0.00    -0.166 F 
ENDBRANCH   8  46
BRANCH   6  50
ATOM     50  C   UNL     1       5.416   4.526  17.048  0.00  0.00    +0.024 C 
ATOM     51  H   UNL     1       5.244   4.755  15.987  0.00  0.00    +0.048 HD
ATOM     52  H   UNL     1       5.302   3.439  17.152  0.00  0.00    +0.048 HD
BRANCH  50  53
ATOM     53  N   UNL     1       6.771   4.934  17.438  0.00  0.00    -0.298 NA
ATOM     54  C   UNL     1       7.316   6.022  16.611  0.00  0.00    -0.001 C 
ATOM     55  C   UNL     1       7.370   7.374  17.320  0.00  0.00    -0.040 C 
ATOM     56  C   UNL     1       8.201   7.303  18.600  0.00  0.00    -0.051 C 
ATOM     57  C   UNL     1       8.111   5.936  19.275  0.00  0.00    -0.040 C 
ATOM     58  C   UNL     1       6.831   5.201  18.883  0.00  0.00    -0.001 C 
ATOM     59  H   UNL     1       8.337   5.737  16.327  0.00  0.00    +0.043 HD
ATOM     60  H   UNL     1       6.772   6.138  15.665  0.00  0.00    +0.043 HD
ATOM     61  H   UNL     1       7.791   8.134  16.652  0.00  0.00    +0.028 HD
ATOM     62  H   UNL     1       6.350   7.700  17.562  0.00  0.00    +0.028 HD
ATOM     63  H   UNL     1       7.867   8.088  19.287  0.00  0.00    +0.027 HD
ATOM     64  H   UNL     1       9.253   7.519  18.375  0.00  0.00    +0.027 HD
ATOM     65  H   UNL     1       8.160   6.056  20.363  0.00  0.00    +0.028 HD
ATOM     66  H   UNL     1       8.982   5.329  18.992  0.00  0.00    +0.028 HD
ATOM     67  H   UNL     1       5.968   5.797  19.209  0.00  0.00    +0.043 HD
ATOM     68  H   UNL     1       6.789   4.248  19.424  0.00  0.00    +0.043 HD
ENDBRANCH  50  53
ENDBRANCH   6  50
TORSDOF 8
ENDMDL
MODEL 20
REMARK VINA RESULT:    -7.300      3.525      5.230
REMARK INTER + INTRA:         -11.665
REMARK INTER:                 -11.595
REMARK INTRA:                  -0.070
REMARK UNBOUND:                -1.163
REMARK  Name = 
REMARK  8 active torsions:
REMARK  status: ('A' for Active; 'I' for Inactive)
REMARK    1  A    between atoms: C_1  and  N_2
REMARK    2  A    between atoms: C_6  and  C_7
REMARK    3  A    between atoms: C_7  and  C_8
REMARK    4  A    between atoms: C_8  and  C_12
REMARK    5  A    between atoms: C_16  and  N_18
REMARK    6  A    between atoms: C_23  and  C_24
REMARK    7  A    between atoms: C_24  and  N_25
REMARK    8  A    between atoms: C_32  and  C_33
REMARK                            x       y       z     vdW  Elec       q    Type
REMARK                         _______ _______ _______ _____ _____    ______ ____
ROOT
ATOM      1  N   UNL     1       0.896   9.621  19.693  0.00  0.00    -0.263 N 
ATOM      2  C   UNL     1       1.874   9.097  18.750  0.00  0.00    +0.046 C 
ATOM      3  C   UNL     1       2.159   7.723  19.261  0.00  0.00    -0.006 A 
ATOM      4  C   UNL     1       1.410   7.490  20.407  0.00  0.00    +0.043 A 
ATOM      5  C   UNL     1       1.480   6.303  21.113  0.00  0.00    -0.045 A 
ATOM      6  C   UNL     1       2.340   5.300  20.639  0.00  0.00    -0.032 A 
ATOM      7  C   UNL     1       3.102   5.534  19.470  0.00  0.00    -0.045 A 
ATOM      8  C   UNL     1       3.021   6.750  18.763  0.00  0.00    +0.061 A 
ATOM      9  C   UNL     1       0.607   8.686  20.694  0.00  0.00    +0.251 C 
ATOM     10  O   UNL     1      -0.129   8.748  21.661  0.00  0.00    -0.270 OA
ATOM     11  H   UNL     1       2.779   9.712  18.778  0.00  0.00    +0.052 HD
ATOM     12  H   UNL     1       1.437   9.058  17.745  0.00  0.00    +0.052 HD
ATOM     13  H   UNL     1       0.880   6.158  22.008  0.00  0.00    +0.063 HD
ATOM     14  H   UNL     1       3.772   4.752  19.109  0.00  0.00    +0.063 HD
ENDROOT
BRANCH   1  19
ATOM     15  C   UNL     1      -1.400  12.584  20.197  0.00  0.00    -0.035 A 
ATOM     16  C   UNL     1      -0.750  13.512  19.368  0.00  0.00    -0.058 A 
ATOM     17  C   UNL     1       0.407  13.182  18.665  0.00  0.00    -0.060 A 
ATOM     18  C   UNL     1       0.952  11.903  18.766  0.00  0.00    -0.040 A 
ATOM     19  C   UNL     1       0.359  10.935  19.578  0.00  0.00    +0.037 A 
ATOM     20  C   UNL     1      -0.802  11.302  20.287  0.00  0.00    -0.036 A 
ATOM     21  H   UNL     1      -1.140  14.527  19.282  0.00  0.00    +0.062 HD
ATOM     22  H   UNL     1       0.893  13.929  18.041  0.00  0.00    +0.062 HD
ATOM     23  H   UNL     1       1.855  11.700  18.199  0.00  0.00    +0.064 HD
ATOM     24  H   UNL     1      -1.290  10.581  20.938  0.00  0.00    +0.064 HD
BRANCH  15  25
ATOM     25  C   UNL     1      -2.745  12.953  20.993  0.00  0.00    +0.049 C 
ATOM     26  C   UNL     1      -3.311  14.396  20.832  0.00  0.00    +0.060 C 
ATOM     27  O   UNL     1      -4.661  13.869  20.694  0.00  0.00    -0.378 OA
ATOM     28  C   UNL     1      -4.091  12.590  20.297  0.00  0.00    +0.060 C 
ATOM     29  H   UNL     1      -3.010  14.934  19.925  0.00  0.00    +0.057 HD
ATOM     30  H   UNL     1      -3.225  15.068  21.688  0.00  0.00    +0.057 HD
ATOM     31  H   UNL     1      -4.646  11.746  20.717  0.00  0.00    +0.057 HD
ATOM     32  H   UNL     1      -4.069  12.498  19.205  0.00  0.00    +0.057 HD
BRANCH  25  33
ATOM     33  C   UNL     1      -2.717  12.421  22.442  0.00  0.00    +0.021 C 
ATOM     34  H   UNL     1      -3.579  11.767  22.621  0.00  0.00    +0.035 HD
ATOM     35  H   UNL     1      -1.838  11.780  22.587  0.00  0.00    +0.035 HD
BRANCH  33  40
ATOM     36  N   UNL     1      -1.648  14.347  23.712  0.00  0.00    -0.320 N 
ATOM     37  C   UNL     1      -2.034  15.148  24.744  0.00  0.00    +0.120 A 
ATOM     38  N   UNL     1      -3.252  14.831  25.111  0.00  0.00    -0.138 NA
ATOM     39  N   UNL     1      -3.675  13.803  24.305  0.00  0.00    -0.135 NA
ATOM     40  C   UNL     1      -2.700  13.499  23.471  0.00  0.00    +0.134 A 
ATOM     41  H   UNL     1      -1.417  15.923  25.180  0.00  0.00    +0.105 HD
BRANCH  36  42
ATOM     42  C   UNL     1      -0.384  14.407  23.030  0.00  0.00    +0.014 C 
ATOM     43  H   UNL     1      -0.494  13.910  22.063  0.00  0.00    +0.046 HD
ATOM     44  H   UNL     1       0.374  13.909  23.637  0.00  0.00    +0.046 HD
ATOM     45  H   UNL     1      -0.097  15.451  22.878  0.00  0.00    +0.046 HD
ENDBRANCH  36  42
ENDBRANCH  33  40
ENDBRANCH  25  33
ENDBRANCH  15  25
ENDBRANCH   1  19
BRANCH   8  46
ATOM     46  C   UNL     1       3.832   6.999  17.521  0.00  0.00    +0.418 C 
ATOM     47  F   UNL     1       3.202   7.839  16.652  0.00  0.00    -0.166 F 
ATOM     48  F   UNL     1       5.052   7.553  17.761  0.00  0.00    -0.166 F 
ATOM     49  F   UNL     1       4.068   5.855  16.821  0.00  0.00    -0.166 F 
ENDBRANCH   8  46
BRANCH   6  50
ATOM     50  C   UNL     1       2.480   3.993  21.396  0.00  0.00    +0.024 C 
ATOM     51  H   UNL     1       1.663   3.981  22.130  0.00  0.00    +0.048 HD
ATOM     52  H   UNL     1       3.413   3.978  21.973  0.00  0.00    +0.048 HD
BRANCH  50  53
ATOM     53  N   UNL     1       2.397   2.809  20.532  0.00  0.00    -0.298 NA
ATOM     54  C   UNL     1       1.146   2.735  19.760  0.00  0.00    -0.001 C 
ATOM     55  C   UNL     1       1.315   3.046  18.274  0.00  0.00    -0.040 C 
ATOM     56  C   UNL     1       2.324   2.106  17.615  0.00  0.00    -0.051 C 
ATOM     57  C   UNL     1       3.431   1.680  18.576  0.00  0.00    -0.040 C 
ATOM     58  C   UNL     1       3.610   2.687  19.710  0.00  0.00    -0.001 C 
ATOM     59  H   UNL     1       0.760   1.712  19.859  0.00  0.00    +0.043 HD
ATOM     60  H   UNL     1       0.363   3.383  20.173  0.00  0.00    +0.043 HD
ATOM     61  H   UNL     1       0.350   2.966  17.760  0.00  0.00    +0.028 HD
ATOM     62  H   UNL     1       1.648   4.085  18.154  0.00  0.00    +0.028 HD
ATOM     63  H   UNL     1       2.754   2.602  16.738  0.00  0.00    +0.027 HD
ATOM     64  H   UNL     1       1.813   1.211  17.242  0.00  0.00    +0.027 HD
ATOM     65  H   UNL     1       4.372   1.557  18.027  0.00  0.00    +0.028 HD
ATOM     66  H   UNL     1       3.191   0.694  18.998  0.00  0.00    +0.028 HD
ATOM     67  H   UNL     1       3.892   3.657  19.278  0.00  0.00    +0.043 HD
ATOM     68  H   UNL     1       4.441   2.362  20.346  0.00  0.00    +0.043 HD
ENDBRANCH  50  53
ENDBRANCH   6  50
TORSDOF 8
ENDMDL
MODEL 21
REMARK VINA RESULT:    -7.299      2.130      3.278
REMARK INTER + INTRA:         -11.663
REMARK INTER:                 -10.520
REMARK INTRA:                  -1.142
REMARK UNBOUND:                -1.163
REMARK  Name = 
REMARK  8 active torsions:
REMARK  status: ('A' for Active; 'I' for Inactive)
REMARK    1  A    between atoms: C_1  and  N_2
REMARK    2  A    between atoms: C_6  and  C_7
REMARK    3  A    between atoms: C_7  and  C_8
REMARK    4  A    between atoms: C_8  and  C_12
REMARK    5  A    between atoms: C_16  and  N_18
REMARK    6  A    between atoms: C_23  and  C_24
REMARK    7  A    between atoms: C_24  and  N_25
REMARK    8  A    between atoms: C_32  and  C_33
REMARK                            x       y       z     vdW  Elec       q    Type
REMARK                         _______ _______ _______ _____ _____    ______ ____
ROOT
ATOM      1  N   UNL     1       1.307   8.254  18.875  0.00  0.00    -0.263 N 
ATOM      2  C   UNL     1       1.262   7.098  19.760  0.00  0.00    +0.046 C 
ATOM      3  C   UNL     1       2.394   6.246  19.290  0.00  0.00    -0.006 A 
ATOM      4  C   UNL     1       3.025   6.863  18.217  0.00  0.00    +0.043 A 
ATOM      5  C   UNL     1       4.102   6.298  17.561  0.00  0.00    -0.045 A 
ATOM      6  C   UNL     1       4.571   5.052  18.010  0.00  0.00    -0.032 A 
ATOM      7  C   UNL     1       3.932   4.422  19.103  0.00  0.00    -0.045 A 
ATOM      8  C   UNL     1       2.834   5.012  19.761  0.00  0.00    +0.061 A 
ATOM      9  C   UNL     1       2.345   8.136  17.942  0.00  0.00    +0.251 C 
ATOM     10  O   UNL     1       2.694   8.867  17.035  0.00  0.00    -0.270 OA
ATOM     11  H   UNL     1       0.309   6.574  19.634  0.00  0.00    +0.052 HD
ATOM     12  H   UNL     1       1.418   7.418  20.797  0.00  0.00    +0.052 HD
ATOM     13  H   UNL     1       4.569   6.810  16.724  0.00  0.00    +0.063 HD
ATOM     14  H   UNL     1       4.298   3.453  19.445  0.00  0.00    +0.063 HD
ENDROOT
BRANCH   1  19
ATOM     15  C   UNL     1      -0.739  11.068  20.359  0.00  0.00    -0.035 A 
ATOM     16  C   UNL     1      -1.479  11.427  19.221  0.00  0.00    -0.058 A 
ATOM     17  C   UNL     1      -1.314  10.772  18.003  0.00  0.00    -0.060 A 
ATOM     18  C   UNL     1      -0.401   9.725  17.883  0.00  0.00    -0.040 A 
ATOM     19  C   UNL     1       0.372   9.322  18.974  0.00  0.00    +0.037 A 
ATOM     20  C   UNL     1       0.192  10.012  20.190  0.00  0.00    -0.036 A 
ATOM     21  H   UNL     1      -2.188  12.254  19.276  0.00  0.00    +0.062 HD
ATOM     22  H   UNL     1      -1.894  11.084  17.137  0.00  0.00    +0.062 HD
ATOM     23  H   UNL     1      -0.311   9.251  16.911  0.00  0.00    +0.064 HD
ATOM     24  H   UNL     1       0.780   9.736  21.061  0.00  0.00    +0.064 HD
BRANCH  15  25
ATOM     25  C   UNL     1      -0.941  11.806  21.771  0.00  0.00    +0.049 C 
ATOM     26  C   UNL     1      -2.400  12.062  22.255  0.00  0.00    +0.060 C 
ATOM     27  O   UNL     1      -2.047  11.632  23.600  0.00  0.00    -0.378 OA
ATOM     28  C   UNL     1      -0.917  10.903  23.041  0.00  0.00    +0.060 C 
ATOM     29  H   UNL     1      -3.171  11.409  21.829  0.00  0.00    +0.057 HD
ATOM     30  H   UNL     1      -2.761  13.092  22.241  0.00  0.00    +0.057 HD
ATOM     31  H   UNL     1      -0.030  10.975  23.676  0.00  0.00    +0.057 HD
ATOM     32  H   UNL     1      -1.172   9.847  22.897  0.00  0.00    +0.057 HD
BRANCH  25  33
ATOM     33  C   UNL     1       0.020  13.003  21.933  0.00  0.00    +0.021 C 
ATOM     34  H   UNL     1      -0.287  13.621  22.785  0.00  0.00    +0.035 HD
ATOM     35  H   UNL     1       1.025  12.644  22.189  0.00  0.00    +0.035 HD
BRANCH  33  40
ATOM     36  N   UNL     1       1.229  14.004  19.932  0.00  0.00    -0.320 N 
ATOM     37  C   UNL     1       0.896  14.892  18.956  0.00  0.00    +0.120 A 
ATOM     38  N   UNL     1      -0.351  15.266  19.112  0.00  0.00    -0.138 NA
ATOM     39  N   UNL     1      -0.847  14.610  20.212  0.00  0.00    -0.135 NA
ATOM     40  C   UNL     1       0.112  13.860  20.717  0.00  0.00    +0.134 A 
ATOM     41  H   UNL     1       1.570  15.227  18.177  0.00  0.00    +0.105 HD
BRANCH  36  42
ATOM     42  C   UNL     1       2.504  13.358  20.081  0.00  0.00    +0.014 C 
ATOM     43  H   UNL     1       2.408  12.582  20.844  0.00  0.00    +0.046 HD
ATOM     44  H   UNL     1       3.249  14.100  20.376  0.00  0.00    +0.046 HD
ATOM     45  H   UNL     1       2.801  12.907  19.130  0.00  0.00    +0.046 HD
ENDBRANCH  36  42
ENDBRANCH  33  40
ENDBRANCH  25  33
ENDBRANCH  15  25
ENDBRANCH   1  19
BRANCH   8  46
ATOM     46  C   UNL     1       2.153   4.341  20.923  0.00  0.00    +0.418 C 
ATOM     47  F   UNL     1       2.633   3.086  21.147  0.00  0.00    -0.166 F 
ATOM     48  F   UNL     1       2.284   5.011  22.100  0.00  0.00    -0.166 F 
ATOM     49  F   UNL     1       0.814   4.193  20.720  0.00  0.00    -0.166 F 
ENDBRANCH   8  46
BRANCH   6  50
ATOM     50  C   UNL     1       5.728   4.372  17.302  0.00  0.00    +0.024 C 
ATOM     51  H   UNL     1       5.517   4.459  16.228  0.00  0.00    +0.048 HD
ATOM     52  H   UNL     1       5.742   3.298  17.529  0.00  0.00    +0.048 HD
BRANCH  50  53
ATOM     53  N   UNL     1       7.031   4.973  17.611  0.00  0.00    -0.298 NA
ATOM     54  C   UNL     1       7.429   6.025  16.663  0.00  0.00    -0.001 C 
ATOM     55  C   UNL     1       7.335   7.441  17.232  0.00  0.00    -0.040 C 
ATOM     56  C   UNL     1       8.191   7.598  18.487  0.00  0.00    -0.051 C 
ATOM     57  C   UNL     1       8.275   6.306  19.298  0.00  0.00    -0.040 C 
ATOM     58  C   UNL     1       7.085   5.391  19.019  0.00  0.00    -0.001 C 
ATOM     59  H   UNL     1       8.472   5.834  16.379  0.00  0.00    +0.043 HD
ATOM     60  H   UNL     1       6.859   5.980  15.727  0.00  0.00    +0.043 HD
ATOM     61  H   UNL     1       7.651   8.172  16.479  0.00  0.00    +0.028 HD
ATOM     62  H   UNL     1       6.288   7.669  17.470  0.00  0.00    +0.028 HD
ATOM     63  H   UNL     1       7.778   8.405  19.102  0.00  0.00    +0.027 HD
ATOM     64  H   UNL     1       9.205   7.911  18.212  0.00  0.00    +0.027 HD
ATOM     65  H   UNL     1       8.328   6.542  20.367  0.00  0.00    +0.028 HD
ATOM     66  H   UNL     1       9.206   5.780  19.052  0.00  0.00    +0.028 HD
ATOM     67  H   UNL     1       6.163   5.913  19.309  0.00  0.00    +0.043 HD
ATOM     68  H   UNL     1       7.166   4.501  19.653  0.00  0.00    +0.043 HD
ENDBRANCH  50  53
ENDBRANCH   6  50
TORSDOF 8
ENDMDL
MODEL 22
REMARK VINA RESULT:    -7.285      3.255      4.882
REMARK INTER + INTRA:         -11.643
REMARK INTER:                 -10.724
REMARK INTRA:                  -0.919
REMARK UNBOUND:                -1.163
REMARK  Name = 
REMARK  8 active torsions:
REMARK  status: ('A' for Active; 'I' for Inactive)
REMARK    1  A    between atoms: C_1  and  N_2
REMARK    2  A    between atoms: C_6  and  C_7
REMARK    3  A    between atoms: C_7  and  C_8
REMARK    4  A    between atoms: C_8  and  C_12
REMARK    5  A    between atoms: C_16  and  N_18
REMARK    6  A    between atoms: C_23  and  C_24
REMARK    7  A    between atoms: C_24  and  N_25
REMARK    8  A    between atoms: C_32  and  C_33
REMARK                            x       y       z     vdW  Elec       q    Type
REMARK                         _______ _______ _______ _____ _____    ______ ____
ROOT
ATOM      1  N   UNL     1       1.704   8.778  18.643  0.00  0.00    -0.263 N 
ATOM      2  C   UNL     1       2.737   8.483  17.661  0.00  0.00    +0.046 C 
ATOM      3  C   UNL     1       3.328   7.199  18.142  0.00  0.00    -0.006 A 
ATOM      4  C   UNL     1       2.689   6.802  19.309  0.00  0.00    +0.043 A 
ATOM      5  C   UNL     1       3.037   5.653  19.994  0.00  0.00    -0.045 A 
ATOM      6  C   UNL     1       4.076   4.862  19.477  0.00  0.00    -0.032 A 
ATOM      7  C   UNL     1       4.727   5.264  18.287  0.00  0.00    -0.045 A 
ATOM      8  C   UNL     1       4.361   6.438  17.601  0.00  0.00    +0.061 A 
ATOM      9  C   UNL     1       1.659   7.795  19.640  0.00  0.00    +0.251 C 
ATOM     10  O   UNL     1       0.961   7.690  20.632  0.00  0.00    -0.270 OA
ATOM     11  H   UNL     1       3.490   9.278  17.668  0.00  0.00    +0.052 HD
ATOM     12  H   UNL     1       2.283   8.358  16.671  0.00  0.00    +0.052 HD
ATOM     13  H   UNL     1       2.515   5.375  20.906  0.00  0.00    +0.063 HD
ATOM     14  H   UNL     1       5.536   4.646  17.892  0.00  0.00    +0.063 HD
ENDROOT
BRANCH   1  19
ATOM     15  C   UNL     1       0.544  12.344  19.139  0.00  0.00    -0.035 A 
ATOM     16  C   UNL     1      -0.683  12.274  18.459  0.00  0.00    -0.058 A 
ATOM     17  C   UNL     1      -1.119  11.098  17.853  0.00  0.00    -0.060 A 
ATOM     18  C   UNL     1      -0.339   9.943  17.913  0.00  0.00    -0.040 A 
ATOM     19  C   UNL     1       0.894   9.946  18.567  0.00  0.00    +0.037 A 
ATOM     20  C   UNL     1       1.314  11.154  19.159  0.00  0.00    -0.036 A 
ATOM     21  H   UNL     1      -1.308  13.164  18.378  0.00  0.00    +0.062 HD
ATOM     22  H   UNL     1      -2.069  11.081  17.323  0.00  0.00    +0.062 HD
ATOM     23  H   UNL     1      -0.725   9.056  17.422  0.00  0.00    +0.064 HD
ATOM     24  H   UNL     1       2.272  11.202  19.670  0.00  0.00    +0.064 HD
BRANCH  15  25
ATOM     25  C   UNL     1       1.041  13.692  19.856  0.00  0.00    +0.049 C 
ATOM     26  C   UNL     1       2.441  13.676  20.540  0.00  0.00    +0.060 C 
ATOM     27  O   UNL     1       2.749  14.983  19.978  0.00  0.00    -0.378 OA
ATOM     28  C   UNL     1       1.745  14.747  18.951  0.00  0.00    +0.060 C 
ATOM     29  H   UNL     1       3.148  12.921  20.176  0.00  0.00    +0.057 HD
ATOM     30  H   UNL     1       2.467  13.689  21.631  0.00  0.00    +0.057 HD
ATOM     31  H   UNL     1       1.175  15.651  18.720  0.00  0.00    +0.057 HD
ATOM     32  H   UNL     1       2.212  14.372  18.033  0.00  0.00    +0.057 HD
BRANCH  25  33
ATOM     33  C   UNL     1      -0.083  14.346  20.686  0.00  0.00    +0.021 C 
ATOM     34  H   UNL     1       0.327  15.146  21.315  0.00  0.00    +0.035 HD
ATOM     35  H   UNL     1      -0.798  14.847  20.019  0.00  0.00    +0.035 HD
BRANCH  33  40
ATOM     36  N   UNL     1      -2.191  13.255  21.599  0.00  0.00    -0.320 N 
ATOM     37  C   UNL     1      -2.449  12.292  22.526  0.00  0.00    +0.120 A 
ATOM     38  N   UNL     1      -1.319  11.838  23.010  0.00  0.00    -0.138 NA
ATOM     39  N   UNL     1      -0.298  12.514  22.387  0.00  0.00    -0.135 NA
ATOM     40  C   UNL     1      -0.825  13.382  21.547  0.00  0.00    +0.134 A 
ATOM     41  H   UNL     1      -3.441  11.965  22.808  0.00  0.00    +0.105 HD
BRANCH  36  42
ATOM     42  C   UNL     1      -3.177  13.974  20.838  0.00  0.00    +0.014 C 
ATOM     43  H   UNL     1      -3.377  14.921  21.344  0.00  0.00    +0.046 HD
ATOM     44  H   UNL     1      -4.085  13.372  20.771  0.00  0.00    +0.046 HD
ATOM     45  H   UNL     1      -2.795  14.166  19.831  0.00  0.00    +0.046 HD
ENDBRANCH  36  42
ENDBRANCH  33  40
ENDBRANCH  25  33
ENDBRANCH  15  25
ENDBRANCH   1  19
BRANCH   8  46
ATOM     46  C   UNL     1       5.055   6.866  16.336  0.00  0.00    +0.418 C 
ATOM     47  F   UNL     1       5.636   5.818  15.687  0.00  0.00    -0.166 F 
ATOM     48  F   UNL     1       4.232   7.460  15.430  0.00  0.00    -0.166 F 
ATOM     49  F   UNL     1       6.060   7.754  16.574  0.00  0.00    -0.166 F 
ENDBRANCH   8  46
BRANCH   6  50
ATOM     50  C   UNL     1       4.520   3.610  20.210  0.00  0.00    +0.024 C 
ATOM     51  H   UNL     1       4.658   3.907  21.258  0.00  0.00    +0.048 HD
ATOM     52  H   UNL     1       5.503   3.280  19.850  0.00  0.00    +0.048 HD
BRANCH  50  53
ATOM     53  N   UNL     1       3.551   2.511  20.121  0.00  0.00    -0.298 NA
ATOM     54  C   UNL     1       2.499   2.575  21.147  0.00  0.00    -0.001 C 
ATOM     55  C   UNL     1       1.133   3.001  20.611  0.00  0.00    -0.040 C 
ATOM     56  C   UNL     1       0.648   2.064  19.506  0.00  0.00    -0.051 C 
ATOM     57  C   UNL     1       1.801   1.493  18.682  0.00  0.00    -0.040 C 
ATOM     58  C   UNL     1       3.035   2.389  18.750  0.00  0.00    -0.001 C 
ATOM     59  H   UNL     1       2.403   1.572  21.582  0.00  0.00    +0.043 HD
ATOM     60  H   UNL     1       2.772   3.230  21.984  0.00  0.00    +0.043 HD
ATOM     61  H   UNL     1       0.397   3.021  21.423  0.00  0.00    +0.028 HD
ATOM     62  H   UNL     1       1.197   4.025  20.221  0.00  0.00    +0.028 HD
ATOM     63  H   UNL     1      -0.049   2.606  18.857  0.00  0.00    +0.027 HD
ATOM     64  H   UNL     1       0.079   1.234  19.941  0.00  0.00    +0.027 HD
ATOM     65  H   UNL     1       1.484   1.364  17.640  0.00  0.00    +0.028 HD
ATOM     66  H   UNL     1       2.055   0.491  19.053  0.00  0.00    +0.028 HD
ATOM     67  H   UNL     1       2.779   3.374  18.336  0.00  0.00    +0.043 HD
ATOM     68  H   UNL     1       3.818   1.963  18.111  0.00  0.00    +0.043 HD
ENDBRANCH  50  53
ENDBRANCH   6  50
TORSDOF 8
ENDMDL
MODEL 23
REMARK VINA RESULT:    -7.220      2.773      9.406
REMARK INTER + INTRA:         -11.548
REMARK INTER:                 -10.492
REMARK INTRA:                  -1.056
REMARK UNBOUND:                -1.163
REMARK  Name = 
REMARK  8 active torsions:
REMARK  status: ('A' for Active; 'I' for Inactive)
REMARK    1  A    between atoms: C_1  and  N_2
REMARK    2  A    between atoms: C_6  and  C_7
REMARK    3  A    between atoms: C_7  and  C_8
REMARK    4  A    between atoms: C_8  and  C_12
REMARK    5  A    between atoms: C_16  and  N_18
REMARK    6  A    between atoms: C_23  and  C_24
REMARK    7  A    between atoms: C_24  and  N_25
REMARK    8  A    between atoms: C_32  and  C_33
REMARK                            x       y       z     vdW  Elec       q    Type
REMARK                         _______ _______ _______ _____ _____    ______ ____
ROOT
ATOM      1  N   UNL     1       1.990   7.821  19.048  0.00  0.00    -0.263 N 
ATOM      2  C   UNL     1       1.441   7.939  20.391  0.00  0.00    +0.046 C 
ATOM      3  C   UNL     1       1.025   9.371  20.480  0.00  0.00    -0.006 A 
ATOM      4  C   UNL     1       1.324  10.016  19.287  0.00  0.00    +0.043 A 
ATOM      5  C   UNL     1       1.067  11.359  19.082  0.00  0.00    -0.045 A 
ATOM      6  C   UNL     1       0.475  12.087  20.127  0.00  0.00    -0.032 A 
ATOM      7  C   UNL     1       0.167  11.431  21.342  0.00  0.00    -0.045 A 
ATOM      8  C   UNL     1       0.437  10.062  21.536  0.00  0.00    +0.061 A 
ATOM      9  C   UNL     1       1.939   9.046  18.371  0.00  0.00    +0.251 C 
ATOM     10  O   UNL     1       2.311   9.363  17.257  0.00  0.00    -0.270 OA
ATOM     11  H   UNL     1       2.219   7.720  21.129  0.00  0.00    +0.052 HD
ATOM     12  H   UNL     1       0.576   7.274  20.499  0.00  0.00    +0.052 HD
ATOM     13  H   UNL     1       1.317  11.830  18.135  0.00  0.00    +0.063 HD
ATOM     14  H   UNL     1      -0.290  12.003  22.151  0.00  0.00    +0.063 HD
ENDROOT
BRANCH   1  19
ATOM     15  C   UNL     1       4.416   5.366  17.500  0.00  0.00    -0.035 A 
ATOM     16  C   UNL     1       3.617   4.212  17.539  0.00  0.00    -0.058 A 
ATOM     17  C   UNL     1       2.324   4.232  18.058  0.00  0.00    -0.060 A 
ATOM     18  C   UNL     1       1.782   5.417  18.553  0.00  0.00    -0.040 A 
ATOM     19  C   UNL     1       2.525   6.599  18.551  0.00  0.00    +0.037 A 
ATOM     20  C   UNL     1       3.834   6.545  18.032  0.00  0.00    -0.036 A 
ATOM     21  H   UNL     1       4.018   3.265  17.176  0.00  0.00    +0.062 HD
ATOM     22  H   UNL     1       1.737   3.317  18.085  0.00  0.00    +0.062 HD
ATOM     23  H   UNL     1       0.772   5.377  18.948  0.00  0.00    +0.064 HD
ATOM     24  H   UNL     1       4.450   7.440  18.020  0.00  0.00    +0.064 HD
BRANCH  15  25
ATOM     25  C   UNL     1       5.899   5.352  16.885  0.00  0.00    +0.049 C 
ATOM     26  C   UNL     1       7.077   5.763  17.818  0.00  0.00    +0.060 C 
ATOM     27  O   UNL     1       7.879   4.654  17.322  0.00  0.00    -0.378 OA
ATOM     28  C   UNL     1       6.652   3.989  16.908  0.00  0.00    +0.060 C 
ATOM     29  H   UNL     1       6.897   5.660  18.895  0.00  0.00    +0.057 HD
ATOM     30  H   UNL     1       7.556   6.725  17.629  0.00  0.00    +0.057 HD
ATOM     31  H   UNL     1       6.768   3.477  15.948  0.00  0.00    +0.057 HD
ATOM     32  H   UNL     1       6.332   3.264  17.665  0.00  0.00    +0.057 HD
BRANCH  25  33
ATOM     33  C   UNL     1       5.937   5.974  15.473  0.00  0.00    +0.021 C 
ATOM     34  H   UNL     1       5.066   6.623  15.321  0.00  0.00    +0.035 HD
ATOM     35  H   UNL     1       6.806   6.640  15.381  0.00  0.00    +0.035 HD
BRANCH  33  40
ATOM     36  N   UNL     1       7.000   4.845  13.457  0.00  0.00    -0.320 N 
ATOM     37  C   UNL     1       6.641   3.827  12.627  0.00  0.00    +0.120 A 
ATOM     38  N   UNL     1       5.490   3.334  13.014  0.00  0.00    -0.138 NA
ATOM     39  N   UNL     1       5.086   4.040  14.121  0.00  0.00    -0.135 NA
ATOM     40  C   UNL     1       5.990   4.964  14.379  0.00  0.00    +0.134 A 
ATOM     41  H   UNL     1       7.228   3.490  11.783  0.00  0.00    +0.105 HD
BRANCH  36  42
ATOM     42  C   UNL     1       8.208   5.619  13.364  0.00  0.00    +0.014 C 
ATOM     43  H   UNL     1       8.934   5.051  12.778  0.00  0.00    +0.046 HD
ATOM     44  H   UNL     1       8.588   5.810  14.369  0.00  0.00    +0.046 HD
ATOM     45  H   UNL     1       7.997   6.571  12.870  0.00  0.00    +0.046 HD
ENDBRANCH  36  42
ENDBRANCH  33  40
ENDBRANCH  25  33
ENDBRANCH  15  25
ENDBRANCH   1  19
BRANCH   8  46
ATOM     46  C   UNL     1       0.111   9.366  22.829  0.00  0.00    +0.418 C 
ATOM     47  F   UNL     1       1.230   8.968  23.497  0.00  0.00    -0.166 F 
ATOM     48  F   UNL     1      -0.597  10.131  23.703  0.00  0.00    -0.166 F 
ATOM     49  F   UNL     1      -0.624   8.236  22.635  0.00  0.00    -0.166 F 
ENDBRANCH   8  46
BRANCH   6  50
ATOM     50  C   UNL     1       0.203  13.571  19.965  0.00  0.00    +0.024 C 
ATOM     51  H   UNL     1       0.819  13.899  19.117  0.00  0.00    +0.048 HD
ATOM     52  H   UNL     1       0.563  14.127  20.841  0.00  0.00    +0.048 HD
BRANCH  50  53
ATOM     53  N   UNL     1      -1.209  13.879  19.712  0.00  0.00    -0.298 NA
ATOM     54  C   UNL     1      -1.869  12.909  18.824  0.00  0.00    -0.001 C 
ATOM     55  C   UNL     1      -2.841  11.972  19.540  0.00  0.00    -0.040 C 
ATOM     56  C   UNL     1      -3.934  12.751  20.271  0.00  0.00    -0.051 C 
ATOM     57  C   UNL     1      -3.437  14.099  20.789  0.00  0.00    -0.040 C 
ATOM     58  C   UNL     1      -1.922  14.104  20.978  0.00  0.00    -0.001 C 
ATOM     59  H   UNL     1      -2.429  13.481  18.072  0.00  0.00    +0.043 HD
ATOM     60  H   UNL     1      -1.149  12.307  18.256  0.00  0.00    +0.043 HD
ATOM     61  H   UNL     1      -3.301  11.284  18.822  0.00  0.00    +0.028 HD
ATOM     62  H   UNL     1      -2.288  11.353  20.258  0.00  0.00    +0.028 HD
ATOM     63  H   UNL     1      -4.311  12.142  21.101  0.00  0.00    +0.027 HD
ATOM     64  H   UNL     1      -4.786  12.920  19.602  0.00  0.00    +0.027 HD
ATOM     65  H   UNL     1      -3.937  14.341  21.734  0.00  0.00    +0.028 HD
ATOM     66  H   UNL     1      -3.719  14.890  20.081  0.00  0.00    +0.028 HD
ATOM     67  H   UNL     1      -1.657  13.339  21.720  0.00  0.00    +0.043 HD
ATOM     68  H   UNL     1      -1.619  15.073  21.391  0.00  0.00    +0.043 HD
ENDBRANCH  50  53
ENDBRANCH   6  50
TORSDOF 8
ENDMDL
MODEL 24
REMARK VINA RESULT:    -7.199      3.747      5.580
REMARK INTER + INTRA:         -11.519
REMARK INTER:                 -10.710
REMARK INTRA:                  -0.809
REMARK UNBOUND:                -1.163
REMARK  Name = 
REMARK  8 active torsions:
REMARK  status: ('A' for Active; 'I' for Inactive)
REMARK    1  A    between atoms: C_1  and  N_2
REMARK    2  A    between atoms: C_6  and  C_7
REMARK    3  A    between atoms: C_7  and  C_8
REMARK    4  A    between atoms: C_8  and  C_12
REMARK    5  A    between atoms: C_16  and  N_18
REMARK    6  A    between atoms: C_23  and  C_24
REMARK    7  A    between atoms: C_24  and  N_25
REMARK    8  A    between atoms: C_32  and  C_33
REMARK                            x       y       z     vdW  Elec       q    Type
REMARK                         _______ _______ _______ _____ _____    ______ ____
ROOT
ATOM      1  N   UNL     1       1.741   8.794  18.805  0.00  0.00    -0.263 N 
ATOM      2  C   UNL     1       2.723   8.504  17.770  0.00  0.00    +0.046 C 
ATOM      3  C   UNL     1       3.312   7.199  18.194  0.00  0.00    -0.006 A 
ATOM      4  C   UNL     1       2.719   6.786  19.380  0.00  0.00    +0.043 A 
ATOM      5  C   UNL     1       3.076   5.616  20.022  0.00  0.00    -0.045 A 
ATOM      6  C   UNL     1       4.076   4.819  19.441  0.00  0.00    -0.032 A 
ATOM      7  C   UNL     1       4.680   5.237  18.232  0.00  0.00    -0.045 A 
ATOM      8  C   UNL     1       4.305   6.434  17.589  0.00  0.00    +0.061 A 
ATOM      9  C   UNL     1       1.722   7.789  19.780  0.00  0.00    +0.251 C 
ATOM     10  O   UNL     1       1.069   7.672  20.799  0.00  0.00    -0.270 OA
ATOM     11  H   UNL     1       3.490   9.286  17.760  0.00  0.00    +0.052 HD
ATOM     12  H   UNL     1       2.223   8.410  16.799  0.00  0.00    +0.052 HD
ATOM     13  H   UNL     1       2.591   5.325  20.951  0.00  0.00    +0.063 HD
ATOM     14  H   UNL     1       5.459   4.615  17.786  0.00  0.00    +0.063 HD
ENDROOT
BRANCH   1  19
ATOM     15  C   UNL     1       0.595  12.318  19.562  0.00  0.00    -0.035 A 
ATOM     16  C   UNL     1      -0.592  12.331  18.812  0.00  0.00    -0.058 A 
ATOM     17  C   UNL     1      -1.006  11.223  18.076  0.00  0.00    -0.060 A 
ATOM     18  C   UNL     1      -0.244  10.055  18.072  0.00  0.00    -0.040 A 
ATOM     19  C   UNL     1       0.950   9.977  18.791  0.00  0.00    +0.037 A 
ATOM     20  C   UNL     1       1.349  11.118  19.515  0.00  0.00    -0.036 A 
ATOM     21  H   UNL     1      -1.201  13.235  18.779  0.00  0.00    +0.062 HD
ATOM     22  H   UNL     1      -1.924  11.270  17.495  0.00  0.00    +0.062 HD
ATOM     23  H   UNL     1      -0.612   9.222  17.481  0.00  0.00    +0.064 HD
ATOM     24  H   UNL     1       2.277  11.103  20.081  0.00  0.00    +0.064 HD
BRANCH  15  25
ATOM     25  C   UNL     1       1.066  13.586  20.428  0.00  0.00    +0.049 C 
ATOM     26  C   UNL     1       0.440  14.971  20.087  0.00  0.00    +0.060 C 
ATOM     27  O   UNL     1       0.266  15.260  21.503  0.00  0.00    -0.378 OA
ATOM     28  C   UNL     1       0.317  13.831  21.773  0.00  0.00    +0.060 C 
ATOM     29  H   UNL     1      -0.529  14.949  19.574  0.00  0.00    +0.057 HD
ATOM     30  H   UNL     1       1.082  15.707  19.600  0.00  0.00    +0.057 HD
ATOM     31  H   UNL     1       0.870  13.607  22.689  0.00  0.00    +0.057 HD
ATOM     32  H   UNL     1      -0.695  13.416  21.853  0.00  0.00    +0.057 HD
BRANCH  25  33
ATOM     33  C   UNL     1       2.594  13.595  20.644  0.00  0.00    +0.021 C 
ATOM     34  H   UNL     1       2.842  14.127  21.570  0.00  0.00    +0.035 HD
ATOM     35  H   UNL     1       2.956  12.570  20.798  0.00  0.00    +0.035 HD
BRANCH  33  40
ATOM     36  N   UNL     1       4.569  14.828  19.620  0.00  0.00    -0.320 N 
ATOM     37  C   UNL     1       4.883  15.267  18.370  0.00  0.00    +0.120 A 
ATOM     38  N   UNL     1       3.930  14.927  17.536  0.00  0.00    -0.138 NA
ATOM     39  N   UNL     1       2.972  14.252  18.252  0.00  0.00    -0.135 NA
ATOM     40  C   UNL     1       3.350  14.206  19.514  0.00  0.00    +0.134 A 
ATOM     41  H   UNL     1       5.785  15.810  18.121  0.00  0.00    +0.105 HD
BRANCH  36  42
ATOM     42  C   UNL     1       5.377  14.995  20.797  0.00  0.00    +0.014 C 
ATOM     43  H   UNL     1       6.411  15.159  20.482  0.00  0.00    +0.046 HD
ATOM     44  H   UNL     1       5.299  14.098  21.414  0.00  0.00    +0.046 HD
ATOM     45  H   UNL     1       5.023  15.858  21.368  0.00  0.00    +0.046 HD
ENDBRANCH  36  42
ENDBRANCH  33  40
ENDBRANCH  25  33
ENDBRANCH  15  25
ENDBRANCH   1  19
BRANCH   8  46
ATOM     46  C   UNL     1       4.949   6.878  16.304  0.00  0.00    +0.418 C 
ATOM     47  F   UNL     1       5.442   5.831  15.585  0.00  0.00    -0.166 F 
ATOM     48  F   UNL     1       4.108   7.546  15.469  0.00  0.00    -0.166 F 
ATOM     49  F   UNL     1       6.007   7.709  16.519  0.00  0.00    -0.166 F 
ENDBRANCH   8  46
BRANCH   6  50
ATOM     50  C   UNL     1       4.529   3.542  20.124  0.00  0.00    +0.024 C 
ATOM     51  H   UNL     1       4.724   3.814  21.170  0.00  0.00    +0.048 HD
ATOM     52  H   UNL     1       5.487   3.202  19.710  0.00  0.00    +0.048 HD
BRANCH  50  53
ATOM     53  N   UNL     1       3.536   2.464  20.059  0.00  0.00    -0.298 NA
ATOM     54  C   UNL     1       2.518   2.542  21.118  0.00  0.00    -0.001 C 
ATOM     55  C   UNL     1       1.145   3.000  20.628  0.00  0.00    -0.040 C 
ATOM     56  C   UNL     1       0.606   2.081  19.533  0.00  0.00    -0.051 C 
ATOM     57  C   UNL     1       1.720   1.493  18.669  0.00  0.00    -0.040 C 
ATOM     58  C   UNL     1       2.974   2.363  18.703  0.00  0.00    -0.001 C 
ATOM     59  H   UNL     1       2.415   1.538  21.549  0.00  0.00    +0.043 HD
ATOM     60  H   UNL     1       2.831   3.186  21.950  0.00  0.00    +0.043 HD
ATOM     61  H   UNL     1       0.436   3.029  21.463  0.00  0.00    +0.028 HD
ATOM     62  H   UNL     1       1.218   4.025  20.243  0.00  0.00    +0.028 HD
ATOM     63  H   UNL     1      -0.099   2.643  18.910  0.00  0.00    +0.027 HD
ATOM     64  H   UNL     1       0.034   1.260  19.981  0.00  0.00    +0.027 HD
ATOM     65  H   UNL     1       1.368   1.378  17.637  0.00  0.00    +0.028 HD
ATOM     66  H   UNL     1       1.965   0.484  19.025  0.00  0.00    +0.028 HD
ATOM     67  H   UNL     1       2.726   3.356  18.305  0.00  0.00    +0.043 HD
ATOM     68  H   UNL     1       3.728   1.926  18.037  0.00  0.00    +0.043 HD
ENDBRANCH  50  53
ENDBRANCH   6  50
TORSDOF 8
ENDMDL
MODEL 25
REMARK VINA RESULT:    -7.131      3.838      9.694
REMARK INTER + INTRA:         -11.421
REMARK INTER:                 -10.272
REMARK INTRA:                  -1.150
REMARK UNBOUND:                -1.163
REMARK  Name = 
REMARK  8 active torsions:
REMARK  status: ('A' for Active; 'I' for Inactive)
REMARK    1  A    between atoms: C_1  and  N_2
REMARK    2  A    between atoms: C_6  and  C_7
REMARK    3  A    between atoms: C_7  and  C_8
REMARK    4  A    between atoms: C_8  and  C_12
REMARK    5  A    between atoms: C_16  and  N_18
REMARK    6  A    between atoms: C_23  and  C_24
REMARK    7  A    between atoms: C_24  and  N_25
REMARK    8  A    between atoms: C_32  and  C_33
REMARK                            x       y       z     vdW  Elec       q    Type
REMARK                         _______ _______ _______ _____ _____    ______ ____
ROOT
ATOM      1  N   UNL     1       0.893   9.118  18.223  0.00  0.00    -0.263 N 
ATOM      2  C   UNL     1      -0.243   9.260  17.324  0.00  0.00    +0.046 C 
ATOM      3  C   UNL     1      -1.123  10.248  18.017  0.00  0.00    -0.006 A 
ATOM      4  C   UNL     1      -0.539  10.627  19.218  0.00  0.00    +0.043 A 
ATOM      5  C   UNL     1      -1.135  11.522  20.086  0.00  0.00    -0.045 A 
ATOM      6  C   UNL     1      -2.379  12.066  19.726  0.00  0.00    -0.032 A 
ATOM      7  C   UNL     1      -2.975  11.682  18.502  0.00  0.00    -0.045 A 
ATOM      8  C   UNL     1      -2.354  10.768  17.628  0.00  0.00    +0.061 A 
ATOM      9  C   UNL     1       0.739   9.917  19.363  0.00  0.00    +0.251 C 
ATOM     10  O   UNL     1       1.446  10.061  20.343  0.00  0.00    -0.270 OA
ATOM     11  H   UNL     1      -0.754   8.298  17.220  0.00  0.00    +0.052 HD
ATOM     12  H   UNL     1       0.096   9.650  16.357  0.00  0.00    +0.052 HD
ATOM     13  H   UNL     1      -0.648  11.794  21.019  0.00  0.00    +0.063 HD
ATOM     14  H   UNL     1      -3.943  12.106  18.229  0.00  0.00    +0.063 HD
ENDROOT
BRANCH   1  19
ATOM     15  C   UNL     1       2.859   5.918  17.770  0.00  0.00    -0.035 A 
ATOM     16  C   UNL     1       4.101   6.470  17.416  0.00  0.00    -0.058 A 
ATOM     17  C   UNL     1       4.292   7.847  17.324  0.00  0.00    -0.060 A 
ATOM     18  C   UNL     1       3.241   8.723  17.591  0.00  0.00    -0.040 A 
ATOM     19  C   UNL     1       1.979   8.241  17.942  0.00  0.00    +0.037 A 
ATOM     20  C   UNL     1       1.813   6.843  18.014  0.00  0.00    -0.036 A 
ATOM     21  H   UNL     1       4.938   5.811  17.182  0.00  0.00    +0.062 HD
ATOM     22  H   UNL     1       5.263   8.241  17.034  0.00  0.00    +0.062 HD
ATOM     23  H   UNL     1       3.444   9.786  17.503  0.00  0.00    +0.064 HD
ATOM     24  H   UNL     1       0.844   6.426  18.275  0.00  0.00    +0.064 HD
BRANCH  15  25
ATOM     25  C   UNL     1       2.640   4.333  17.898  0.00  0.00    +0.049 C 
ATOM     26  C   UNL     1       2.937   3.455  16.644  0.00  0.00    +0.060 C 
ATOM     27  O   UNL     1       3.622   2.474  17.473  0.00  0.00    -0.378 OA
ATOM     28  C   UNL     1       3.827   3.507  18.478  0.00  0.00    +0.060 C 
ATOM     29  H   UNL     1       3.622   3.886  15.905  0.00  0.00    +0.057 HD
ATOM     30  H   UNL     1       2.083   3.019  16.123  0.00  0.00    +0.057 HD
ATOM     31  H   UNL     1       3.704   3.120  19.493  0.00  0.00    +0.057 HD
ATOM     32  H   UNL     1       4.826   3.949  18.380  0.00  0.00    +0.057 HD
BRANCH  25  33
ATOM     33  C   UNL     1       1.327   3.994  18.635  0.00  0.00    +0.021 C 
ATOM     34  H   UNL     1       0.688   4.884  18.698  0.00  0.00    +0.035 HD
ATOM     35  H   UNL     1       0.746   3.268  18.050  0.00  0.00    +0.035 HD
BRANCH  33  40
ATOM     36  N   UNL     1       1.867   4.190  21.112  0.00  0.00    -0.320 N 
ATOM     37  C   UNL     1       1.996   3.305  22.139  0.00  0.00    +0.120 A 
ATOM     38  N   UNL     1       1.749   2.093  21.705  0.00  0.00    -0.138 NA
ATOM     39  N   UNL     1       1.451   2.183  20.367  0.00  0.00    -0.135 NA
ATOM     40  C   UNL     1       1.538   3.448  20.005  0.00  0.00    +0.134 A 
ATOM     41  H   UNL     1       2.261   3.578  23.152  0.00  0.00    +0.105 HD
BRANCH  36  42
ATOM     42  C   UNL     1       2.041   5.614  21.204  0.00  0.00    +0.014 C 
ATOM     43  H   UNL     1       1.094   6.092  20.944  0.00  0.00    +0.046 HD
ATOM     44  H   UNL     1       2.831   5.922  20.515  0.00  0.00    +0.046 HD
ATOM     45  H   UNL     1       2.325   5.885  22.224  0.00  0.00    +0.046 HD
ENDBRANCH  36  42
ENDBRANCH  33  40
ENDBRANCH  25  33
ENDBRANCH  15  25
ENDBRANCH   1  19
BRANCH   8  46
ATOM     46  C   UNL     1      -2.990  10.359  16.327  0.00  0.00    +0.418 C 
ATOM     47  F   UNL     1      -3.102   9.006  16.211  0.00  0.00    -0.166 F 
ATOM     48  F   UNL     1      -4.242  10.858  16.145  0.00  0.00    -0.166 F 
ATOM     49  F   UNL     1      -2.262  10.763  15.249  0.00  0.00    -0.166 F 
ENDBRANCH   8  46
BRANCH   6  50
ATOM     50  C   UNL     1      -3.092  13.026  20.659  0.00  0.00    +0.024 C 
ATOM     51  H   UNL     1      -4.157  12.967  20.395  0.00  0.00    +0.048 HD
ATOM     52  H   UNL     1      -2.782  14.060  20.461  0.00  0.00    +0.048 HD
BRANCH  50  53
ATOM     53  N   UNL     1      -2.907  12.702  22.079  0.00  0.00    -0.298 NA
ATOM     54  C   UNL     1      -1.949  13.586  22.761  0.00  0.00    -0.001 C 
ATOM     55  C   UNL     1      -2.600  14.591  23.711  0.00  0.00    -0.040 C 
ATOM     56  C   UNL     1      -3.430  13.889  24.785  0.00  0.00    -0.051 C 
ATOM     57  C   UNL     1      -4.058  12.593  24.277  0.00  0.00    -0.040 C 
ATOM     58  C   UNL     1      -4.207  12.600  22.757  0.00  0.00    -0.001 C 
ATOM     59  H   UNL     1      -1.269  12.949  23.341  0.00  0.00    +0.043 HD
ATOM     60  H   UNL     1      -1.308  14.129  22.055  0.00  0.00    +0.043 HD
ATOM     61  H   UNL     1      -1.832  15.210  24.188  0.00  0.00    +0.028 HD
ATOM     62  H   UNL     1      -3.241  15.272  23.138  0.00  0.00    +0.028 HD
ATOM     63  H   UNL     1      -4.208  14.574  25.139  0.00  0.00    +0.027 HD
ATOM     64  H   UNL     1      -2.802  13.662  25.655  0.00  0.00    +0.027 HD
ATOM     65  H   UNL     1      -5.035  12.443  24.752  0.00  0.00    +0.028 HD
ATOM     66  H   UNL     1      -3.435  11.741  24.580  0.00  0.00    +0.028 HD
ATOM     67  H   UNL     1      -4.866  13.430  22.471  0.00  0.00    +0.043 HD
ATOM     68  H   UNL     1      -4.700  11.672  22.445  0.00  0.00    +0.043 HD
ENDBRANCH  50  53
ENDBRANCH   6  50
TORSDOF 8
ENDMDL
MODEL 26
REMARK VINA RESULT:    -7.046      3.009      4.350
REMARK INTER + INTRA:         -11.299
REMARK INTER:                 -11.302
REMARK INTRA:                   0.003
REMARK UNBOUND:                -1.163
REMARK  Name = 
REMARK  8 active torsions:
REMARK  status: ('A' for Active; 'I' for Inactive)
REMARK    1  A    between atoms: C_1  and  N_2
REMARK    2  A    between atoms: C_6  and  C_7
REMARK    3  A    between atoms: C_7  and  C_8
REMARK    4  A    between atoms: C_8  and  C_12
REMARK    5  A    between atoms: C_16  and  N_18
REMARK    6  A    between atoms: C_23  and  C_24
REMARK    7  A    between atoms: C_24  and  N_25
REMARK    8  A    between atoms: C_32  and  C_33
REMARK                            x       y       z     vdW  Elec       q    Type
REMARK                         _______ _______ _______ _____ _____    ______ ____
ROOT
ATOM      1  N   UNL     1       1.396   9.489  19.715  0.00  0.00    -0.263 N 
ATOM      2  C   UNL     1       2.303   8.865  18.762  0.00  0.00    +0.046 C 
ATOM      3  C   UNL     1       2.418   7.458  19.250  0.00  0.00    -0.006 A 
ATOM      4  C   UNL     1       1.646   7.299  20.394  0.00  0.00    +0.043 A 
ATOM      5  C   UNL     1       1.569   6.102  21.079  0.00  0.00    -0.045 A 
ATOM      6  C   UNL     1       2.301   5.009  20.588  0.00  0.00    -0.032 A 
ATOM      7  C   UNL     1       3.087   5.168  19.422  0.00  0.00    -0.045 A 
ATOM      8  C   UNL     1       3.155   6.396  18.735  0.00  0.00    +0.061 A 
ATOM      9  C   UNL     1       0.994   8.579  20.701  0.00  0.00    +0.251 C 
ATOM     10  O   UNL     1       0.269   8.714  21.669  0.00  0.00    -0.270 OA
ATOM     11  H   UNL     1       3.277   9.364  18.799  0.00  0.00    +0.052 HD
ATOM     12  H   UNL     1       1.866   8.896  17.758  0.00  0.00    +0.052 HD
ATOM     13  H   UNL     1       0.955   6.015  21.972  0.00  0.00    +0.063 HD
ATOM     14  H   UNL     1       3.657   4.316  19.047  0.00  0.00    +0.063 HD
ENDROOT
BRANCH   1  19
ATOM     15  C   UNL     1      -0.220  12.803  20.561  0.00  0.00    -0.035 A 
ATOM     16  C   UNL     1       0.244  13.559  19.473  0.00  0.00    -0.058 A 
ATOM     17  C   UNL     1       1.064  13.006  18.492  0.00  0.00    -0.060 A 
ATOM     18  C   UNL     1       1.444  11.666  18.564  0.00  0.00    -0.040 A 
ATOM     19  C   UNL     1       1.023  10.860  19.623  0.00  0.00    +0.037 A 
ATOM     20  C   UNL     1       0.205  11.451  20.607  0.00  0.00    -0.036 A 
ATOM     21  H   UNL     1      -0.019  14.615  19.397  0.00  0.00    +0.062 HD
ATOM     22  H   UNL     1       1.418  13.624  17.669  0.00  0.00    +0.062 HD
ATOM     23  H   UNL     1       2.085  11.287  17.775  0.00  0.00    +0.064 HD
ATOM     24  H   UNL     1      -0.137  10.861  21.453  0.00  0.00    +0.064 HD
BRANCH  15  25
ATOM     25  C   UNL     1      -1.182  13.430  21.683  0.00  0.00    +0.049 C 
ATOM     26  C   UNL     1      -1.497  12.562  22.938  0.00  0.00    +0.060 C 
ATOM     27  O   UNL     1      -1.303  13.716  23.805  0.00  0.00    -0.378 OA
ATOM     28  C   UNL     1      -0.506  14.335  22.756  0.00  0.00    +0.060 C 
ATOM     29  H   UNL     1      -0.771  11.774  23.174  0.00  0.00    +0.057 HD
ATOM     30  H   UNL     1      -2.505  12.154  23.027  0.00  0.00    +0.057 HD
ATOM     31  H   UNL     1      -0.695  15.410  22.679  0.00  0.00    +0.057 HD
ATOM     32  H   UNL     1       0.563  14.170  22.935  0.00  0.00    +0.057 HD
BRANCH  25  33
ATOM     33  C   UNL     1      -2.402  14.141  21.058  0.00  0.00    +0.021 C 
ATOM     34  H   UNL     1      -2.911  14.751  21.814  0.00  0.00    +0.035 HD
ATOM     35  H   UNL     1      -2.068  14.854  20.293  0.00  0.00    +0.035 HD
BRANCH  33  40
ATOM     36  N   UNL     1      -4.578  12.825  21.009  0.00  0.00    -0.320 N 
ATOM     37  C   UNL     1      -5.147  11.944  20.141  0.00  0.00    +0.120 A 
ATOM     38  N   UNL     1      -4.368  11.795  19.097  0.00  0.00    -0.138 NA
ATOM     39  N   UNL     1      -3.267  12.594  19.282  0.00  0.00    -0.135 NA
ATOM     40  C   UNL     1      -3.385  13.204  20.444  0.00  0.00    +0.134 A 
ATOM     41  H   UNL     1      -6.097  11.452  20.303  0.00  0.00    +0.105 HD
BRANCH  36  42
ATOM     42  C   UNL     1      -5.142  13.257  22.258  0.00  0.00    +0.014 C 
ATOM     43  H   UNL     1      -6.228  13.149  22.199  0.00  0.00    +0.046 HD
ATOM     44  H   UNL     1      -4.867  14.299  22.434  0.00  0.00    +0.046 HD
ATOM     45  H   UNL     1      -4.752  12.638  23.072  0.00  0.00    +0.046 HD
ENDBRANCH  36  42
ENDBRANCH  33  40
ENDBRANCH  25  33
ENDBRANCH  15  25
ENDBRANCH   1  19
BRANCH   8  46
ATOM     46  C   UNL     1       3.992   6.565  17.496  0.00  0.00    +0.418 C 
ATOM     47  F   UNL     1       4.121   5.402  16.798  0.00  0.00    -0.166 F 
ATOM     48  F   UNL     1       3.498   7.479  16.618  0.00  0.00    -0.166 F 
ATOM     49  F   UNL     1       5.262   6.965  17.783  0.00  0.00    -0.166 F 
ENDBRANCH   8  46
BRANCH   6  50
ATOM     50  C   UNL     1       2.279   3.681  21.323  0.00  0.00    +0.024 C 
ATOM     51  H   UNL     1       1.337   3.665  21.887  0.00  0.00    +0.048 HD
ATOM     52  H   UNL     1       3.085   3.638  22.067  0.00  0.00    +0.048 HD
BRANCH  50  53
ATOM     53  N   UNL     1       2.351   2.521  20.428  0.00  0.00    -0.298 NA
ATOM     54  C   UNL     1       1.206   2.418  19.509  0.00  0.00    -0.001 C 
ATOM     55  C   UNL     1       1.538   2.778  18.061  0.00  0.00    -0.040 C 
ATOM     56  C   UNL     1       2.658   1.897  17.508  0.00  0.00    -0.051 C 
ATOM     57  C   UNL     1       3.659   1.488  18.586  0.00  0.00    -0.040 C 
ATOM     58  C   UNL     1       3.658   2.469  19.755  0.00  0.00    -0.001 C 
ATOM     59  H   UNL     1       0.855   1.379  19.537  0.00  0.00    +0.043 HD
ATOM     60  H   UNL     1       0.353   3.024  19.838  0.00  0.00    +0.043 HD
ATOM     61  H   UNL     1       0.647   2.674  17.433  0.00  0.00    +0.028 HD
ATOM     62  H   UNL     1       1.839   3.832  18.007  0.00  0.00    +0.028 HD
ATOM     63  H   UNL     1       3.168   2.434  16.701  0.00  0.00    +0.027 HD
ATOM     64  H   UNL     1       2.234   0.993  17.055  0.00  0.00    +0.027 HD
ATOM     65  H   UNL     1       4.664   1.418  18.152  0.00  0.00    +0.028 HD
ATOM     66  H   UNL     1       3.412   0.482  18.952  0.00  0.00    +0.028 HD
ATOM     67  H   UNL     1       3.948   3.461  19.384  0.00  0.00    +0.043 HD
ATOM     68  H   UNL     1       4.420   2.159  20.480  0.00  0.00    +0.043 HD
ENDBRANCH  50  53
ENDBRANCH   6  50
TORSDOF 8
ENDMDL
MODEL 27
REMARK VINA RESULT:    -6.956      3.484      9.522
REMARK INTER + INTRA:         -11.170
REMARK INTER:                 -10.654
REMARK INTRA:                  -0.515
REMARK UNBOUND:                -1.163
REMARK  Name = 
REMARK  8 active torsions:
REMARK  status: ('A' for Active; 'I' for Inactive)
REMARK    1  A    between atoms: C_1  and  N_2
REMARK    2  A    between atoms: C_6  and  C_7
REMARK    3  A    between atoms: C_7  and  C_8
REMARK    4  A    between atoms: C_8  and  C_12
REMARK    5  A    between atoms: C_16  and  N_18
REMARK    6  A    between atoms: C_23  and  C_24
REMARK    7  A    between atoms: C_24  and  N_25
REMARK    8  A    between atoms: C_32  and  C_33
REMARK                            x       y       z     vdW  Elec       q    Type
REMARK                         _______ _______ _______ _____ _____    ______ ____
ROOT
ATOM      1  N   UNL     1       0.946   8.638  20.015  0.00  0.00    -0.263 N 
ATOM      2  C   UNL     1      -0.018   8.909  18.958  0.00  0.00    +0.046 C 
ATOM      3  C   UNL     1      -0.587  10.239  19.328  0.00  0.00    -0.006 A 
ATOM      4  C   UNL     1      -0.002  10.683  20.507  0.00  0.00    +0.043 A 
ATOM      5  C   UNL     1      -0.345  11.881  21.104  0.00  0.00    -0.045 A 
ATOM      6  C   UNL     1      -1.322  12.675  20.482  0.00  0.00    -0.032 A 
ATOM      7  C   UNL     1      -1.919  12.226  19.280  0.00  0.00    -0.045 A 
ATOM      8  C   UNL     1      -1.558  11.001  18.685  0.00  0.00    +0.061 A 
ATOM      9  C   UNL     1       0.971   9.677  20.955  0.00  0.00    +0.251 C 
ATOM     10  O   UNL     1       1.614   9.817  21.978  0.00  0.00    -0.270 OA
ATOM     11  H   UNL     1      -0.799   8.142  18.965  0.00  0.00    +0.052 HD
ATOM     12  H   UNL     1       0.496   8.960  17.991  0.00  0.00    +0.052 HD
ATOM     13  H   UNL     1       0.135  12.195  22.028  0.00  0.00    +0.063 HD
ATOM     14  H   UNL     1      -2.680  12.846  18.803  0.00  0.00    +0.063 HD
ENDROOT
BRANCH   1  19
ATOM     15  C   UNL     1       3.521   6.031  19.078  0.00  0.00    -0.035 A 
ATOM     16  C   UNL     1       3.247   5.081  20.075  0.00  0.00    -0.058 A 
ATOM     17  C   UNL     1       2.252   5.286  21.029  0.00  0.00    -0.060 A 
ATOM     18  C   UNL     1       1.489   6.453  21.013  0.00  0.00    -0.040 A 
ATOM     19  C   UNL     1       1.715   7.441  20.053  0.00  0.00    +0.037 A 
ATOM     20  C   UNL     1       2.736   7.211  19.109  0.00  0.00    -0.036 A 
ATOM     21  H   UNL     1       3.837   4.166  20.128  0.00  0.00    +0.062 HD
ATOM     22  H   UNL     1       2.074   4.535  21.796  0.00  0.00    +0.062 HD
ATOM     23  H   UNL     1       0.729   6.563  21.779  0.00  0.00    +0.064 HD
ATOM     24  H   UNL     1       2.951   7.959  18.351  0.00  0.00    +0.064 HD
BRANCH  15  25
ATOM     25  C   UNL     1       4.652   5.790  17.965  0.00  0.00    +0.049 C 
ATOM     26  C   UNL     1       5.441   7.032  17.451  0.00  0.00    +0.060 C 
ATOM     27  O   UNL     1       6.691   6.289  17.525  0.00  0.00    -0.378 OA
ATOM     28  C   UNL     1       6.066   5.386  18.480  0.00  0.00    +0.060 C 
ATOM     29  H   UNL     1       5.466   7.899  18.121  0.00  0.00    +0.057 HD
ATOM     30  H   UNL     1       5.234   7.374  16.436  0.00  0.00    +0.057 HD
ATOM     31  H   UNL     1       6.367   4.347  18.320  0.00  0.00    +0.057 HD
ATOM     32  H   UNL     1       6.315   5.678  19.508  0.00  0.00    +0.057 HD
BRANCH  25  33
ATOM     33  C   UNL     1       4.174   4.820  16.864  0.00  0.00    +0.021 C 
ATOM     34  H   UNL     1       3.420   5.306  16.233  0.00  0.00    +0.035 HD
ATOM     35  H   UNL     1       5.005   4.586  16.185  0.00  0.00    +0.035 HD
BRANCH  33  40
ATOM     36  N   UNL     1       2.283   3.289  17.605  0.00  0.00    -0.320 N 
ATOM     37  C   UNL     1       2.214   2.033  18.125  0.00  0.00    +0.120 A 
ATOM     38  N   UNL     1       3.422   1.532  18.220  0.00  0.00    -0.138 NA
ATOM     39  N   UNL     1       4.302   2.477  17.753  0.00  0.00    -0.135 NA
ATOM     40  C   UNL     1       3.616   3.545  17.396  0.00  0.00    +0.134 A 
ATOM     41  H   UNL     1       1.294   1.539  18.409  0.00  0.00    +0.105 HD
BRANCH  36  42
ATOM     42  C   UNL     1       1.164   4.149  17.334  0.00  0.00    +0.014 C 
ATOM     43  H   UNL     1       0.890   4.034  16.282  0.00  0.00    +0.046 HD
ATOM     44  H   UNL     1       1.447   5.182  17.548  0.00  0.00    +0.046 HD
ATOM     45  H   UNL     1       0.320   3.867  17.969  0.00  0.00    +0.046 HD
ENDBRANCH  36  42
ENDBRANCH  33  40
ENDBRANCH  25  33
ENDBRANCH  15  25
ENDBRANCH   1  19
BRANCH   8  46
ATOM     46  C   UNL     1      -2.195  10.524  17.408  0.00  0.00    +0.418 C 
ATOM     47  F   UNL     1      -2.694  11.551  16.665  0.00  0.00    -0.166 F 
ATOM     48  F   UNL     1      -1.346   9.845  16.590  0.00  0.00    -0.166 F 
ATOM     49  F   UNL     1      -3.247   9.690  17.637  0.00  0.00    -0.166 F 
ENDBRANCH   8  46
BRANCH   6  50
ATOM     50  C   UNL     1      -1.760  13.983  21.114  0.00  0.00    +0.024 C 
ATOM     51  H   UNL     1      -1.819  14.709  20.292  0.00  0.00    +0.048 HD
ATOM     52  H   UNL     1      -0.990  14.357  21.802  0.00  0.00    +0.048 HD
BRANCH  50  53
ATOM     53  N   UNL     1      -3.054  13.892  21.800  0.00  0.00    -0.298 NA
ATOM     54  C   UNL     1      -3.414  12.520  22.191  0.00  0.00    -0.001 C 
ATOM     55  C   UNL     1      -3.297  12.250  23.691  0.00  0.00    -0.040 C 
ATOM     56  C   UNL     1      -4.169  13.208  24.502  0.00  0.00    -0.051 C 
ATOM     57  C   UNL     1      -4.294  14.579  23.840  0.00  0.00    -0.040 C 
ATOM     58  C   UNL     1      -3.120  14.860  22.905  0.00  0.00    -0.001 C 
ATOM     59  H   UNL     1      -4.456  12.355  21.889  0.00  0.00    +0.043 HD
ATOM     60  H   UNL     1      -2.830  11.766  21.648  0.00  0.00    +0.043 HD
ATOM     61  H   UNL     1      -3.585  11.217  23.912  0.00  0.00    +0.028 HD
ATOM     62  H   UNL     1      -2.249  12.357  24.000  0.00  0.00    +0.028 HD
ATOM     63  H   UNL     1      -3.748  13.309  25.508  0.00  0.00    +0.027 HD
ATOM     64  H   UNL     1      -5.172  12.783  24.630  0.00  0.00    +0.027 HD
ATOM     65  H   UNL     1      -4.359  15.357  24.610  0.00  0.00    +0.028 HD
ATOM     66  H   UNL     1      -5.233  14.628  23.273  0.00  0.00    +0.028 HD
ATOM     67  H   UNL     1      -2.192  14.850  23.492  0.00  0.00    +0.043 HD
ATOM     68  H   UNL     1      -3.230  15.868  22.490  0.00  0.00    +0.043 HD
ENDBRANCH  50  53
ENDBRANCH   6  50
TORSDOF 8
ENDMDL
MODEL 28
REMARK VINA RESULT:    -6.739      3.910      9.929
REMARK INTER + INTRA:         -10.858
REMARK INTER:                 -10.334
REMARK INTRA:                  -0.523
REMARK UNBOUND:                -1.163
REMARK  Name = 
REMARK  8 active torsions:
REMARK  status: ('A' for Active; 'I' for Inactive)
REMARK    1  A    between atoms: C_1  and  N_2
REMARK    2  A    between atoms: C_6  and  C_7
REMARK    3  A    between atoms: C_7  and  C_8
REMARK    4  A    between atoms: C_8  and  C_12
REMARK    5  A    between atoms: C_16  and  N_18
REMARK    6  A    between atoms: C_23  and  C_24
REMARK    7  A    between atoms: C_24  and  N_25
REMARK    8  A    between atoms: C_32  and  C_33
REMARK                            x       y       z     vdW  Elec       q    Type
REMARK                         _______ _______ _______ _____ _____    ______ ____
ROOT
ATOM      1  N   UNL     1       2.003   7.472  19.273  0.00  0.00    -0.263 N 
ATOM      2  C   UNL     1       1.999   8.828  18.743  0.00  0.00    +0.046 C 
ATOM      3  C   UNL     1       1.239   9.606  19.766  0.00  0.00    -0.006 A 
ATOM      4  C   UNL     1       0.835   8.758  20.790  0.00  0.00    +0.043 A 
ATOM      5  C   UNL     1       0.097   9.196  21.872  0.00  0.00    -0.045 A 
ATOM      6  C   UNL     1      -0.250  10.556  21.931  0.00  0.00    -0.032 A 
ATOM      7  C   UNL     1       0.161  11.423  20.891  0.00  0.00    -0.045 A 
ATOM      8  C   UNL     1       0.914  10.959  19.793  0.00  0.00    +0.061 A 
ATOM      9  C   UNL     1       1.311   7.401  20.488  0.00  0.00    +0.251 C 
ATOM     10  O   UNL     1       1.076   6.461  21.224  0.00  0.00    -0.270 OA
ATOM     11  H   UNL     1       1.476   8.846  17.781  0.00  0.00    +0.052 HD
ATOM     12  H   UNL     1       3.027   9.196  18.656  0.00  0.00    +0.052 HD
ATOM     13  H   UNL     1      -0.203   8.503  22.653  0.00  0.00    +0.063 HD
ATOM     14  H   UNL     1      -0.113  12.478  20.940  0.00  0.00    +0.063 HD
ENDROOT
BRANCH   1  19
ATOM     15  C   UNL     1       4.671   5.385  17.589  0.00  0.00    -0.035 A 
ATOM     16  C   UNL     1       3.885   4.285  17.210  0.00  0.00    -0.058 A 
ATOM     17  C   UNL     1       2.523   4.223  17.497  0.00  0.00    -0.060 A 
ATOM     18  C   UNL     1       1.897   5.270  18.174  0.00  0.00    -0.040 A 
ATOM     19  C   UNL     1       2.622   6.390  18.585  0.00  0.00    +0.037 A 
ATOM     20  C   UNL     1       4.000   6.418  18.291  0.00  0.00    -0.036 A 
ATOM     21  H   UNL     1       4.347   3.441  16.696  0.00  0.00    +0.062 HD
ATOM     22  H   UNL     1       1.945   3.350  17.201  0.00  0.00    +0.062 HD
ATOM     23  H   UNL     1       0.836   5.170  18.374  0.00  0.00    +0.064 HD
ATOM     24  H   UNL     1       4.603   7.267  18.602  0.00  0.00    +0.064 HD
BRANCH  15  25
ATOM     25  C   UNL     1       6.236   5.470  17.241  0.00  0.00    +0.049 C 
ATOM     26  C   UNL     1       6.809   6.851  16.804  0.00  0.00    +0.060 C 
ATOM     27  O   UNL     1       7.974   6.656  17.655  0.00  0.00    -0.378 OA
ATOM     28  C   UNL     1       7.206   5.698  18.438  0.00  0.00    +0.060 C 
ATOM     29  H   UNL     1       6.239   7.732  17.123  0.00  0.00    +0.057 HD
ATOM     30  H   UNL     1       7.090   6.970  15.756  0.00  0.00    +0.057 HD
ATOM     31  H   UNL     1       7.813   4.842  18.747  0.00  0.00    +0.057 HD
ATOM     32  H   UNL     1       6.783   6.178  19.328  0.00  0.00    +0.057 HD
BRANCH  25  33
ATOM     33  C   UNL     1       6.698   4.272  16.384  0.00  0.00    +0.021 C 
ATOM     34  H   UNL     1       7.563   3.784  16.850  0.00  0.00    +0.035 HD
ATOM     35  H   UNL     1       5.914   3.502  16.364  0.00  0.00    +0.035 HD
BRANCH  33  40
ATOM     36  N   UNL     1       6.313   4.300  13.870  0.00  0.00    -0.320 N 
ATOM     37  C   UNL     1       6.990   4.804  12.802  0.00  0.00    +0.120 A 
ATOM     38  N   UNL     1       8.062   5.432  13.221  0.00  0.00    -0.138 NA
ATOM     39  N   UNL     1       8.090   5.339  14.590  0.00  0.00    -0.135 NA
ATOM     40  C   UNL     1       7.043   4.641  14.982  0.00  0.00    +0.134 A 
ATOM     41  H   UNL     1       6.676   4.694  11.772  0.00  0.00    +0.105 HD
BRANCH  36  42
ATOM     42  C   UNL     1       5.079   3.564  13.813  0.00  0.00    +0.014 C 
ATOM     43  H   UNL     1       4.794   3.457  12.764  0.00  0.00    +0.046 HD
ATOM     44  H   UNL     1       4.313   4.109  14.368  0.00  0.00    +0.046 HD
ATOM     45  H   UNL     1       5.218   2.577  14.262  0.00  0.00    +0.046 HD
ENDBRANCH  36  42
ENDBRANCH  33  40
ENDBRANCH  25  33
ENDBRANCH  15  25
ENDBRANCH   1  19
BRANCH   8  46
ATOM     46  C   UNL     1       1.350  11.881  18.686  0.00  0.00    +0.418 C 
ATOM     47  F   UNL     1       2.064  11.231  17.725  0.00  0.00    -0.166 F 
ATOM     48  F   UNL     1       0.320  12.493  18.041  0.00  0.00    -0.166 F 
ATOM     49  F   UNL     1       2.160  12.879  19.136  0.00  0.00    -0.166 F 
ENDBRANCH   8  46
BRANCH   6  50
ATOM     50  C   UNL     1      -1.090  11.082  23.080  0.00  0.00    +0.024 C 
ATOM     51  H   UNL     1      -0.390  11.258  23.908  0.00  0.00    +0.048 HD
ATOM     52  H   UNL     1      -1.792  10.314  23.428  0.00  0.00    +0.048 HD
BRANCH  50  53
ATOM     53  N   UNL     1      -1.808  12.319  22.755  0.00  0.00    -0.298 NA
ATOM     54  C   UNL     1      -3.255  12.242  23.014  0.00  0.00    -0.001 C 
ATOM     55  C   UNL     1      -3.709  13.029  24.242  0.00  0.00    -0.040 C 
ATOM     56  C   UNL     1      -3.336  14.507  24.129  0.00  0.00    -0.051 C 
ATOM     57  C   UNL     1      -2.038  14.720  23.353  0.00  0.00    -0.040 C 
ATOM     58  C   UNL     1      -1.154  13.475  23.386  0.00  0.00    -0.001 C 
ATOM     59  H   UNL     1      -3.768  12.646  22.133  0.00  0.00    +0.043 HD
ATOM     60  H   UNL     1      -3.606  11.206  23.107  0.00  0.00    +0.043 HD
ATOM     61  H   UNL     1      -4.793  12.934  24.372  0.00  0.00    +0.028 HD
ATOM     62  H   UNL     1      -3.246  12.602  25.141  0.00  0.00    +0.028 HD
ATOM     63  H   UNL     1      -3.249  14.931  25.136  0.00  0.00    +0.027 HD
ATOM     64  H   UNL     1      -4.142  15.059  23.632  0.00  0.00    +0.027 HD
ATOM     65  H   UNL     1      -1.497  15.580  23.764  0.00  0.00    +0.028 HD
ATOM     66  H   UNL     1      -2.273  14.974  22.310  0.00  0.00    +0.028 HD
ATOM     67  H   UNL     1      -0.892  13.257  24.430  0.00  0.00    +0.043 HD
ATOM     68  H   UNL     1      -0.219  13.690  22.855  0.00  0.00    +0.043 HD
ENDBRANCH  50  53
ENDBRANCH   6  50
TORSDOF 8
ENDMDL
MODEL 29
REMARK VINA RESULT:    -6.727      3.444      8.783
REMARK INTER + INTRA:         -10.840
REMARK INTER:                  -9.998
REMARK INTRA:                  -0.842
REMARK UNBOUND:                -1.163
REMARK  Name = 
REMARK  8 active torsions:
REMARK  status: ('A' for Active; 'I' for Inactive)
REMARK    1  A    between atoms: C_1  and  N_2
REMARK    2  A    between atoms: C_6  and  C_7
REMARK    3  A    between atoms: C_7  and  C_8
REMARK    4  A    between atoms: C_8  and  C_12
REMARK    5  A    between atoms: C_16  and  N_18
REMARK    6  A    between atoms: C_23  and  C_24
REMARK    7  A    between atoms: C_24  and  N_25
REMARK    8  A    between atoms: C_32  and  C_33
REMARK                            x       y       z     vdW  Elec       q    Type
REMARK                         _______ _______ _______ _____ _____    ______ ____
ROOT
ATOM      1  N   UNL     1       1.244   8.559  20.049  0.00  0.00    -0.263 N 
ATOM      2  C   UNL     1       0.508   9.193  21.133  0.00  0.00    +0.046 C 
ATOM      3  C   UNL     1       0.358  10.608  20.680  0.00  0.00    -0.006 A 
ATOM      4  C   UNL     1       0.969  10.767  19.443  0.00  0.00    +0.043 A 
ATOM      5  C   UNL     1       1.004  11.979  18.780  0.00  0.00    -0.045 A 
ATOM      6  C   UNL     1       0.391  13.086  19.390  0.00  0.00    -0.032 A 
ATOM      7  C   UNL     1      -0.234  12.926  20.650  0.00  0.00    -0.045 A 
ATOM      8  C   UNL     1      -0.261  11.683  21.312  0.00  0.00    +0.061 A 
ATOM      9  C   UNL     1       1.537   9.476  19.032  0.00  0.00    +0.251 C 
ATOM     10  O   UNL     1       2.144   9.346  17.985  0.00  0.00    -0.270 OA
ATOM     11  H   UNL     1       1.096   9.146  22.055  0.00  0.00    +0.052 HD
ATOM     12  H   UNL     1      -0.471   8.713  21.247  0.00  0.00    +0.052 HD
ATOM     13  H   UNL     1       1.494  12.066  17.813  0.00  0.00    +0.063 HD
ATOM     14  H   UNL     1      -0.706  13.790  21.120  0.00  0.00    +0.063 HD
ENDROOT
BRANCH   1  19
ATOM     15  C   UNL     1       2.782   5.259  19.020  0.00  0.00    -0.035 A 
ATOM     16  C   UNL     1       2.363   4.472  20.105  0.00  0.00    -0.058 A 
ATOM     17  C   UNL     1       1.602   5.003  21.145  0.00  0.00    -0.060 A 
ATOM     18  C   UNL     1       1.229   6.346  21.131  0.00  0.00    -0.040 A 
ATOM     19  C   UNL     1       1.618   7.186  20.086  0.00  0.00    +0.037 A 
ATOM     20  C   UNL     1       2.397   6.623  19.055  0.00  0.00    -0.036 A 
ATOM     21  H   UNL     1       2.653   3.423  20.156  0.00  0.00    +0.062 HD
ATOM     22  H   UNL     1       1.305   4.368  21.977  0.00  0.00    +0.062 HD
ATOM     23  H   UNL     1       0.638   6.708  21.966  0.00  0.00    +0.064 HD
ATOM     24  H   UNL     1       2.729   7.245  18.227  0.00  0.00    +0.064 HD
BRANCH  15  25
ATOM     25  C   UNL     1       3.640   4.648  17.809  0.00  0.00    +0.049 C 
ATOM     26  C   UNL     1       4.750   3.610  18.157  0.00  0.00    +0.060 C 
ATOM     27  O   UNL     1       4.338   2.771  17.042  0.00  0.00    -0.378 OA
ATOM     28  C   UNL     1       3.033   3.415  17.074  0.00  0.00    +0.060 C 
ATOM     29  H   UNL     1       4.631   3.078  19.108  0.00  0.00    +0.057 HD
ATOM     30  H   UNL     1       5.788   3.933  18.059  0.00  0.00    +0.057 HD
ATOM     31  H   UNL     1       2.638   3.590  16.070  0.00  0.00    +0.057 HD
ATOM     32  H   UNL     1       2.317   2.809  17.642  0.00  0.00    +0.057 HD
BRANCH  25  33
ATOM     33  C   UNL     1       4.059   5.736  16.798  0.00  0.00    +0.021 C 
ATOM     34  H   UNL     1       3.890   5.384  15.772  0.00  0.00    +0.035 HD
ATOM     35  H   UNL     1       3.412   6.616  16.907  0.00  0.00    +0.035 HD
BRANCH  33  40
ATOM     36  N   UNL     1       6.520   5.725  16.159  0.00  0.00    -0.320 N 
ATOM     37  C   UNL     1       7.639   6.334  16.640  0.00  0.00    +0.120 A 
ATOM     38  N   UNL     1       7.315   7.113  17.643  0.00  0.00    -0.138 NA
ATOM     39  N   UNL     1       5.957   7.015  17.824  0.00  0.00    -0.135 NA
ATOM     40  C   UNL     1       5.479   6.164  16.939  0.00  0.00    +0.134 A 
ATOM     41  H   UNL     1       8.635   6.186  16.242  0.00  0.00    +0.105 HD
BRANCH  36  42
ATOM     42  C   UNL     1       6.471   4.812  15.049  0.00  0.00    +0.014 C 
ATOM     43  H   UNL     1       6.440   3.795  15.444  0.00  0.00    +0.046 HD
ATOM     44  H   UNL     1       7.357   4.959  14.427  0.00  0.00    +0.046 HD
ATOM     45  H   UNL     1       5.575   5.006  14.453  0.00  0.00    +0.046 HD
ENDBRANCH  36  42
ENDBRANCH  33  40
ENDBRANCH  25  33
ENDBRANCH  15  25
ENDBRANCH   1  19
BRANCH   8  46
ATOM     46  C   UNL     1      -0.924  11.514  22.652  0.00  0.00    +0.418 C 
ATOM     47  F   UNL     1      -0.907  12.662  23.384  0.00  0.00    -0.166 F 
ATOM     48  F   UNL     1      -2.229  11.135  22.577  0.00  0.00    -0.166 F 
ATOM     49  F   UNL     1      -0.302  10.577  23.420  0.00  0.00    -0.166 F 
ENDBRANCH   8  46
BRANCH   6  50
ATOM     50  C   UNL     1       0.432  14.447  18.721  0.00  0.00    +0.024 C 
ATOM     51  H   UNL     1      -0.413  15.012  19.138  0.00  0.00    +0.048 HD
ATOM     52  H   UNL     1       0.241  14.354  17.645  0.00  0.00    +0.048 HD
BRANCH  50  53
ATOM     53  N   UNL     1       1.687  15.171  18.955  0.00  0.00    -0.298 NA
ATOM     54  C   UNL     1       2.052  15.267  20.377  0.00  0.00    -0.001 C 
ATOM     55  C   UNL     1       3.216  14.364  20.782  0.00  0.00    -0.040 C 
ATOM     56  C   UNL     1       4.469  14.664  19.960  0.00  0.00    -0.051 C 
ATOM     57  C   UNL     1       4.136  15.122  18.541  0.00  0.00    -0.040 C 
ATOM     58  C   UNL     1       2.758  14.633  18.103  0.00  0.00    -0.001 C 
ATOM     59  H   UNL     1       2.335  16.309  20.574  0.00  0.00    +0.043 HD
ATOM     60  H   UNL     1       1.200  15.067  21.039  0.00  0.00    +0.043 HD
ATOM     61  H   UNL     1       3.439  14.490  21.847  0.00  0.00    +0.028 HD
ATOM     62  H   UNL     1       2.929  13.314  20.643  0.00  0.00    +0.028 HD
ATOM     63  H   UNL     1       5.099  13.768  19.930  0.00  0.00    +0.027 HD
ATOM     64  H   UNL     1       5.064  15.442  20.453  0.00  0.00    +0.027 HD
ATOM     65  H   UNL     1       4.904  14.763  17.846  0.00  0.00    +0.028 HD
ATOM     66  H   UNL     1       4.167  16.219  18.494  0.00  0.00    +0.028 HD
ATOM     67  H   UNL     1       2.754  13.534  18.113  0.00  0.00    +0.043 HD
ATOM     68  H   UNL     1       2.582  14.947  17.068  0.00  0.00    +0.043 HD
ENDBRANCH  50  53
ENDBRANCH   6  50
TORSDOF 8
ENDMDL
MODEL 30
REMARK VINA RESULT:    -6.724      2.036      2.918
REMARK INTER + INTRA:         -10.836
REMARK INTER:                 -10.690
REMARK INTRA:                  -0.145
REMARK UNBOUND:                -1.163
REMARK  Name = 
REMARK  8 active torsions:
REMARK  status: ('A' for Active; 'I' for Inactive)
REMARK    1  A    between atoms: C_1  and  N_2
REMARK    2  A    between atoms: C_6  and  C_7
REMARK    3  A    between atoms: C_7  and  C_8
REMARK    4  A    between atoms: C_8  and  C_12
REMARK    5  A    between atoms: C_16  and  N_18
REMARK    6  A    between atoms: C_23  and  C_24
REMARK    7  A    between atoms: C_24  and  N_25
REMARK    8  A    between atoms: C_32  and  C_33
REMARK                            x       y       z     vdW  Elec       q    Type
REMARK                         _______ _______ _______ _____ _____    ______ ____
ROOT
ATOM      1  N   UNL     1       2.144   7.638  19.219  0.00  0.00    -0.263 N 
ATOM      2  C   UNL     1       2.397   6.214  19.391  0.00  0.00    +0.046 C 
ATOM      3  C   UNL     1       3.370   5.893  18.305  0.00  0.00    -0.006 A 
ATOM      4  C   UNL     1       3.641   7.040  17.569  0.00  0.00    +0.043 A 
ATOM      5  C   UNL     1       4.498   7.044  16.486  0.00  0.00    -0.045 A 
ATOM      6  C   UNL     1       5.118   5.836  16.127  0.00  0.00    -0.032 A 
ATOM      7  C   UNL     1       4.846   4.667  16.875  0.00  0.00    -0.045 A 
ATOM      8  C   UNL     1       3.968   4.679  17.978  0.00  0.00    +0.061 A 
ATOM      9  C   UNL     1       2.868   8.153  18.137  0.00  0.00    +0.251 C 
ATOM     10  O   UNL     1       2.914   9.273  17.663  0.00  0.00    -0.270 OA
ATOM     11  H   UNL     1       1.466   5.655  19.249  0.00  0.00    +0.052 HD
ATOM     12  H   UNL     1       2.837   6.032  20.377  0.00  0.00    +0.052 HD
ATOM     13  H   UNL     1       4.685   7.961  15.933  0.00  0.00    +0.063 HD
ATOM     14  H   UNL     1       5.328   3.730  16.590  0.00  0.00    +0.063 HD
ENDROOT
BRANCH   1  19
ATOM     15  C   UNL     1       0.020  10.464  20.563  0.00  0.00    -0.035 A 
ATOM     16  C   UNL     1      -0.516   9.821  21.690  0.00  0.00    -0.058 A 
ATOM     17  C   UNL     1      -0.197   8.502  22.003  0.00  0.00    -0.060 A 
ATOM     18  C   UNL     1       0.680   7.779  21.195  0.00  0.00    -0.040 A 
ATOM     19  C   UNL     1       1.243   8.356  20.055  0.00  0.00    +0.037 A 
ATOM     20  C   UNL     1       0.891   9.688  19.758  0.00  0.00    -0.036 A 
ATOM     21  H   UNL     1      -1.220  10.353  22.332  0.00  0.00    +0.062 HD
ATOM     22  H   UNL     1      -0.640   8.029  22.877  0.00  0.00    +0.062 HD
ATOM     23  H   UNL     1       0.894   6.755  21.483  0.00  0.00    +0.064 HD
ATOM     24  H   UNL     1       1.299  10.171  18.875  0.00  0.00    +0.064 HD
BRANCH  15  25
ATOM     25  C   UNL     1      -0.330  11.991  20.210  0.00  0.00    +0.049 C 
ATOM     26  C   UNL     1      -1.215  12.785  21.217  0.00  0.00    +0.060 C 
ATOM     27  O   UNL     1      -0.344  13.945  21.094  0.00  0.00    -0.378 OA
ATOM     28  C   UNL     1       0.719  13.063  20.633  0.00  0.00    +0.060 C 
ATOM     29  H   UNL     1      -1.223  12.414  22.249  0.00  0.00    +0.057 HD
ATOM     30  H   UNL     1      -2.238  13.014  20.915  0.00  0.00    +0.057 HD
ATOM     31  H   UNL     1       1.307  13.517  19.829  0.00  0.00    +0.057 HD
ATOM     32  H   UNL     1       1.386  12.797  21.460  0.00  0.00    +0.057 HD
BRANCH  25  33
ATOM     33  C   UNL     1      -0.718  12.161  18.726  0.00  0.00    +0.021 C 
ATOM     34  H   UNL     1      -1.007  13.200  18.527  0.00  0.00    +0.035 HD
ATOM     35  H   UNL     1       0.158  11.982  18.088  0.00  0.00    +0.035 HD
BRANCH  33  40
ATOM     36  N   UNL     1      -3.149  11.425  18.595  0.00  0.00    -0.320 N 
ATOM     37  C   UNL     1      -3.803  10.370  18.037  0.00  0.00    +0.120 A 
ATOM     38  N   UNL     1      -2.942   9.602  17.415  0.00  0.00    -0.138 NA
ATOM     39  N   UNL     1      -1.698  10.164  17.565  0.00  0.00    -0.135 NA
ATOM     40  C   UNL     1      -1.820  11.257  18.292  0.00  0.00    +0.134 A 
ATOM     41  H   UNL     1      -4.871  10.206  18.107  0.00  0.00    +0.105 HD
BRANCH  36  42
ATOM     42  C   UNL     1      -3.758  12.491  19.343  0.00  0.00    +0.014 C 
ATOM     43  H   UNL     1      -4.586  12.893  18.754  0.00  0.00    +0.046 HD
ATOM     44  H   UNL     1      -3.011  13.264  19.536  0.00  0.00    +0.046 HD
ATOM     45  H   UNL     1      -4.133  12.106  20.295  0.00  0.00    +0.046 HD
ENDBRANCH  36  42
ENDBRANCH  33  40
ENDBRANCH  25  33
ENDBRANCH  15  25
ENDBRANCH   1  19
BRANCH   8  46
ATOM     46  C   UNL     1       3.678   3.435  18.773  0.00  0.00    +0.418 C 
ATOM     47  F   UNL     1       4.206   3.490  20.027  0.00  0.00    -0.166 F 
ATOM     48  F   UNL     1       2.351   3.182  18.934  0.00  0.00    -0.166 F 
ATOM     49  F   UNL     1       4.208   2.321  18.197  0.00  0.00    -0.166 F 
ENDBRANCH   8  46
BRANCH   6  50
ATOM     50  C   UNL     1       6.041   5.779  14.924  0.00  0.00    +0.024 C 
ATOM     51  H   UNL     1       7.018   6.137  15.277  0.00  0.00    +0.048 HD
ATOM     52  H   UNL     1       5.714   6.486  14.151  0.00  0.00    +0.048 HD
BRANCH  50  53
ATOM     53  N   UNL     1       6.173   4.432  14.357  0.00  0.00    -0.298 NA
ATOM     54  C   UNL     1       4.884   3.814  14.009  0.00  0.00    -0.001 C 
ATOM     55  C   UNL     1       4.611   3.749  12.507  0.00  0.00    -0.040 C 
ATOM     56  C   UNL     1       5.708   2.981  11.771  0.00  0.00    -0.051 C 
ATOM     57  C   UNL     1       7.075   3.147  12.431  0.00  0.00    -0.040 C 
ATOM     58  C   UNL     1       7.148   4.430  13.256  0.00  0.00    -0.001 C 
ATOM     59  H   UNL     1       4.893   2.790  14.405  0.00  0.00    +0.043 HD
ATOM     60  H   UNL     1       4.039   4.309  14.503  0.00  0.00    +0.043 HD
ATOM     61  H   UNL     1       3.642   3.274  12.320  0.00  0.00    +0.028 HD
ATOM     62  H   UNL     1       4.544   4.768  12.105  0.00  0.00    +0.028 HD
ATOM     63  H   UNL     1       5.745   3.322  10.731  0.00  0.00    +0.027 HD
ATOM     64  H   UNL     1       5.458   1.914  11.736  0.00  0.00    +0.027 HD
ATOM     65  H   UNL     1       7.859   3.144  11.665  0.00  0.00    +0.028 HD
ATOM     66  H   UNL     1       7.276   2.284  13.080  0.00  0.00    +0.028 HD
ATOM     67  H   UNL     1       6.988   5.287  12.588  0.00  0.00    +0.043 HD
ATOM     68  H   UNL     1       8.157   4.527  13.672  0.00  0.00    +0.043 HD
ENDBRANCH  50  53
ENDBRANCH   6  50
TORSDOF 8
ENDMDL
MODEL 31
REMARK VINA RESULT:    -6.719      2.609      3.574
REMARK INTER + INTRA:         -10.829
REMARK INTER:                 -10.481
REMARK INTRA:                  -0.348
REMARK UNBOUND:                -1.163
REMARK  Name = 
REMARK  8 active torsions:
REMARK  status: ('A' for Active; 'I' for Inactive)
REMARK    1  A    between atoms: C_1  and  N_2
REMARK    2  A    between atoms: C_6  and  C_7
REMARK    3  A    between atoms: C_7  and  C_8
REMARK    4  A    between atoms: C_8  and  C_12
REMARK    5  A    between atoms: C_16  and  N_18
REMARK    6  A    between atoms: C_23  and  C_24
REMARK    7  A    between atoms: C_24  and  N_25
REMARK    8  A    between atoms: C_32  and  C_33
REMARK                            x       y       z     vdW  Elec       q    Type
REMARK                         _______ _______ _______ _____ _____    ______ ____
ROOT
ATOM      1  N   UNL     1       2.095   7.127  19.564  0.00  0.00    -0.263 N 
ATOM      2  C   UNL     1       1.916   5.712  19.855  0.00  0.00    +0.046 C 
ATOM      3  C   UNL     1       2.916   5.039  18.973  0.00  0.00    -0.006 A 
ATOM      4  C   UNL     1       3.600   5.994  18.233  0.00  0.00    +0.043 A 
ATOM      5  C   UNL     1       4.579   5.665  17.315  0.00  0.00    -0.045 A 
ATOM      6  C   UNL     1       4.889   4.307  17.135  0.00  0.00    -0.032 A 
ATOM      7  C   UNL     1       4.194   3.331  17.889  0.00  0.00    -0.045 A 
ATOM      8  C   UNL     1       3.198   3.684  18.821  0.00  0.00    +0.061 A 
ATOM      9  C   UNL     1       3.088   7.323  18.596  0.00  0.00    +0.251 C 
ATOM     10  O   UNL     1       3.513   8.338  18.076  0.00  0.00    -0.270 OA
ATOM     11  H   UNL     1       0.900   5.406  19.586  0.00  0.00    +0.052 HD
ATOM     12  H   UNL     1       2.135   5.519  20.911  0.00  0.00    +0.052 HD
ATOM     13  H   UNL     1       5.092   6.441  16.752  0.00  0.00    +0.063 HD
ATOM     14  H   UNL     1       4.437   2.277  17.743  0.00  0.00    +0.063 HD
ENDROOT
BRANCH   1  19
ATOM     15  C   UNL     1       0.648  10.530  20.356  0.00  0.00    -0.035 A 
ATOM     16  C   UNL     1      -0.201  10.169  21.415  0.00  0.00    -0.058 A 
ATOM     17  C   UNL     1      -0.302   8.851  21.856  0.00  0.00    -0.060 A 
ATOM     18  C   UNL     1       0.454   7.846  21.253  0.00  0.00    -0.040 A 
ATOM     19  C   UNL     1       1.312   8.136  20.191  0.00  0.00    +0.037 A 
ATOM     20  C   UNL     1       1.383   9.476  19.758  0.00  0.00    -0.036 A 
ATOM     21  H   UNL     1      -0.819  10.927  21.896  0.00  0.00    +0.062 HD
ATOM     22  H   UNL     1      -0.979   8.603  22.670  0.00  0.00    +0.062 HD
ATOM     23  H   UNL     1       0.336   6.837  21.635  0.00  0.00    +0.064 HD
ATOM     24  H   UNL     1       2.031   9.743  18.928  0.00  0.00    +0.064 HD
BRANCH  15  25
ATOM     25  C   UNL     1       0.782  12.051  19.857  0.00  0.00    +0.049 C 
ATOM     26  C   UNL     1       2.010  12.872  20.355  0.00  0.00    +0.060 C 
ATOM     27  O   UNL     1       2.214  13.409  19.017  0.00  0.00    -0.378 OA
ATOM     28  C   UNL     1       1.475  12.275  18.480  0.00  0.00    +0.060 C 
ATOM     29  H   UNL     1       2.881  12.290  20.676  0.00  0.00    +0.057 HD
ATOM     30  H   UNL     1       1.823  13.663  21.084  0.00  0.00    +0.057 HD
ATOM     31  H   UNL     1       0.827  12.566  17.648  0.00  0.00    +0.057 HD
ATOM     32  H   UNL     1       2.162  11.491  18.143  0.00  0.00    +0.057 HD
BRANCH  25  33
ATOM     33  C   UNL     1      -0.569  12.795  19.918  0.00  0.00    +0.021 C 
ATOM     34  H   UNL     1      -0.619  13.553  19.127  0.00  0.00    +0.035 HD
ATOM     35  H   UNL     1      -1.389  12.099  19.698  0.00  0.00    +0.035 HD
BRANCH  33  40
ATOM     36  N   UNL     1      -2.002  13.348  21.945  0.00  0.00    -0.320 N 
ATOM     37  C   UNL     1      -1.832  14.110  23.061  0.00  0.00    +0.120 A 
ATOM     38  N   UNL     1      -0.630  14.633  23.054  0.00  0.00    -0.138 NA
ATOM     39  N   UNL     1       0.002  14.207  21.912  0.00  0.00    -0.135 NA
ATOM     40  C   UNL     1      -0.831  13.444  21.234  0.00  0.00    +0.134 A 
ATOM     41  H   UNL     1      -2.585  14.250  23.826  0.00  0.00    +0.105 HD
BRANCH  36  42
ATOM     42  C   UNL     1      -3.183  12.600  21.609  0.00  0.00    +0.014 C 
ATOM     43  H   UNL     1      -3.981  12.895  22.295  0.00  0.00    +0.046 HD
ATOM     44  H   UNL     1      -2.968  11.534  21.701  0.00  0.00    +0.046 HD
ATOM     45  H   UNL     1      -3.478  12.822  20.580  0.00  0.00    +0.046 HD
ENDBRANCH  36  42
ENDBRANCH  33  40
ENDBRANCH  25  33
ENDBRANCH  15  25
ENDBRANCH   1  19
BRANCH   8  46
ATOM     46  C   UNL     1       2.459   2.646  19.621  0.00  0.00    +0.418 C 
ATOM     47  F   UNL     1       1.108   2.765  19.497  0.00  0.00    -0.166 F 
ATOM     48  F   UNL     1       2.758   1.366  19.272  0.00  0.00    -0.166 F 
ATOM     49  F   UNL     1       2.717   2.744  20.955  0.00  0.00    -0.166 F 
ENDBRANCH   8  46
BRANCH   6  50
ATOM     50  C   UNL     1       5.931   3.889  16.114  0.00  0.00    +0.024 C 
ATOM     51  H   UNL     1       5.926   2.790  16.112  0.00  0.00    +0.048 HD
ATOM     52  H   UNL     1       6.934   4.193  16.440  0.00  0.00    +0.048 HD
BRANCH  50  53
ATOM     53  N   UNL     1       5.658   4.397  14.765  0.00  0.00    -0.298 NA
ATOM     54  C   UNL     1       6.666   5.356  14.286  0.00  0.00    -0.001 C 
ATOM     55  C   UNL     1       7.601   4.792  13.216  0.00  0.00    -0.040 C 
ATOM     56  C   UNL     1       6.823   4.290  12.001  0.00  0.00    -0.051 C 
ATOM     57  C   UNL     1       5.450   3.737  12.379  0.00  0.00    -0.040 C 
ATOM     58  C   UNL     1       5.410   3.284  13.836  0.00  0.00    -0.001 C 
ATOM     59  H   UNL     1       6.128   6.213  13.861  0.00  0.00    +0.043 HD
ATOM     60  H   UNL     1       7.270   5.768  15.104  0.00  0.00    +0.043 HD
ATOM     61  H   UNL     1       8.318   5.558  12.901  0.00  0.00    +0.028 HD
ATOM     62  H   UNL     1       8.188   3.968  13.642  0.00  0.00    +0.028 HD
ATOM     63  H   UNL     1       7.414   3.522  11.491  0.00  0.00    +0.027 HD
ATOM     64  H   UNL     1       6.690   5.105  11.279  0.00  0.00    +0.027 HD
ATOM     65  H   UNL     1       5.191   2.904  11.716  0.00  0.00    +0.028 HD
ATOM     66  H   UNL     1       4.686   4.509  12.215  0.00  0.00    +0.028 HD
ATOM     67  H   UNL     1       6.148   2.483  13.977  0.00  0.00    +0.043 HD
ATOM     68  H   UNL     1       4.423   2.856  14.048  0.00  0.00    +0.043 HD
ENDBRANCH  50  53
ENDBRANCH   6  50
TORSDOF 8
ENDMDL
