MODEL 1
REMARK VINA RESULT:    -9.213      0.000      0.000
REMARK INTER + INTRA:         -11.175
REMARK INTER:                 -10.627
REMARK INTRA:                  -0.548
REMARK UNBOUND:                 0.192
REMARK  Name = 
REMARK  4 active torsions:
REMARK  status: ('A' for Active; 'I' for Inactive)
REMARK    1  A    between atoms: C_2  and  C_4
REMARK    2  A    between atoms: C_7  and  N_8
REMARK    3  A    between atoms: C_9  and  C_11
REMARK    4  A    between atoms: C_13  and  C_14
REMARK                            x       y       z     vdW  Elec       q    Type
REMARK                         _______ _______ _______ _____ _____    ______ ____
ROOT
ATOM      1  C   UNL     1       2.797   5.973  18.510  0.00  0.00    +0.048 A 
ATOM      2  C   UNL     1       3.795   6.019  17.535  0.00  0.00    -0.023 A 
ATOM      3  C   UNL     1       4.228   4.832  16.972  0.00  0.00    +0.074 A 
ATOM      4  N   UNL     1       3.685   3.646  17.342  0.00  0.00    -0.247 NA
ATOM      5  C   UNL     1       2.752   3.598  18.308  0.00  0.00    +0.072 A 
ATOM      6  C   UNL     1       2.255   2.356  18.683  0.00  0.00    -0.036 A 
ATOM      7  C   UNL     1       1.300   2.215  19.692  0.00  0.00    -0.060 A 
ATOM      8  C   UNL     1       0.828   3.339  20.355  0.00  0.00    -0.061 A 
ATOM      9  C   UNL     1       1.307   4.597  19.993  0.00  0.00    -0.052 A 
ATOM     10  C   UNL     1       2.263   4.746  18.955  0.00  0.00    +0.013 A 
ATOM     11  H   UNL     1       4.197   6.979  17.222  0.00  0.00    +0.065 HD
ATOM     12  H   UNL     1       2.632   1.468  18.181  0.00  0.00    +0.064 HD
ATOM     13  H   UNL     1       0.940   1.226  19.964  0.00  0.00    +0.062 HD
ATOM     14  H   UNL     1       0.100   3.239  21.155  0.00  0.00    +0.062 HD
ATOM     15  H   UNL     1       0.944   5.460  20.548  0.00  0.00    +0.062 HD
ENDROOT
BRANCH   3  16
ATOM     16  C   UNL     1       5.270   4.762  15.932  0.00  0.00    +0.018 A 
ATOM     17  C   UNL     1       5.090   4.106  14.705  0.00  0.00    -0.050 A 
ATOM     18  C   UNL     1       6.117   4.068  13.760  0.00  0.00    -0.043 A 
ATOM     19  C   UNL     1       7.313   4.693  14.063  0.00  0.00    +0.028 A 
ATOM     20  N   UNL     1       7.540   5.342  15.221  0.00  0.00    -0.263 NA
ATOM     21  C   UNL     1       6.517   5.366  16.114  0.00  0.00    +0.037 A 
ATOM     22  H   UNL     1       4.145   3.631  14.455  0.00  0.00    +0.063 HD
ATOM     23  H   UNL     1       5.983   3.565  12.809  0.00  0.00    +0.063 HD
ATOM     24  H   UNL     1       8.143   4.691  13.361  0.00  0.00    +0.083 HD
ATOM     25  H   UNL     1       6.745   5.909  17.031  0.00  0.00    +0.084 HD
ENDBRANCH   3  16
BRANCH   1  27
ATOM     26  N   UNL     1       2.014   8.195  18.044  0.00  0.00    -0.281 N 
ATOM     27  C   UNL     1       2.333   7.280  19.029  0.00  0.00    +0.249 C 
ATOM     28  O   UNL     1       2.331   7.447  20.241  0.00  0.00    -0.270 OA
ATOM     29  H   UNL     1       2.166   7.903  17.085  0.00  0.00    +0.155 HD
BRANCH  26  33
ATOM     30  C   UNL     1       0.416  12.066  18.605  0.00  0.00    +0.037 A 
ATOM     31  C   UNL     1       1.788  11.917  18.380  0.00  0.00    -0.048 A 
ATOM     32  C   UNL     1       2.342  10.645  18.185  0.00  0.00    -0.040 A 
ATOM     33  C   UNL     1       1.533   9.508  18.222  0.00  0.00    +0.034 A 
ATOM     34  C   UNL     1       0.161   9.661  18.465  0.00  0.00    -0.040 A 
ATOM     35  C   UNL     1      -0.397  10.929  18.657  0.00  0.00    -0.048 A 
ATOM     36  H   UNL     1       2.437  12.791  18.354  0.00  0.00    +0.063 HD
ATOM     37  H   UNL     1       3.412  10.582  18.015  0.00  0.00    +0.064 HD
ATOM     38  H   UNL     1      -0.493   8.793  18.515  0.00  0.00    +0.064 HD
ATOM     39  H   UNL     1      -1.458  11.009  18.871  0.00  0.00    +0.063 HD
BRANCH  30  41
ATOM     40  N   UNL     1      -1.428  13.546  19.206  0.00  0.00    -0.325 N 
ATOM     41  C   UNL     1      -0.125  13.436  18.807  0.00  0.00    +0.242 C 
ATOM     42  O   UNL     1       0.551  14.434  18.595  0.00  0.00    -0.270 OA
ATOM     43  H   UNL     1      -1.805  14.486  19.201  0.00  0.00    +0.145 HD
ATOM     44  H   UNL     1      -2.085  12.788  19.091  0.00  0.00    +0.145 HD
ENDBRANCH  30  41
ENDBRANCH  26  33
ENDBRANCH   1  27
TORSDOF 4
ENDMDL
MODEL 2
REMARK VINA RESULT:    -9.141      2.270      2.377
REMARK INTER + INTRA:         -11.086
REMARK INTER:                 -11.460
REMARK INTRA:                   0.374
REMARK UNBOUND:                 0.192
REMARK  Name = 
REMARK  4 active torsions:
REMARK  status: ('A' for Active; 'I' for Inactive)
REMARK    1  A    between atoms: C_2  and  C_4
REMARK    2  A    between atoms: C_7  and  N_8
REMARK    3  A    between atoms: C_9  and  C_11
REMARK    4  A    between atoms: C_13  and  C_14
REMARK                            x       y       z     vdW  Elec       q    Type
REMARK                         _______ _______ _______ _____ _____    ______ ____
ROOT
ATOM      1  C   UNL     1       2.975   6.097  18.775  0.00  0.00    +0.048 A 
ATOM      2  C   UNL     1       3.811   6.081  17.656  0.00  0.00    -0.023 A 
ATOM      3  C   UNL     1       4.494   4.916  17.356  0.00  0.00    +0.074 A 
ATOM      4  N   UNL     1       4.347   3.805  18.118  0.00  0.00    -0.247 NA
ATOM      5  C   UNL     1       3.574   3.832  19.217  0.00  0.00    +0.072 A 
ATOM      6  C   UNL     1       3.486   2.681  19.990  0.00  0.00    -0.036 A 
ATOM      7  C   UNL     1       2.721   2.631  21.158  0.00  0.00    -0.060 A 
ATOM      8  C   UNL     1       2.029   3.758  21.576  0.00  0.00    -0.061 A 
ATOM      9  C   UNL     1       2.097   4.923  20.815  0.00  0.00    -0.052 A 
ATOM     10  C   UNL     1       2.856   4.972  19.617  0.00  0.00    +0.013 A 
ATOM     11  H   UNL     1       3.893   6.967  17.034  0.00  0.00    +0.065 HD
ATOM     12  H   UNL     1       4.039   1.797  19.679  0.00  0.00    +0.064 HD
ATOM     13  H   UNL     1       2.683   1.714  21.741  0.00  0.00    +0.062 HD
ATOM     14  H   UNL     1       1.448   3.735  22.494  0.00  0.00    +0.062 HD
ATOM     15  H   UNL     1       1.569   5.802  21.180  0.00  0.00    +0.062 HD
ENDROOT
BRANCH   3  16
ATOM     16  C   UNL     1       5.397   4.783  16.198  0.00  0.00    +0.018 A 
ATOM     17  C   UNL     1       5.053   4.085  15.030  0.00  0.00    -0.050 A 
ATOM     18  C   UNL     1       5.953   3.988  13.967  0.00  0.00    -0.043 A 
ATOM     19  C   UNL     1       7.189   4.597  14.094  0.00  0.00    +0.028 A 
ATOM     20  N   UNL     1       7.570   5.284  15.188  0.00  0.00    -0.263 NA
ATOM     21  C   UNL     1       6.668   5.365  16.200  0.00  0.00    +0.037 A 
ATOM     22  H   UNL     1       4.076   3.623  14.919  0.00  0.00    +0.063 HD
ATOM     23  H   UNL     1       5.692   3.454  13.061  0.00  0.00    +0.063 HD
ATOM     24  H   UNL     1       7.924   4.550  13.295  0.00  0.00    +0.083 HD
ATOM     25  H   UNL     1       7.018   5.936  17.058  0.00  0.00    +0.084 HD
ENDBRANCH   3  16
BRANCH   1  27
ATOM     26  N   UNL     1       1.844   7.544  20.322  0.00  0.00    -0.281 N 
ATOM     27  C   UNL     1       2.225   7.352  19.008  0.00  0.00    +0.249 C 
ATOM     28  O   UNL     1       1.968   8.054  18.040  0.00  0.00    -0.270 OA
ATOM     29  H   UNL     1       2.073   6.803  20.975  0.00  0.00    +0.155 HD
BRANCH  26  33
ATOM     30  C   UNL     1      -0.282  10.750  22.069  0.00  0.00    +0.037 A 
ATOM     31  C   UNL     1       0.162  10.861  20.748  0.00  0.00    -0.048 A 
ATOM     32  C   UNL     1       0.863   9.810  20.144  0.00  0.00    -0.040 A 
ATOM     33  C   UNL     1       1.138   8.641  20.855  0.00  0.00    +0.034 A 
ATOM     34  C   UNL     1       0.707   8.541  22.185  0.00  0.00    -0.040 A 
ATOM     35  C   UNL     1       0.002   9.586  22.792  0.00  0.00    -0.048 A 
ATOM     36  H   UNL     1      -0.036  11.767  20.178  0.00  0.00    +0.063 HD
ATOM     37  H   UNL     1       1.187   9.945  19.116  0.00  0.00    +0.064 HD
ATOM     38  H   UNL     1       0.918   7.649  22.771  0.00  0.00    +0.064 HD
ATOM     39  H   UNL     1      -0.293   9.487  23.832  0.00  0.00    +0.063 HD
BRANCH  30  41
ATOM     40  N   UNL     1      -2.197  11.615  23.309  0.00  0.00    -0.325 N 
ATOM     41  C   UNL     1      -1.022  11.893  22.668  0.00  0.00    +0.242 C 
ATOM     42  O   UNL     1      -0.622  13.045  22.566  0.00  0.00    -0.270 OA
ATOM     43  H   UNL     1      -2.743  12.423  23.583  0.00  0.00    +0.145 HD
ATOM     44  H   UNL     1      -2.701  10.754  23.149  0.00  0.00    +0.145 HD
ENDBRANCH  30  41
ENDBRANCH  26  33
ENDBRANCH   1  27
TORSDOF 4
ENDMDL
MODEL 3
REMARK VINA RESULT:    -8.555      3.024      8.606
REMARK INTER + INTRA:         -10.363
REMARK INTER:                  -9.938
REMARK INTRA:                  -0.425
REMARK UNBOUND:                 0.192
REMARK  Name = 
REMARK  4 active torsions:
REMARK  status: ('A' for Active; 'I' for Inactive)
REMARK    1  A    between atoms: C_2  and  C_4
REMARK    2  A    between atoms: C_7  and  N_8
REMARK    3  A    between atoms: C_9  and  C_11
REMARK    4  A    between atoms: C_13  and  C_14
REMARK                            x       y       z     vdW  Elec       q    Type
REMARK                         _______ _______ _______ _____ _____    ______ ____
ROOT
ATOM      1  C   UNL     1       0.910   9.335  18.929  0.00  0.00    +0.048 A 
ATOM      2  C   UNL     1      -0.095   9.708  18.034  0.00  0.00    -0.023 A 
ATOM      3  C   UNL     1      -1.285  10.199  18.540  0.00  0.00    +0.074 A 
ATOM      4  N   UNL     1      -1.472  10.334  19.876  0.00  0.00    -0.247 NA
ATOM      5  C   UNL     1      -0.520   9.939  20.739  0.00  0.00    +0.072 A 
ATOM      6  C   UNL     1      -0.773  10.059  22.099  0.00  0.00    -0.036 A 
ATOM      7  C   UNL     1       0.153   9.653  23.063  0.00  0.00    -0.060 A 
ATOM      8  C   UNL     1       1.364   9.105  22.665  0.00  0.00    -0.061 A 
ATOM      9  C   UNL     1       1.643   8.978  21.306  0.00  0.00    -0.052 A 
ATOM     10  C   UNL     1       0.714   9.408  20.324  0.00  0.00    +0.013 A 
ATOM     11  H   UNL     1       0.081   9.627  16.965  0.00  0.00    +0.065 HD
ATOM     12  H   UNL     1      -1.727  10.472  22.420  0.00  0.00    +0.064 HD
ATOM     13  H   UNL     1      -0.084   9.755  24.119  0.00  0.00    +0.062 HD
ATOM     14  H   UNL     1       2.082   8.767  23.407  0.00  0.00    +0.062 HD
ATOM     15  H   UNL     1       2.587   8.518  21.020  0.00  0.00    +0.062 HD
ENDROOT
BRANCH   3  16
ATOM     16  C   UNL     1      -2.410  10.628  17.690  0.00  0.00    +0.018 A 
ATOM     17  C   UNL     1      -2.488  10.347  16.317  0.00  0.00    -0.050 A 
ATOM     18  C   UNL     1      -3.578  10.784  15.561  0.00  0.00    -0.043 A 
ATOM     19  C   UNL     1      -4.576  11.499  16.199  0.00  0.00    +0.028 A 
ATOM     20  N   UNL     1      -4.557  11.792  17.513  0.00  0.00    -0.263 NA
ATOM     21  C   UNL     1      -3.486  11.345  18.220  0.00  0.00    +0.037 A 
ATOM     22  H   UNL     1      -1.716   9.768  15.817  0.00  0.00    +0.063 HD
ATOM     23  H   UNL     1      -3.645  10.567  14.501  0.00  0.00    +0.063 HD
ATOM     24  H   UNL     1      -5.444  11.860  15.654  0.00  0.00    +0.083 HD
ATOM     25  H   UNL     1      -3.519  11.599  19.278  0.00  0.00    +0.084 HD
ENDBRANCH   3  16
BRANCH   1  27
ATOM     26  N   UNL     1       2.456   7.538  18.541  0.00  0.00    -0.281 N 
ATOM     27  C   UNL     1       2.181   8.875  18.325  0.00  0.00    +0.249 C 
ATOM     28  O   UNL     1       2.879   9.705  17.759  0.00  0.00    -0.270 OA
ATOM     29  H   UNL     1       1.796   7.025  19.115  0.00  0.00    +0.155 HD
BRANCH  26  33
ATOM     30  C   UNL     1       5.793   5.259  17.307  0.00  0.00    +0.037 A 
ATOM     31  C   UNL     1       5.309   6.273  16.475  0.00  0.00    -0.048 A 
ATOM     32  C   UNL     1       4.209   7.048  16.863  0.00  0.00    -0.040 A 
ATOM     33  C   UNL     1       3.572   6.811  18.083  0.00  0.00    +0.034 A 
ATOM     34  C   UNL     1       4.048   5.781  18.906  0.00  0.00    -0.040 A 
ATOM     35  C   UNL     1       5.150   5.008  18.524  0.00  0.00    -0.048 A 
ATOM     36  H   UNL     1       5.787   6.470  15.516  0.00  0.00    +0.063 HD
ATOM     37  H   UNL     1       3.871   7.823  16.182  0.00  0.00    +0.064 HD
ATOM     38  H   UNL     1       3.565   5.562  19.855  0.00  0.00    +0.064 HD
ATOM     39  H   UNL     1       5.476   4.200  19.172  0.00  0.00    +0.063 HD
BRANCH  30  41
ATOM     40  N   UNL     1       7.942   4.202  17.768  0.00  0.00    -0.325 N 
ATOM     41  C   UNL     1       6.963   4.464  16.850  0.00  0.00    +0.242 C 
ATOM     42  O   UNL     1       7.073   4.085  15.692  0.00  0.00    -0.270 OA
ATOM     43  H   UNL     1       8.784   3.781  17.395  0.00  0.00    +0.145 HD
ATOM     44  H   UNL     1       8.037   4.744  18.615  0.00  0.00    +0.145 HD
ENDBRANCH  30  41
ENDBRANCH  26  33
ENDBRANCH   1  27
TORSDOF 4
ENDMDL
MODEL 4
REMARK VINA RESULT:    -8.546      2.817      9.458
REMARK INTER + INTRA:         -10.352
REMARK INTER:                  -9.889
REMARK INTRA:                  -0.463
REMARK UNBOUND:                 0.192
REMARK  Name = 
REMARK  4 active torsions:
REMARK  status: ('A' for Active; 'I' for Inactive)
REMARK    1  A    between atoms: C_2  and  C_4
REMARK    2  A    between atoms: C_7  and  N_8
REMARK    3  A    between atoms: C_9  and  C_11
REMARK    4  A    between atoms: C_13  and  C_14
REMARK                            x       y       z     vdW  Elec       q    Type
REMARK                         _______ _______ _______ _____ _____    ______ ____
ROOT
ATOM      1  C   UNL     1       0.078  10.612  18.892  0.00  0.00    +0.048 A 
ATOM      2  C   UNL     1       0.203  11.460  19.995  0.00  0.00    -0.023 A 
ATOM      3  C   UNL     1      -0.910  12.164  20.419  0.00  0.00    +0.074 A 
ATOM      4  N   UNL     1      -2.104  12.026  19.792  0.00  0.00    -0.247 NA
ATOM      5  C   UNL     1      -2.215  11.240  18.708  0.00  0.00    +0.072 A 
ATOM      6  C   UNL     1      -3.448  11.162  18.074  0.00  0.00    -0.036 A 
ATOM      7  C   UNL     1      -3.645  10.385  16.930  0.00  0.00    -0.060 A 
ATOM      8  C   UNL     1      -2.583   9.671  16.393  0.00  0.00    -0.061 A 
ATOM      9  C   UNL     1      -1.337   9.730  17.013  0.00  0.00    -0.052 A 
ATOM     10  C   UNL     1      -1.139  10.501  18.187  0.00  0.00    +0.013 A 
ATOM     11  H   UNL     1       1.156  11.536  20.510  0.00  0.00    +0.065 HD
ATOM     12  H   UNL     1      -4.282  11.732  18.478  0.00  0.00    +0.064 HD
ATOM     13  H   UNL     1      -4.623  10.355  16.457  0.00  0.00    +0.062 HD
ATOM     14  H   UNL     1      -2.721   9.081  15.491  0.00  0.00    +0.062 HD
ATOM     15  H   UNL     1      -0.513   9.184  16.555  0.00  0.00    +0.062 HD
ENDROOT
BRANCH   3  16
ATOM     16  C   UNL     1      -0.895  13.082  21.573  0.00  0.00    +0.018 A 
ATOM     17  C   UNL     1      -1.719  12.918  22.697  0.00  0.00    -0.050 A 
ATOM     18  C   UNL     1      -1.665  13.824  23.758  0.00  0.00    -0.043 A 
ATOM     19  C   UNL     1      -0.780  14.883  23.674  0.00  0.00    +0.028 A 
ATOM     20  N   UNL     1       0.038  15.087  22.624  0.00  0.00    -0.263 NA
ATOM     21  C   UNL     1      -0.035  14.183  21.612  0.00  0.00    +0.037 A 
ATOM     22  H   UNL     1      -2.401  12.076  22.776  0.00  0.00    +0.063 HD
ATOM     23  H   UNL     1      -2.297  13.700  24.631  0.00  0.00    +0.063 HD
ATOM     24  H   UNL     1      -0.701  15.615  24.474  0.00  0.00    +0.083 HD
ATOM     25  H   UNL     1       0.650  14.384  20.790  0.00  0.00    +0.084 HD
ENDBRANCH   3  16
BRANCH   1  27
ATOM     26  N   UNL     1       1.311   8.557  19.038  0.00  0.00    -0.281 N 
ATOM     27  C   UNL     1       1.287   9.840  18.526  0.00  0.00    +0.249 C 
ATOM     28  O   UNL     1       2.152  10.407  17.873  0.00  0.00    -0.270 OA
ATOM     29  H   UNL     1       0.538   8.291  19.636  0.00  0.00    +0.155 HD
BRANCH  26  33
ATOM     30  C   UNL     1       4.254   5.554  18.620  0.00  0.00    +0.037 A 
ATOM     31  C   UNL     1       4.173   6.572  17.665  0.00  0.00    -0.048 A 
ATOM     32  C   UNL     1       3.211   7.583  17.784  0.00  0.00    -0.040 A 
ATOM     33  C   UNL     1       2.313   7.583  18.852  0.00  0.00    +0.034 A 
ATOM     34  C   UNL     1       2.386   6.551  19.798  0.00  0.00    -0.040 A 
ATOM     35  C   UNL     1       3.348   5.541  19.685  0.00  0.00    -0.048 A 
ATOM     36  H   UNL     1       4.860   6.587  16.820  0.00  0.00    +0.063 HD
ATOM     37  H   UNL     1       3.188   8.351  17.016  0.00  0.00    +0.064 HD
ATOM     38  H   UNL     1       1.690   6.514  20.634  0.00  0.00    +0.064 HD
ATOM     39  H   UNL     1       3.359   4.741  20.420  0.00  0.00    +0.063 HD
BRANCH  30  41
ATOM     40  N   UNL     1       5.262   3.444  19.315  0.00  0.00    -0.325 N 
ATOM     41  C   UNL     1       5.292   4.503  18.451  0.00  0.00    +0.242 C 
ATOM     42  O   UNL     1       6.164   4.590  17.597  0.00  0.00    -0.270 OA
ATOM     43  H   UNL     1       6.059   2.820  19.263  0.00  0.00    +0.145 HD
ATOM     44  H   UNL     1       4.773   3.491  20.197  0.00  0.00    +0.145 HD
ENDBRANCH  30  41
ENDBRANCH  26  33
ENDBRANCH   1  27
TORSDOF 4
ENDMDL
MODEL 5
REMARK VINA RESULT:    -8.409      1.951      2.290
REMARK INTER + INTRA:         -10.183
REMARK INTER:                 -10.241
REMARK INTRA:                   0.058
REMARK UNBOUND:                 0.192
REMARK  Name = 
REMARK  4 active torsions:
REMARK  status: ('A' for Active; 'I' for Inactive)
REMARK    1  A    between atoms: C_2  and  C_4
REMARK    2  A    between atoms: C_7  and  N_8
REMARK    3  A    between atoms: C_9  and  C_11
REMARK    4  A    between atoms: C_13  and  C_14
REMARK                            x       y       z     vdW  Elec       q    Type
REMARK                         _______ _______ _______ _____ _____    ______ ____
ROOT
ATOM      1  C   UNL     1       3.850   5.696  17.584  0.00  0.00    +0.048 A 
ATOM      2  C   UNL     1       4.619   5.717  16.418  0.00  0.00    -0.023 A 
ATOM      3  C   UNL     1       4.989   4.514  15.845  0.00  0.00    +0.074 A 
ATOM      4  N   UNL     1       4.601   3.334  16.390  0.00  0.00    -0.247 NA
ATOM      5  C   UNL     1       3.894   3.312  17.532  0.00  0.00    +0.072 A 
ATOM      6  C   UNL     1       3.555   2.080  18.075  0.00  0.00    -0.036 A 
ATOM      7  C   UNL     1       2.840   1.968  19.269  0.00  0.00    -0.060 A 
ATOM      8  C   UNL     1       2.456   3.113  19.951  0.00  0.00    -0.061 A 
ATOM      9  C   UNL     1       2.780   4.362  19.425  0.00  0.00    -0.052 A 
ATOM     10  C   UNL     1       3.488   4.480  18.201  0.00  0.00    +0.013 A 
ATOM     11  H   UNL     1       4.893   6.669  15.973  0.00  0.00    +0.065 HD
ATOM     12  H   UNL     1       3.867   1.175  17.556  0.00  0.00    +0.064 HD
ATOM     13  H   UNL     1       2.600   0.985  19.667  0.00  0.00    +0.062 HD
ATOM     14  H   UNL     1       1.918   3.037  20.891  0.00  0.00    +0.062 HD
ATOM     15  H   UNL     1       2.494   5.245  19.994  0.00  0.00    +0.062 HD
ENDROOT
BRANCH   3  16
ATOM     16  C   UNL     1       5.794   4.417  14.614  0.00  0.00    +0.018 A 
ATOM     17  C   UNL     1       5.434   3.615  13.521  0.00  0.00    -0.050 A 
ATOM     18  C   UNL     1       6.240   3.559  12.382  0.00  0.00    -0.043 A 
ATOM     19  C   UNL     1       7.399   4.313  12.359  0.00  0.00    +0.028 A 
ATOM     20  N   UNL     1       7.791   5.105  13.376  0.00  0.00    -0.263 NA
ATOM     21  C   UNL     1       6.979   5.141  14.465  0.00  0.00    +0.037 A 
ATOM     22  H   UNL     1       4.514   3.036  13.527  0.00  0.00    +0.063 HD
ATOM     23  H   UNL     1       5.965   2.944  11.533  0.00  0.00    +0.063 HD
ATOM     24  H   UNL     1       8.059   4.304  11.496  0.00  0.00    +0.083 HD
ATOM     25  H   UNL     1       7.333   5.800  15.257  0.00  0.00    +0.084 HD
ENDBRANCH   3  16
BRANCH   1  27
ATOM     26  N   UNL     1       2.305   6.971  18.908  0.00  0.00    -0.281 N 
ATOM     27  C   UNL     1       3.435   7.015  18.113  0.00  0.00    +0.249 C 
ATOM     28  O   UNL     1       4.073   7.999  17.765  0.00  0.00    -0.270 OA
ATOM     29  H   UNL     1       1.857   6.068  19.012  0.00  0.00    +0.155 HD
BRANCH  26  33
ATOM     30  C   UNL     1       0.444  10.122  21.020  0.00  0.00    +0.037 A 
ATOM     31  C   UNL     1       0.702  10.271  19.654  0.00  0.00    -0.048 A 
ATOM     32  C   UNL     1       1.312   9.239  18.929  0.00  0.00    -0.040 A 
ATOM     33  C   UNL     1       1.680   8.051  19.563  0.00  0.00    +0.034 A 
ATOM     34  C   UNL     1       1.436   7.913  20.936  0.00  0.00    -0.040 A 
ATOM     35  C   UNL     1       0.823   8.939  21.663  0.00  0.00    -0.048 A 
ATOM     36  H   UNL     1       0.429  11.192  19.142  0.00  0.00    +0.063 HD
ATOM     37  H   UNL     1       1.492   9.403  17.871  0.00  0.00    +0.064 HD
ATOM     38  H   UNL     1       1.724   7.005  21.462  0.00  0.00    +0.064 HD
ATOM     39  H   UNL     1       0.674   8.810  22.731  0.00  0.00    +0.063 HD
BRANCH  30  41
ATOM     40  N   UNL     1      -0.640  11.004  23.020  0.00  0.00    -0.325 N 
ATOM     41  C   UNL     1      -0.205  11.245  21.746  0.00  0.00    +0.242 C 
ATOM     42  O   UNL     1      -0.380  12.337  21.222  0.00  0.00    -0.270 OA
ATOM     43  H   UNL     1      -1.197  11.741  23.435  0.00  0.00    +0.145 HD
ATOM     44  H   UNL     1      -0.794  10.066  23.361  0.00  0.00    +0.145 HD
ENDBRANCH  30  41
ENDBRANCH  26  33
ENDBRANCH   1  27
TORSDOF 4
ENDMDL
MODEL 6
REMARK VINA RESULT:    -8.319      2.872     10.030
REMARK INTER + INTRA:         -10.072
REMARK INTER:                  -9.344
REMARK INTRA:                  -0.728
REMARK UNBOUND:                 0.192
REMARK  Name = 
REMARK  4 active torsions:
REMARK  status: ('A' for Active; 'I' for Inactive)
REMARK    1  A    between atoms: C_2  and  C_4
REMARK    2  A    between atoms: C_7  and  N_8
REMARK    3  A    between atoms: C_9  and  C_11
REMARK    4  A    between atoms: C_13  and  C_14
REMARK                            x       y       z     vdW  Elec       q    Type
REMARK                         _______ _______ _______ _____ _____    ______ ____
ROOT
ATOM      1  C   UNL     1       0.464  10.931  19.325  0.00  0.00    +0.048 A 
ATOM      2  C   UNL     1      -0.648  10.957  20.169  0.00  0.00    -0.023 A 
ATOM      3  C   UNL     1      -1.069  12.173  20.675  0.00  0.00    +0.074 A 
ATOM      4  N   UNL     1      -0.430  13.324  20.348  0.00  0.00    -0.247 NA
ATOM      5  C   UNL     1       0.663  13.295  19.568  0.00  0.00    +0.072 A 
ATOM      6  C   UNL     1       1.309  14.494  19.293  0.00  0.00    -0.036 A 
ATOM      7  C   UNL     1       2.463  14.550  18.509  0.00  0.00    -0.060 A 
ATOM      8  C   UNL     1       2.998  13.381  17.986  0.00  0.00    -0.061 A 
ATOM      9  C   UNL     1       2.365  12.166  18.243  0.00  0.00    -0.052 A 
ATOM     10  C   UNL     1       1.181  12.107  19.022  0.00  0.00    +0.013 A 
ATOM     11  H   UNL     1      -1.173  10.033  20.395  0.00  0.00    +0.065 HD
ATOM     12  H   UNL     1       0.907  15.413  19.713  0.00  0.00    +0.064 HD
ATOM     13  H   UNL     1       2.945  15.507  18.322  0.00  0.00    +0.062 HD
ATOM     14  H   UNL     1       3.907  13.412  17.392  0.00  0.00    +0.062 HD
ATOM     15  H   UNL     1       2.821  11.260  17.847  0.00  0.00    +0.062 HD
ENDROOT
BRANCH   3  16
ATOM     16  C   UNL     1      -2.233  12.320  21.569  0.00  0.00    +0.018 A 
ATOM     17  C   UNL     1      -2.175  12.087  22.951  0.00  0.00    -0.050 A 
ATOM     18  C   UNL     1      -3.313  12.237  23.747  0.00  0.00    -0.043 A 
ATOM     19  C   UNL     1      -4.494  12.620  23.139  0.00  0.00    +0.028 A 
ATOM     20  N   UNL     1      -4.607  12.862  21.819  0.00  0.00    -0.263 NA
ATOM     21  C   UNL     1      -3.479  12.715  21.076  0.00  0.00    +0.037 A 
ATOM     22  H   UNL     1      -1.244  11.806  23.435  0.00  0.00    +0.063 HD
ATOM     23  H   UNL     1      -3.273  12.062  24.816  0.00  0.00    +0.063 HD
ATOM     24  H   UNL     1      -5.407  12.750  23.715  0.00  0.00    +0.083 HD
ATOM     25  H   UNL     1      -3.618  12.929  20.017  0.00  0.00    +0.084 HD
ENDBRANCH   3  16
BRANCH   1  27
ATOM     26  N   UNL     1       1.746   8.911  19.529  0.00  0.00    -0.281 N 
ATOM     27  C   UNL     1       0.828   9.608  18.768  0.00  0.00    +0.249 C 
ATOM     28  O   UNL     1       0.343   9.287  17.692  0.00  0.00    -0.270 OA
ATOM     29  H   UNL     1       2.105   9.381  20.352  0.00  0.00    +0.155 HD
BRANCH  26  33
ATOM     30  C   UNL     1       3.242   5.011  18.895  0.00  0.00    +0.037 A 
ATOM     31  C   UNL     1       3.517   6.011  17.958  0.00  0.00    -0.048 A 
ATOM     32  C   UNL     1       3.038   7.313  18.147  0.00  0.00    -0.040 A 
ATOM     33  C   UNL     1       2.271   7.629  19.270  0.00  0.00    +0.034 A 
ATOM     34  C   UNL     1       1.983   6.619  20.198  0.00  0.00    -0.040 A 
ATOM     35  C   UNL     1       2.462   5.317  20.015  0.00  0.00    -0.048 A 
ATOM     36  H   UNL     1       4.108   5.784  17.071  0.00  0.00    +0.063 HD
ATOM     37  H   UNL     1       3.278   8.055  17.391  0.00  0.00    +0.064 HD
ATOM     38  H   UNL     1       1.375   6.829  21.076  0.00  0.00    +0.064 HD
ATOM     39  H   UNL     1       2.197   4.553  20.738  0.00  0.00    +0.063 HD
BRANCH  30  41
ATOM     40  N   UNL     1       4.982   3.328  19.201  0.00  0.00    -0.325 N 
ATOM     41  C   UNL     1       3.771   3.643  18.649  0.00  0.00    +0.242 C 
ATOM     42  O   UNL     1       3.172   2.835  17.952  0.00  0.00    -0.270 OA
ATOM     43  H   UNL     1       5.377   2.445  18.903  0.00  0.00    +0.145 HD
ATOM     44  H   UNL     1       5.629   4.041  19.506  0.00  0.00    +0.145 HD
ENDBRANCH  30  41
ENDBRANCH  26  33
ENDBRANCH   1  27
TORSDOF 4
ENDMDL
MODEL 7
REMARK VINA RESULT:    -7.976      3.131     10.219
REMARK INTER + INTRA:          -9.648
REMARK INTER:                  -8.903
REMARK INTRA:                  -0.746
REMARK UNBOUND:                 0.192
REMARK  Name = 
REMARK  4 active torsions:
REMARK  status: ('A' for Active; 'I' for Inactive)
REMARK    1  A    between atoms: C_2  and  C_4
REMARK    2  A    between atoms: C_7  and  N_8
REMARK    3  A    between atoms: C_9  and  C_11
REMARK    4  A    between atoms: C_13  and  C_14
REMARK                            x       y       z     vdW  Elec       q    Type
REMARK                         _______ _______ _______ _____ _____    ______ ____
ROOT
ATOM      1  C   UNL     1       0.511  11.396  19.893  0.00  0.00    +0.048 A 
ATOM      2  C   UNL     1      -0.428  11.521  20.920  0.00  0.00    -0.023 A 
ATOM      3  C   UNL     1      -0.615  12.763  21.499  0.00  0.00    +0.074 A 
ATOM      4  N   UNL     1       0.083  13.844  21.073  0.00  0.00    -0.247 NA
ATOM      5  C   UNL     1       1.014  13.717  20.111  0.00  0.00    +0.072 A 
ATOM      6  C   UNL     1       1.732  14.844  19.735  0.00  0.00    -0.036 A 
ATOM      7  C   UNL     1       2.730  14.794  18.760  0.00  0.00    -0.060 A 
ATOM      8  C   UNL     1       3.031  13.588  18.144  0.00  0.00    -0.061 A 
ATOM      9  C   UNL     1       2.321  12.444  18.500  0.00  0.00    -0.052 A 
ATOM     10  C   UNL     1       1.292  12.494  19.476  0.00  0.00    +0.013 A 
ATOM     11  H   UNL     1      -1.005  10.654  21.228  0.00  0.00    +0.065 HD
ATOM     12  H   UNL     1       1.515  15.791  20.226  0.00  0.00    +0.064 HD
ATOM     13  H   UNL     1       3.277  15.697  18.498  0.00  0.00    +0.062 HD
ATOM     14  H   UNL     1       3.820  13.535  17.399  0.00  0.00    +0.062 HD
ATOM     15  H   UNL     1       2.595  11.504  18.024  0.00  0.00    +0.062 HD
ENDROOT
BRANCH   3  16
ATOM     16  C   UNL     1      -1.580  13.012  22.585  0.00  0.00    +0.018 A 
ATOM     17  C   UNL     1      -2.694  12.194  22.827  0.00  0.00    -0.050 A 
ATOM     18  C   UNL     1      -3.578  12.484  23.868  0.00  0.00    -0.043 A 
ATOM     19  C   UNL     1      -3.328  13.594  24.654  0.00  0.00    +0.028 A 
ATOM     20  N   UNL     1      -2.272  14.410  24.472  0.00  0.00    -0.263 NA
ATOM     21  C   UNL     1      -1.428  14.095  23.455  0.00  0.00    +0.037 A 
ATOM     22  H   UNL     1      -2.883  11.309  22.225  0.00  0.00    +0.063 HD
ATOM     23  H   UNL     1      -4.439  11.853  24.062  0.00  0.00    +0.063 HD
ATOM     24  H   UNL     1      -3.986  13.862  25.476  0.00  0.00    +0.083 HD
ATOM     25  H   UNL     1      -0.587  14.779  23.352  0.00  0.00    +0.084 HD
ENDBRANCH   3  16
BRANCH   1  27
ATOM     26  N   UNL     1       1.519   9.216  19.901  0.00  0.00    -0.281 N 
ATOM     27  C   UNL     1       0.620  10.056  19.271  0.00  0.00    +0.249 C 
ATOM     28  O   UNL     1      -0.029   9.841  18.257  0.00  0.00    -0.270 OA
ATOM     29  H   UNL     1       2.035   9.605  20.682  0.00  0.00    +0.155 HD
BRANCH  26  33
ATOM     30  C   UNL     1       2.390   5.176  19.022  0.00  0.00    +0.037 A 
ATOM     31  C   UNL     1       2.606   6.153  18.045  0.00  0.00    -0.048 A 
ATOM     32  C   UNL     1       2.331   7.499  18.313  0.00  0.00    -0.040 A 
ATOM     33  C   UNL     1       1.829   7.885  19.556  0.00  0.00    +0.034 A 
ATOM     34  C   UNL     1       1.597   6.902  20.528  0.00  0.00    -0.040 A 
ATOM     35  C   UNL     1       1.873   5.556  20.266  0.00  0.00    -0.048 A 
ATOM     36  H   UNL     1       2.991   5.872  17.066  0.00  0.00    +0.063 HD
ATOM     37  H   UNL     1       2.515   8.220  17.521  0.00  0.00    +0.064 HD
ATOM     38  H   UNL     1       1.191   7.168  21.501  0.00  0.00    +0.064 HD
ATOM     39  H   UNL     1       1.655   4.816  21.030  0.00  0.00    +0.063 HD
BRANCH  30  41
ATOM     40  N   UNL     1       2.103   3.232  17.577  0.00  0.00    -0.325 N 
ATOM     41  C   UNL     1       2.696   3.760  18.691  0.00  0.00    +0.242 C 
ATOM     42  O   UNL     1       3.421   3.074  19.398  0.00  0.00    -0.270 OA
ATOM     43  H   UNL     1       2.220   2.234  17.456  0.00  0.00    +0.145 HD
ATOM     44  H   UNL     1       1.285   3.652  17.160  0.00  0.00    +0.145 HD
ENDBRANCH  30  41
ENDBRANCH  26  33
ENDBRANCH   1  27
TORSDOF 4
ENDMDL
MODEL 8
REMARK VINA RESULT:    -7.815      2.856      9.061
REMARK INTER + INTRA:          -9.450
REMARK INTER:                  -9.034
REMARK INTRA:                  -0.416
REMARK UNBOUND:                 0.192
REMARK  Name = 
REMARK  4 active torsions:
REMARK  status: ('A' for Active; 'I' for Inactive)
REMARK    1  A    between atoms: C_2  and  C_4
REMARK    2  A    between atoms: C_7  and  N_8
REMARK    3  A    between atoms: C_9  and  C_11
REMARK    4  A    between atoms: C_13  and  C_14
REMARK                            x       y       z     vdW  Elec       q    Type
REMARK                         _______ _______ _______ _____ _____    ______ ____
ROOT
ATOM      1  C   UNL     1       0.872  10.194  18.710  0.00  0.00    +0.048 A 
ATOM      2  C   UNL     1       1.563  11.131  19.481  0.00  0.00    -0.023 A 
ATOM      3  C   UNL     1       0.900  12.276  19.885  0.00  0.00    +0.074 A 
ATOM      4  N   UNL     1      -0.400  12.482  19.558  0.00  0.00    -0.247 NA
ATOM      5  C   UNL     1      -1.053  11.599  18.783  0.00  0.00    +0.072 A 
ATOM      6  C   UNL     1      -2.371  11.872  18.440  0.00  0.00    -0.036 A 
ATOM      7  C   UNL     1      -3.115  11.019  17.622  0.00  0.00    -0.060 A 
ATOM      8  C   UNL     1      -2.532   9.862  17.124  0.00  0.00    -0.061 A 
ATOM      9  C   UNL     1      -1.213   9.563  17.459  0.00  0.00    -0.052 A 
ATOM     10  C   UNL     1      -0.460  10.417  18.305  0.00  0.00    +0.013 A 
ATOM     11  H   UNL     1       2.593  10.938  19.766  0.00  0.00    +0.065 HD
ATOM     12  H   UNL     1      -2.830  12.786  18.812  0.00  0.00    +0.064 HD
ATOM     13  H   UNL     1      -4.142  11.270  17.368  0.00  0.00    +0.062 HD
ATOM     14  H   UNL     1      -3.096   9.202  16.471  0.00  0.00    +0.062 HD
ATOM     15  H   UNL     1      -0.769   8.665  17.031  0.00  0.00    +0.062 HD
ENDROOT
BRANCH   3  16
ATOM     16  C   UNL     1       1.527  13.328  20.705  0.00  0.00    +0.018 A 
ATOM     17  C   UNL     1       0.794  14.252  21.464  0.00  0.00    -0.050 A 
ATOM     18  C   UNL     1       1.444  15.231  22.218  0.00  0.00    -0.043 A 
ATOM     19  C   UNL     1       2.827  15.267  22.197  0.00  0.00    +0.028 A 
ATOM     20  N   UNL     1       3.582  14.402  21.492  0.00  0.00    -0.263 NA
ATOM     21  C   UNL     1       2.917  13.458  20.777  0.00  0.00    +0.037 A 
ATOM     22  H   UNL     1      -0.292  14.215  21.499  0.00  0.00    +0.063 HD
ATOM     23  H   UNL     1       0.883  15.946  22.809  0.00  0.00    +0.063 HD
ATOM     24  H   UNL     1       3.379  16.009  22.767  0.00  0.00    +0.083 HD
ATOM     25  H   UNL     1       3.569  12.779  20.231  0.00  0.00    +0.084 HD
ENDBRANCH   3  16
BRANCH   1  27
ATOM     26  N   UNL     1       1.534   7.966  19.314  0.00  0.00    -0.281 N 
ATOM     27  C   UNL     1       1.617   8.963  18.361  0.00  0.00    +0.249 C 
ATOM     28  O   UNL     1       2.264   8.960  17.323  0.00  0.00    -0.270 OA
ATOM     29  H   UNL     1       1.019   8.186  20.159  0.00  0.00    +0.155 HD
BRANCH  26  33
ATOM     30  C   UNL     1       3.219   4.092  19.315  0.00  0.00    +0.037 A 
ATOM     31  C   UNL     1       3.351   4.897  18.180  0.00  0.00    -0.048 A 
ATOM     32  C   UNL     1       2.808   6.187  18.156  0.00  0.00    -0.040 A 
ATOM     33  C   UNL     1       2.117   6.684  19.262  0.00  0.00    +0.034 A 
ATOM     34  C   UNL     1       1.971   5.868  20.392  0.00  0.00    -0.040 A 
ATOM     35  C   UNL     1       2.516   4.579  20.422  0.00  0.00    -0.048 A 
ATOM     36  H   UNL     1       3.881   4.525  17.304  0.00  0.00    +0.063 HD
ATOM     37  H   UNL     1       2.936   6.773  17.251  0.00  0.00    +0.064 HD
ATOM     38  H   UNL     1       1.425   6.220  21.265  0.00  0.00    +0.064 HD
ATOM     39  H   UNL     1       2.361   3.963  21.302  0.00  0.00    +0.063 HD
BRANCH  30  41
ATOM     40  N   UNL     1       5.044   2.569  19.868  0.00  0.00    -0.325 N 
ATOM     41  C   UNL     1       3.813   2.729  19.292  0.00  0.00    +0.242 C 
ATOM     42  O   UNL     1       3.248   1.788  18.751  0.00  0.00    -0.270 OA
ATOM     43  H   UNL     1       5.479   1.667  19.715  0.00  0.00    +0.145 HD
ATOM     44  H   UNL     1       5.658   3.352  20.038  0.00  0.00    +0.145 HD
ENDBRANCH  30  41
ENDBRANCH  26  33
ENDBRANCH   1  27
TORSDOF 4
ENDMDL
MODEL 9
REMARK VINA RESULT:    -7.768      2.802      9.376
REMARK INTER + INTRA:          -9.392
REMARK INTER:                  -8.928
REMARK INTRA:                  -0.464
REMARK UNBOUND:                 0.192
REMARK  Name = 
REMARK  4 active torsions:
REMARK  status: ('A' for Active; 'I' for Inactive)
REMARK    1  A    between atoms: C_2  and  C_4
REMARK    2  A    between atoms: C_7  and  N_8
REMARK    3  A    between atoms: C_9  and  C_11
REMARK    4  A    between atoms: C_13  and  C_14
REMARK                            x       y       z     vdW  Elec       q    Type
REMARK                         _______ _______ _______ _____ _____    ______ ____
ROOT
ATOM      1  C   UNL     1       0.489  10.635  19.684  0.00  0.00    +0.048 A 
ATOM      2  C   UNL     1      -0.746  10.451  19.058  0.00  0.00    -0.023 A 
ATOM      3  C   UNL     1      -1.421  11.561  18.583  0.00  0.00    +0.074 A 
ATOM      4  N   UNL     1      -0.892  12.803  18.703  0.00  0.00    -0.247 NA
ATOM      5  C   UNL     1       0.278  12.985  19.340  0.00  0.00    +0.072 A 
ATOM      6  C   UNL     1       0.761  14.280  19.475  0.00  0.00    -0.036 A 
ATOM      7  C   UNL     1       1.957  14.558  20.140  0.00  0.00    -0.060 A 
ATOM      8  C   UNL     1       2.693  13.522  20.695  0.00  0.00    -0.061 A 
ATOM      9  C   UNL     1       2.233  12.213  20.568  0.00  0.00    -0.052 A 
ATOM     10  C   UNL     1       1.029  11.924  19.875  0.00  0.00    +0.013 A 
ATOM     11  H   UNL     1      -1.143   9.447  18.937  0.00  0.00    +0.065 HD
ATOM     12  H   UNL     1       0.181  15.101  19.058  0.00  0.00    +0.064 HD
ATOM     13  H   UNL     1       2.299  15.587  20.233  0.00  0.00    +0.062 HD
ATOM     14  H   UNL     1       3.614  13.730  21.232  0.00  0.00    +0.062 HD
ATOM     15  H   UNL     1       2.813  11.420  21.037  0.00  0.00    +0.062 HD
ENDROOT
BRANCH   3  16
ATOM     16  C   UNL     1      -2.726  11.485  17.902  0.00  0.00    +0.018 A 
ATOM     17  C   UNL     1      -3.939  11.812  18.526  0.00  0.00    -0.050 A 
ATOM     18  C   UNL     1      -5.147  11.715  17.831  0.00  0.00    -0.043 A 
ATOM     19  C   UNL     1      -5.116  11.290  16.515  0.00  0.00    +0.028 A 
ATOM     20  N   UNL     1      -3.981  10.969  15.864  0.00  0.00    -0.263 NA
ATOM     21  C   UNL     1      -2.824  11.082  16.567  0.00  0.00    +0.037 A 
ATOM     22  H   UNL     1      -3.966  12.165  19.553  0.00  0.00    +0.063 HD
ATOM     23  H   UNL     1      -6.087  11.970  18.306  0.00  0.00    +0.063 HD
ATOM     24  H   UNL     1      -6.028  11.198  15.932  0.00  0.00    +0.083 HD
ATOM     25  H   UNL     1      -1.934  10.819  15.997  0.00  0.00    +0.084 HD
ENDBRANCH   3  16
BRANCH   1  27
ATOM     26  N   UNL     1       1.612   8.602  19.072  0.00  0.00    -0.281 N 
ATOM     27  C   UNL     1       1.189   9.404  20.115  0.00  0.00    +0.249 C 
ATOM     28  O   UNL     1       1.277   9.185  21.315  0.00  0.00    -0.270 OA
ATOM     29  H   UNL     1       1.368   8.907  18.136  0.00  0.00    +0.155 HD
BRANCH  26  33
ATOM     30  C   UNL     1       3.816   5.000  19.209  0.00  0.00    +0.037 A 
ATOM     31  C   UNL     1       2.822   5.232  20.164  0.00  0.00    -0.048 A 
ATOM     32  C   UNL     1       2.072   6.415  20.136  0.00  0.00    -0.040 A 
ATOM     33  C   UNL     1       2.315   7.384  19.162  0.00  0.00    +0.034 A 
ATOM     34  C   UNL     1       3.325   7.156  18.217  0.00  0.00    -0.040 A 
ATOM     35  C   UNL     1       4.073   5.974  18.238  0.00  0.00    -0.048 A 
ATOM     36  H   UNL     1       2.621   4.492  20.937  0.00  0.00    +0.063 HD
ATOM     37  H   UNL     1       1.312   6.548  20.900  0.00  0.00    +0.064 HD
ATOM     38  H   UNL     1       3.548   7.898  17.454  0.00  0.00    +0.064 HD
ATOM     39  H   UNL     1       4.867   5.841  17.509  0.00  0.00    +0.063 HD
BRANCH  30  41
ATOM     40  N   UNL     1       5.890   3.761  18.872  0.00  0.00    -0.325 N 
ATOM     41  C   UNL     1       4.585   3.730  19.279  0.00  0.00    +0.242 C 
ATOM     42  O   UNL     1       4.071   2.684  19.652  0.00  0.00    -0.270 OA
ATOM     43  H   UNL     1       6.343   2.858  18.801  0.00  0.00    +0.145 HD
ATOM     44  H   UNL     1       6.247   4.500  18.284  0.00  0.00    +0.145 HD
ENDBRANCH  30  41
ENDBRANCH  26  33
ENDBRANCH   1  27
TORSDOF 4
ENDMDL
MODEL 10
REMARK VINA RESULT:    -7.607      2.951      8.169
REMARK INTER + INTRA:          -9.194
REMARK INTER:                  -9.387
REMARK INTRA:                   0.194
REMARK UNBOUND:                 0.192
REMARK  Name = 
REMARK  4 active torsions:
REMARK  status: ('A' for Active; 'I' for Inactive)
REMARK    1  A    between atoms: C_2  and  C_4
REMARK    2  A    between atoms: C_7  and  N_8
REMARK    3  A    between atoms: C_9  and  C_11
REMARK    4  A    between atoms: C_13  and  C_14
REMARK                            x       y       z     vdW  Elec       q    Type
REMARK                         _______ _______ _______ _____ _____    ______ ____
ROOT
ATOM      1  C   UNL     1       3.042   6.173  18.819  0.00  0.00    +0.048 A 
ATOM      2  C   UNL     1       2.405   7.350  19.219  0.00  0.00    -0.023 A 
ATOM      3  C   UNL     1       1.678   7.344  20.396  0.00  0.00    +0.074 A 
ATOM      4  N   UNL     1       1.596   6.226  21.160  0.00  0.00    -0.247 NA
ATOM      5  C   UNL     1       2.176   5.083  20.756  0.00  0.00    +0.072 A 
ATOM      6  C   UNL     1       2.031   3.954  21.550  0.00  0.00    -0.036 A 
ATOM      7  C   UNL     1       2.583   2.722  21.194  0.00  0.00    -0.060 A 
ATOM      8  C   UNL     1       3.296   2.604  20.009  0.00  0.00    -0.061 A 
ATOM      9  C   UNL     1       3.460   3.724  19.197  0.00  0.00    -0.052 A 
ATOM     10  C   UNL     1       2.918   4.982  19.566  0.00  0.00    +0.013 A 
ATOM     11  H   UNL     1       2.507   8.247  18.616  0.00  0.00    +0.065 HD
ATOM     12  H   UNL     1       1.459   4.032  22.473  0.00  0.00    +0.064 HD
ATOM     13  H   UNL     1       2.441   1.857  21.838  0.00  0.00    +0.062 HD
ATOM     14  H   UNL     1       3.712   1.645  19.713  0.00  0.00    +0.062 HD
ATOM     15  H   UNL     1       3.998   3.600  18.258  0.00  0.00    +0.062 HD
ENDROOT
BRANCH   3  16
ATOM     16  C   UNL     1       0.971   8.528  20.917  0.00  0.00    +0.018 A 
ATOM     17  C   UNL     1       0.485   8.618  22.230  0.00  0.00    -0.050 A 
ATOM     18  C   UNL     1      -0.182   9.765  22.665  0.00  0.00    -0.043 A 
ATOM     19  C   UNL     1      -0.351  10.807  21.772  0.00  0.00    +0.028 A 
ATOM     20  N   UNL     1       0.099  10.778  20.503  0.00  0.00    -0.263 NA
ATOM     21  C   UNL     1       0.751   9.651  20.115  0.00  0.00    +0.037 A 
ATOM     22  H   UNL     1       0.634   7.810  22.941  0.00  0.00    +0.063 HD
ATOM     23  H   UNL     1      -0.557   9.842  23.680  0.00  0.00    +0.063 HD
ATOM     24  H   UNL     1      -0.864  11.720  22.063  0.00  0.00    +0.083 HD
ATOM     25  H   UNL     1       1.103   9.677  19.084  0.00  0.00    +0.084 HD
ENDBRANCH   3  16
BRANCH   1  27
ATOM     26  N   UNL     1       4.253   5.034  17.086  0.00  0.00    -0.281 N 
ATOM     27  C   UNL     1       3.853   6.260  17.584  0.00  0.00    +0.249 C 
ATOM     28  O   UNL     1       4.137   7.372  17.162  0.00  0.00    -0.270 OA
ATOM     29  H   UNL     1       3.993   4.217  17.627  0.00  0.00    +0.155 HD
BRANCH  26  33
ATOM     30  C   UNL     1       6.410   4.209  13.548  0.00  0.00    +0.037 A 
ATOM     31  C   UNL     1       6.957   5.075  14.499  0.00  0.00    -0.048 A 
ATOM     32  C   UNL     1       6.266   5.360  15.683  0.00  0.00    -0.040 A 
ATOM     33  C   UNL     1       5.015   4.791  15.926  0.00  0.00    +0.034 A 
ATOM     34  C   UNL     1       4.461   3.938  14.962  0.00  0.00    -0.040 A 
ATOM     35  C   UNL     1       5.150   3.647  13.780  0.00  0.00    -0.048 A 
ATOM     36  H   UNL     1       7.930   5.535  14.325  0.00  0.00    +0.063 HD
ATOM     37  H   UNL     1       6.733   6.040  16.390  0.00  0.00    +0.064 HD
ATOM     38  H   UNL     1       3.481   3.490  15.115  0.00  0.00    +0.064 HD
ATOM     39  H   UNL     1       4.680   3.004  13.042  0.00  0.00    +0.063 HD
BRANCH  30  41
ATOM     40  N   UNL     1       7.130   2.669  11.798  0.00  0.00    -0.325 N 
ATOM     41  C   UNL     1       7.182   3.938  12.307  0.00  0.00    +0.242 C 
ATOM     42  O   UNL     1       7.867   4.799  11.772  0.00  0.00    -0.270 OA
ATOM     43  H   UNL     1       7.771   2.482  11.037  0.00  0.00    +0.145 HD
ATOM     44  H   UNL     1       6.843   1.882  12.360  0.00  0.00    +0.145 HD
ENDBRANCH  30  41
ENDBRANCH  26  33
ENDBRANCH   1  27
TORSDOF 4
ENDMDL
MODEL 11
REMARK VINA RESULT:    -7.597      3.650     10.331
REMARK INTER + INTRA:          -9.181
REMARK INTER:                  -8.606
REMARK INTRA:                  -0.575
REMARK UNBOUND:                 0.192
REMARK  Name = 
REMARK  4 active torsions:
REMARK  status: ('A' for Active; 'I' for Inactive)
REMARK    1  A    between atoms: C_2  and  C_4
REMARK    2  A    between atoms: C_7  and  N_8
REMARK    3  A    between atoms: C_9  and  C_11
REMARK    4  A    between atoms: C_13  and  C_14
REMARK                            x       y       z     vdW  Elec       q    Type
REMARK                         _______ _______ _______ _____ _____    ______ ____
ROOT
ATOM      1  C   UNL     1      -1.107  11.812  19.981  0.00  0.00    +0.048 A 
ATOM      2  C   UNL     1      -1.037  12.469  21.211  0.00  0.00    -0.023 A 
ATOM      3  C   UNL     1      -2.182  13.061  21.713  0.00  0.00    +0.074 A 
ATOM      4  N   UNL     1      -3.356  12.994  21.038  0.00  0.00    -0.247 NA
ATOM      5  C   UNL     1      -3.415  12.395  19.836  0.00  0.00    +0.072 A 
ATOM      6  C   UNL     1      -4.630  12.386  19.163  0.00  0.00    -0.036 A 
ATOM      7  C   UNL     1      -4.773  11.804  17.901  0.00  0.00    -0.060 A 
ATOM      8  C   UNL     1      -3.676  11.219  17.285  0.00  0.00    -0.061 A 
ATOM      9  C   UNL     1      -2.447  11.211  17.942  0.00  0.00    -0.052 A 
ATOM     10  C   UNL     1      -2.302  11.783  19.232  0.00  0.00    +0.013 A 
ATOM     11  H   UNL     1      -0.099  12.486  21.758  0.00  0.00    +0.065 HD
ATOM     12  H   UNL     1      -5.491  12.858  19.631  0.00  0.00    +0.064 HD
ATOM     13  H   UNL     1      -5.738  11.824  17.402  0.00  0.00    +0.062 HD
ATOM     14  H   UNL     1      -3.772  10.782  16.295  0.00  0.00    +0.062 HD
ATOM     15  H   UNL     1      -1.595  10.772  17.425  0.00  0.00    +0.062 HD
ENDROOT
BRANCH   3  16
ATOM     16  C   UNL     1      -2.225  13.776  23.001  0.00  0.00    +0.018 A 
ATOM     17  C   UNL     1      -3.347  13.775  23.844  0.00  0.00    -0.050 A 
ATOM     18  C   UNL     1      -3.331  14.476  25.052  0.00  0.00    -0.043 A 
ATOM     19  C   UNL     1      -2.184  15.168  25.396  0.00  0.00    +0.028 A 
ATOM     20  N   UNL     1      -1.077  15.198  24.630  0.00  0.00    -0.263 NA
ATOM     21  C   UNL     1      -1.124  14.500  23.466  0.00  0.00    +0.037 A 
ATOM     22  H   UNL     1      -4.243  13.216  23.587  0.00  0.00    +0.063 HD
ATOM     23  H   UNL     1      -4.194  14.476  25.709  0.00  0.00    +0.063 HD
ATOM     24  H   UNL     1      -2.123  15.728  26.325  0.00  0.00    +0.083 HD
ATOM     25  H   UNL     1      -0.204  14.548  22.885  0.00  0.00    +0.084 HD
ENDBRANCH   3  16
BRANCH   1  27
ATOM     26  N   UNL     1       0.103   9.768  19.626  0.00  0.00    -0.281 N 
ATOM     27  C   UNL     1       0.135  11.146  19.527  0.00  0.00    +0.249 C 
ATOM     28  O   UNL     1       1.068  11.854  19.172  0.00  0.00    -0.270 OA
ATOM     29  H   UNL     1      -0.732   9.360  20.030  0.00  0.00    +0.155 HD
BRANCH  26  33
ATOM     30  C   UNL     1       3.159   7.131  18.378  0.00  0.00    +0.037 A 
ATOM     31  C   UNL     1       2.643   7.019  19.673  0.00  0.00    -0.048 A 
ATOM     32  C   UNL     1       1.625   7.876  20.109  0.00  0.00    -0.040 A 
ATOM     33  C   UNL     1       1.119   8.862  19.260  0.00  0.00    +0.034 A 
ATOM     34  C   UNL     1       1.651   8.983  17.970  0.00  0.00    -0.040 A 
ATOM     35  C   UNL     1       2.665   8.126  17.528  0.00  0.00    -0.048 A 
ATOM     36  H   UNL     1       3.029   6.261  20.353  0.00  0.00    +0.063 HD
ATOM     37  H   UNL     1       1.258   7.749  21.123  0.00  0.00    +0.064 HD
ATOM     38  H   UNL     1       1.288   9.751  17.289  0.00  0.00    +0.064 HD
ATOM     39  H   UNL     1       3.075   8.265  16.532  0.00  0.00    +0.063 HD
BRANCH  30  41
ATOM     40  N   UNL     1       4.750   5.361  18.915  0.00  0.00    -0.325 N 
ATOM     41  C   UNL     1       4.239   6.198  17.962  0.00  0.00    +0.242 C 
ATOM     42  O   UNL     1       4.685   6.195  16.822  0.00  0.00    -0.270 OA
ATOM     43  H   UNL     1       5.573   4.839  18.637  0.00  0.00    +0.145 HD
ATOM     44  H   UNL     1       4.635   5.544  19.901  0.00  0.00    +0.145 HD
ENDBRANCH  30  41
ENDBRANCH  26  33
ENDBRANCH   1  27
TORSDOF 4
ENDMDL
MODEL 12
REMARK VINA RESULT:    -7.394      2.677      9.082
REMARK INTER + INTRA:          -8.930
REMARK INTER:                  -8.457
REMARK INTRA:                  -0.473
REMARK UNBOUND:                 0.192
REMARK  Name = 
REMARK  4 active torsions:
REMARK  status: ('A' for Active; 'I' for Inactive)
REMARK    1  A    between atoms: C_2  and  C_4
REMARK    2  A    between atoms: C_7  and  N_8
REMARK    3  A    between atoms: C_9  and  C_11
REMARK    4  A    between atoms: C_13  and  C_14
REMARK                            x       y       z     vdW  Elec       q    Type
REMARK                         _______ _______ _______ _____ _____    ______ ____
ROOT
ATOM      1  C   UNL     1       0.284  10.288  18.736  0.00  0.00    +0.048 A 
ATOM      2  C   UNL     1       1.107  11.177  19.431  0.00  0.00    -0.023 A 
ATOM      3  C   UNL     1       0.549  12.333  19.946  0.00  0.00    +0.074 A 
ATOM      4  N   UNL     1      -0.773  12.597  19.797  0.00  0.00    -0.247 NA
ATOM      5  C   UNL     1      -1.557  11.761  19.095  0.00  0.00    +0.072 A 
ATOM      6  C   UNL     1      -2.896  12.092  18.934  0.00  0.00    -0.036 A 
ATOM      7  C   UNL     1      -3.774  11.290  18.202  0.00  0.00    -0.060 A 
ATOM      8  C   UNL     1      -3.309  10.128  17.605  0.00  0.00    -0.061 A 
ATOM      9  C   UNL     1      -1.971   9.771  17.756  0.00  0.00    -0.052 A 
ATOM     10  C   UNL     1      -1.080  10.572  18.516  0.00  0.00    +0.013 A 
ATOM     11  H   UNL     1       2.157  10.938  19.573  0.00  0.00    +0.065 HD
ATOM     12  H   UNL     1      -3.266  13.011  19.385  0.00  0.00    +0.064 HD
ATOM     13  H   UNL     1      -4.815  11.587  18.091  0.00  0.00    +0.062 HD
ATOM     14  H   UNL     1      -3.980   9.508  17.016  0.00  0.00    +0.062 HD
ATOM     15  H   UNL     1      -1.623   8.870  17.253  0.00  0.00    +0.062 HD
ENDROOT
BRANCH   3  16
ATOM     16  C   UNL     1       1.320  13.338  20.700  0.00  0.00    +0.018 A 
ATOM     17  C   UNL     1       2.720  13.429  20.653  0.00  0.00    -0.050 A 
ATOM     18  C   UNL     1       3.396  14.399  21.394  0.00  0.00    -0.043 A 
ATOM     19  C   UNL     1       2.654  15.267  22.174  0.00  0.00    +0.028 A 
ATOM     20  N   UNL     1       1.310  15.231  22.253  0.00  0.00    -0.263 NA
ATOM     21  C   UNL     1       0.683  14.279  21.513  0.00  0.00    +0.037 A 
ATOM     22  H   UNL     1       3.305  12.762  20.025  0.00  0.00    +0.063 HD
ATOM     23  H   UNL     1       4.477  14.476  21.359  0.00  0.00    +0.063 HD
ATOM     24  H   UNL     1       3.134  16.039  22.769  0.00  0.00    +0.083 HD
ATOM     25  H   UNL     1      -0.402  14.294  21.604  0.00  0.00    +0.084 HD
ENDBRANCH   3  16
BRANCH   1  27
ATOM     26  N   UNL     1       1.676   8.394  19.227  0.00  0.00    -0.281 N 
ATOM     27  C   UNL     1       0.926   9.041  18.263  0.00  0.00    +0.249 C 
ATOM     28  O   UNL     1       0.789   8.736  17.087  0.00  0.00    -0.270 OA
ATOM     29  H   UNL     1       1.746   8.849  20.130  0.00  0.00    +0.155 HD
BRANCH  26  33
ATOM     30  C   UNL     1       3.710   4.703  18.929  0.00  0.00    +0.037 A 
ATOM     31  C   UNL     1       4.061   5.751  18.072  0.00  0.00    -0.048 A 
ATOM     32  C   UNL     1       3.407   6.986  18.154  0.00  0.00    -0.040 A 
ATOM     33  C   UNL     1       2.388   7.186  19.087  0.00  0.00    +0.034 A 
ATOM     34  C   UNL     1       2.027   6.128  19.932  0.00  0.00    -0.040 A 
ATOM     35  C   UNL     1       2.680   4.893  19.856  0.00  0.00    -0.048 A 
ATOM     36  H   UNL     1       4.849   5.613  17.332  0.00  0.00    +0.063 HD
ATOM     37  H   UNL     1       3.715   7.768  17.467  0.00  0.00    +0.064 HD
ATOM     38  H   UNL     1       1.226   6.247  20.660  0.00  0.00    +0.064 HD
ATOM     39  H   UNL     1       2.357   4.086  20.506  0.00  0.00    +0.063 HD
BRANCH  30  41
ATOM     40  N   UNL     1       4.727   2.974  17.539  0.00  0.00    -0.325 N 
ATOM     41  C   UNL     1       4.433   3.411  18.802  0.00  0.00    +0.242 C 
ATOM     42  O   UNL     1       4.729   2.738  19.780  0.00  0.00    -0.270 OA
ATOM     43  H   UNL     1       5.093   2.032  17.481  0.00  0.00    +0.145 HD
ATOM     44  H   UNL     1       4.242   3.329  16.728  0.00  0.00    +0.145 HD
ENDBRANCH  30  41
ENDBRANCH  26  33
ENDBRANCH   1  27
TORSDOF 4
ENDMDL
MODEL 13
REMARK VINA RESULT:    -7.392      2.992      8.718
REMARK INTER + INTRA:          -8.928
REMARK INTER:                  -8.913
REMARK INTRA:                  -0.015
REMARK UNBOUND:                 0.192
REMARK  Name = 
REMARK  4 active torsions:
REMARK  status: ('A' for Active; 'I' for Inactive)
REMARK    1  A    between atoms: C_2  and  C_4
REMARK    2  A    between atoms: C_7  and  N_8
REMARK    3  A    between atoms: C_9  and  C_11
REMARK    4  A    between atoms: C_13  and  C_14
REMARK                            x       y       z     vdW  Elec       q    Type
REMARK                         _______ _______ _______ _____ _____    ______ ____
ROOT
ATOM      1  C   UNL     1      -0.150  10.004  19.603  0.00  0.00    +0.048 A 
ATOM      2  C   UNL     1      -0.767   9.858  18.359  0.00  0.00    -0.023 A 
ATOM      3  C   UNL     1      -1.841  10.673  18.051  0.00  0.00    +0.074 A 
ATOM      4  N   UNL     1      -2.280  11.609  18.927  0.00  0.00    -0.247 NA
ATOM      5  C   UNL     1      -1.712  11.725  20.140  0.00  0.00    +0.072 A 
ATOM      6  C   UNL     1      -2.222  12.670  21.020  0.00  0.00    -0.036 A 
ATOM      7  C   UNL     1      -1.703  12.840  22.305  0.00  0.00    -0.060 A 
ATOM      8  C   UNL     1      -0.652  12.044  22.734  0.00  0.00    -0.061 A 
ATOM      9  C   UNL     1      -0.119  11.091  21.868  0.00  0.00    -0.052 A 
ATOM     10  C   UNL     1      -0.629  10.929  20.554  0.00  0.00    +0.013 A 
ATOM     11  H   UNL     1      -0.383   9.128  17.652  0.00  0.00    +0.065 HD
ATOM     12  H   UNL     1      -3.058  13.288  20.698  0.00  0.00    +0.064 HD
ATOM     13  H   UNL     1      -2.135  13.586  22.969  0.00  0.00    +0.062 HD
ATOM     14  H   UNL     1      -0.255  12.154  23.739  0.00  0.00    +0.062 HD
ATOM     15  H   UNL     1       0.686  10.458  22.238  0.00  0.00    +0.062 HD
ENDROOT
BRANCH   3  16
ATOM     16  C   UNL     1      -2.563  10.610  16.767  0.00  0.00    +0.018 A 
ATOM     17  C   UNL     1      -2.192   9.757  15.716  0.00  0.00    -0.050 A 
ATOM     18  C   UNL     1      -2.912   9.745  14.520  0.00  0.00    -0.043 A 
ATOM     19  C   UNL     1      -3.999  10.592  14.399  0.00  0.00    +0.028 A 
ATOM     20  N   UNL     1      -4.404  11.426  15.375  0.00  0.00    -0.263 NA
ATOM     21  C   UNL     1      -3.686  11.407  16.528  0.00  0.00    +0.037 A 
ATOM     22  H   UNL     1      -1.352   9.075  15.816  0.00  0.00    +0.063 HD
ATOM     23  H   UNL     1      -2.633   9.085  13.707  0.00  0.00    +0.063 HD
ATOM     24  H   UNL     1      -4.592  10.619  13.488  0.00  0.00    +0.083 HD
ATOM     25  H   UNL     1      -4.056  12.092  17.289  0.00  0.00    +0.084 HD
ENDBRANCH   3  16
BRANCH   1  27
ATOM     26  N   UNL     1       1.372   8.338  18.780  0.00  0.00    -0.281 N 
ATOM     27  C   UNL     1       1.032   9.146  19.848  0.00  0.00    +0.249 C 
ATOM     28  O   UNL     1       1.548   9.186  20.957  0.00  0.00    -0.270 OA
ATOM     29  H   UNL     1       0.767   8.380  17.968  0.00  0.00    +0.155 HD
BRANCH  26  33
ATOM     30  C   UNL     1       4.531   5.535  18.688  0.00  0.00    +0.037 A 
ATOM     31  C   UNL     1       4.473   6.534  17.712  0.00  0.00    -0.048 A 
ATOM     32  C   UNL     1       3.440   7.480  17.724  0.00  0.00    -0.040 A 
ATOM     33  C   UNL     1       2.448   7.431  18.705  0.00  0.00    +0.034 A 
ATOM     34  C   UNL     1       2.500   6.417  19.671  0.00  0.00    -0.040 A 
ATOM     35  C   UNL     1       3.532   5.473  19.665  0.00  0.00    -0.048 A 
ATOM     36  H   UNL     1       5.233   6.586  16.934  0.00  0.00    +0.063 HD
ATOM     37  H   UNL     1       3.438   8.236  16.945  0.00  0.00    +0.064 HD
ATOM     38  H   UNL     1       1.733   6.343  20.439  0.00  0.00    +0.064 HD
ATOM     39  H   UNL     1       3.527   4.684  20.411  0.00  0.00    +0.063 HD
BRANCH  30  41
ATOM     40  N   UNL     1       5.435   3.327  19.198  0.00  0.00    -0.325 N 
ATOM     41  C   UNL     1       5.647   4.554  18.633  0.00  0.00    +0.242 C 
ATOM     42  O   UNL     1       6.729   4.835  18.136  0.00  0.00    -0.270 OA
ATOM     43  H   UNL     1       6.253   2.734  19.267  0.00  0.00    +0.145 HD
ATOM     44  H   UNL     1       4.698   3.171  19.870  0.00  0.00    +0.145 HD
ENDBRANCH  30  41
ENDBRANCH  26  33
ENDBRANCH   1  27
TORSDOF 4
ENDMDL
MODEL 14
REMARK VINA RESULT:    -7.325      2.858      8.729
REMARK INTER + INTRA:          -8.845
REMARK INTER:                  -8.355
REMARK INTRA:                  -0.490
REMARK UNBOUND:                 0.192
REMARK  Name = 
REMARK  4 active torsions:
REMARK  status: ('A' for Active; 'I' for Inactive)
REMARK    1  A    between atoms: C_2  and  C_4
REMARK    2  A    between atoms: C_7  and  N_8
REMARK    3  A    between atoms: C_9  and  C_11
REMARK    4  A    between atoms: C_13  and  C_14
REMARK                            x       y       z     vdW  Elec       q    Type
REMARK                         _______ _______ _______ _____ _____    ______ ____
ROOT
ATOM      1  C   UNL     1       0.970  10.149  18.430  0.00  0.00    +0.048 A 
ATOM      2  C   UNL     1       2.021  11.024  18.711  0.00  0.00    -0.023 A 
ATOM      3  C   UNL     1       1.727  12.345  18.997  0.00  0.00    +0.074 A 
ATOM      4  N   UNL     1       0.444  12.784  19.023  0.00  0.00    -0.247 NA
ATOM      5  C   UNL     1      -0.565  11.952  18.715  0.00  0.00    +0.072 A 
ATOM      6  C   UNL     1      -1.859  12.456  18.715  0.00  0.00    -0.036 A 
ATOM      7  C   UNL     1      -2.962  11.665  18.386  0.00  0.00    -0.060 A 
ATOM      8  C   UNL     1      -2.775  10.335  18.039  0.00  0.00    -0.061 A 
ATOM      9  C   UNL     1      -1.487   9.803  18.037  0.00  0.00    -0.052 A 
ATOM     10  C   UNL     1      -0.367  10.598  18.390  0.00  0.00    +0.013 A 
ATOM     11  H   UNL     1       3.042  10.652  18.721  0.00  0.00    +0.065 HD
ATOM     12  H   UNL     1      -2.013  13.503  18.968  0.00  0.00    +0.064 HD
ATOM     13  H   UNL     1      -3.959  12.098  18.389  0.00  0.00    +0.062 HD
ATOM     14  H   UNL     1      -3.625   9.716  17.762  0.00  0.00    +0.062 HD
ATOM     15  H   UNL     1      -1.364   8.765  17.733  0.00  0.00    +0.062 HD
ENDROOT
BRANCH   3  16
ATOM     16  C   UNL     1       2.754  13.353  19.314  0.00  0.00    +0.018 A 
ATOM     17  C   UNL     1       3.026  13.792  20.618  0.00  0.00    -0.050 A 
ATOM     18  C   UNL     1       4.009  14.755  20.856  0.00  0.00    -0.043 A 
ATOM     19  C   UNL     1       4.707  15.263  19.775  0.00  0.00    +0.028 A 
ATOM     20  N   UNL     1       4.493  14.875  18.503  0.00  0.00    -0.263 NA
ATOM     21  C   UNL     1       3.535  13.931  18.309  0.00  0.00    +0.037 A 
ATOM     22  H   UNL     1       2.494  13.381  21.472  0.00  0.00    +0.063 HD
ATOM     23  H   UNL     1       4.226  15.096  21.862  0.00  0.00    +0.063 HD
ATOM     24  H   UNL     1       5.481  16.014  19.908  0.00  0.00    +0.083 HD
ATOM     25  H   UNL     1       3.404  13.644  17.267  0.00  0.00    +0.084 HD
ENDBRANCH   3  16
BRANCH   1  27
ATOM     26  N   UNL     1       1.915   8.114  19.286  0.00  0.00    -0.281 N 
ATOM     27  C   UNL     1       1.345   8.736  18.192  0.00  0.00    +0.249 C 
ATOM     28  O   UNL     1       1.175   8.280  17.070  0.00  0.00    -0.270 OA
ATOM     29  H   UNL     1       2.057   8.685  20.112  0.00  0.00    +0.155 HD
BRANCH  26  33
ATOM     30  C   UNL     1       3.348   4.142  19.419  0.00  0.00    +0.037 A 
ATOM     31  C   UNL     1       2.417   4.567  20.371  0.00  0.00    -0.048 A 
ATOM     32  C   UNL     1       1.922   5.876  20.346  0.00  0.00    -0.040 A 
ATOM     33  C   UNL     1       2.358   6.779  19.374  0.00  0.00    +0.034 A 
ATOM     34  C   UNL     1       3.304   6.355  18.432  0.00  0.00    -0.040 A 
ATOM     35  C   UNL     1       3.799   5.046  18.452  0.00  0.00    -0.048 A 
ATOM     36  H   UNL     1       2.069   3.880  21.142  0.00  0.00    +0.063 HD
ATOM     37  H   UNL     1       1.201   6.159  21.107  0.00  0.00    +0.064 HD
ATOM     38  H   UNL     1       3.676   7.038  17.672  0.00  0.00    +0.064 HD
ATOM     39  H   UNL     1       4.552   4.758  17.724  0.00  0.00    +0.063 HD
BRANCH  30  41
ATOM     40  N   UNL     1       5.182   2.559  19.710  0.00  0.00    -0.325 N 
ATOM     41  C   UNL     1       3.845   2.742  19.488  0.00  0.00    +0.242 C 
ATOM     42  O   UNL     1       3.102   1.785  19.318  0.00  0.00    -0.270 OA
ATOM     43  H   UNL     1       5.510   1.606  19.614  0.00  0.00    +0.145 HD
ATOM     44  H   UNL     1       5.854   3.295  19.547  0.00  0.00    +0.145 HD
ENDBRANCH  30  41
ENDBRANCH  26  33
ENDBRANCH   1  27
TORSDOF 4
ENDMDL
MODEL 15
REMARK VINA RESULT:    -7.312      3.087      8.541
REMARK INTER + INTRA:          -8.829
REMARK INTER:                  -8.280
REMARK INTRA:                  -0.549
REMARK UNBOUND:                 0.192
REMARK  Name = 
REMARK  4 active torsions:
REMARK  status: ('A' for Active; 'I' for Inactive)
REMARK    1  A    between atoms: C_2  and  C_4
REMARK    2  A    between atoms: C_7  and  N_8
REMARK    3  A    between atoms: C_9  and  C_11
REMARK    4  A    between atoms: C_13  and  C_14
REMARK                            x       y       z     vdW  Elec       q    Type
REMARK                         _______ _______ _______ _____ _____    ______ ____
ROOT
ATOM      1  C   UNL     1       1.420   9.403  19.645  0.00  0.00    +0.048 A 
ATOM      2  C   UNL     1       1.908  10.506  18.941  0.00  0.00    -0.023 A 
ATOM      3  C   UNL     1       1.659  11.772  19.439  0.00  0.00    +0.074 A 
ATOM      4  N   UNL     1       0.970  11.946  20.594  0.00  0.00    -0.247 NA
ATOM      5  C   UNL     1       0.467  10.887  21.250  0.00  0.00    +0.072 A 
ATOM      6  C   UNL     1      -0.267  11.115  22.407  0.00  0.00    -0.036 A 
ATOM      7  C   UNL     1      -0.841  10.073  23.137  0.00  0.00    -0.060 A 
ATOM      8  C   UNL     1      -0.691   8.764  22.703  0.00  0.00    -0.061 A 
ATOM      9  C   UNL     1       0.045   8.508  21.548  0.00  0.00    -0.052 A 
ATOM     10  C   UNL     1       0.648   9.562  20.814  0.00  0.00    +0.013 A 
ATOM     11  H   UNL     1       2.488  10.352  18.036  0.00  0.00    +0.065 HD
ATOM     12  H   UNL     1      -0.404  12.140  22.745  0.00  0.00    +0.064 HD
ATOM     13  H   UNL     1      -1.416  10.292  24.034  0.00  0.00    +0.062 HD
ATOM     14  H   UNL     1      -1.152   7.948  23.252  0.00  0.00    +0.062 HD
ATOM     15  H   UNL     1       0.124   7.475  21.211  0.00  0.00    +0.062 HD
ENDROOT
BRANCH   3  16
ATOM     16  C   UNL     1       2.130  13.006  18.783  0.00  0.00    +0.018 A 
ATOM     17  C   UNL     1       1.299  14.107  18.527  0.00  0.00    -0.050 A 
ATOM     18  C   UNL     1       1.801  15.248  17.898  0.00  0.00    -0.043 A 
ATOM     19  C   UNL     1       3.135  15.265  17.535  0.00  0.00    +0.028 A 
ATOM     20  N   UNL     1       3.981  14.242  17.762  0.00  0.00    -0.263 NA
ATOM     21  C   UNL     1       3.461  13.151  18.382  0.00  0.00    +0.037 A 
ATOM     22  H   UNL     1       0.255  14.105  18.829  0.00  0.00    +0.063 HD
ATOM     23  H   UNL     1       1.164  16.103  17.701  0.00  0.00    +0.063 HD
ATOM     24  H   UNL     1       3.573  16.130  17.043  0.00  0.00    +0.083 HD
ATOM     25  H   UNL     1       4.183  12.353  18.550  0.00  0.00    +0.084 HD
ENDBRANCH   3  16
BRANCH   1  27
ATOM     26  N   UNL     1       2.424   7.249  19.992  0.00  0.00    -0.281 N 
ATOM     27  C   UNL     1       1.772   8.073  19.095  0.00  0.00    +0.249 C 
ATOM     28  O   UNL     1       1.514   7.853  17.920  0.00  0.00    -0.270 OA
ATOM     29  H   UNL     1       2.631   7.642  20.903  0.00  0.00    +0.155 HD
BRANCH  26  33
ATOM     30  C   UNL     1       3.615   3.238  19.408  0.00  0.00    +0.037 A 
ATOM     31  C   UNL     1       4.409   4.270  18.899  0.00  0.00    -0.048 A 
ATOM     32  C   UNL     1       4.041   5.608  19.085  0.00  0.00    -0.040 A 
ATOM     33  C   UNL     1       2.869   5.930  19.772  0.00  0.00    +0.034 A 
ATOM     34  C   UNL     1       2.066   4.892  20.264  0.00  0.00    -0.040 A 
ATOM     35  C   UNL     1       2.433   3.554  20.085  0.00  0.00    -0.048 A 
ATOM     36  H   UNL     1       5.324   4.040  18.355  0.00  0.00    +0.063 HD
ATOM     37  H   UNL     1       4.690   6.373  18.670  0.00  0.00    +0.064 HD
ATOM     38  H   UNL     1       1.139   5.110  20.791  0.00  0.00    +0.064 HD
ATOM     39  H   UNL     1       1.774   2.774  20.455  0.00  0.00    +0.063 HD
BRANCH  30  41
ATOM     40  N   UNL     1       5.077   1.362  19.954  0.00  0.00    -0.325 N 
ATOM     41  C   UNL     1       4.049   1.833  19.185  0.00  0.00    +0.242 C 
ATOM     42  O   UNL     1       3.536   1.128  18.327  0.00  0.00    -0.270 OA
ATOM     43  H   UNL     1       5.439   0.455  19.685  0.00  0.00    +0.145 HD
ATOM     44  H   UNL     1       5.711   1.985  20.434  0.00  0.00    +0.145 HD
ENDBRANCH  30  41
ENDBRANCH  26  33
ENDBRANCH   1  27
TORSDOF 4
ENDMDL
MODEL 16
REMARK VINA RESULT:    -7.094      2.843      3.320
REMARK INTER + INTRA:          -8.561
REMARK INTER:                  -8.579
REMARK INTRA:                   0.018
REMARK UNBOUND:                 0.192
REMARK  Name = 
REMARK  4 active torsions:
REMARK  status: ('A' for Active; 'I' for Inactive)
REMARK    1  A    between atoms: C_2  and  C_4
REMARK    2  A    between atoms: C_7  and  N_8
REMARK    3  A    between atoms: C_9  and  C_11
REMARK    4  A    between atoms: C_13  and  C_14
REMARK                            x       y       z     vdW  Elec       q    Type
REMARK                         _______ _______ _______ _____ _____    ______ ____
ROOT
ATOM      1  C   UNL     1       2.248   5.579  19.784  0.00  0.00    +0.048 A 
ATOM      2  C   UNL     1       3.487   6.184  19.561  0.00  0.00    -0.023 A 
ATOM      3  C   UNL     1       4.465   5.468  18.896  0.00  0.00    +0.074 A 
ATOM      4  N   UNL     1       4.228   4.209  18.451  0.00  0.00    -0.247 NA
ATOM      5  C   UNL     1       3.050   3.612  18.700  0.00  0.00    +0.072 A 
ATOM      6  C   UNL     1       2.867   2.307  18.261  0.00  0.00    -0.036 A 
ATOM      7  C   UNL     1       1.681   1.607  18.496  0.00  0.00    -0.060 A 
ATOM      8  C   UNL     1       0.649   2.216  19.194  0.00  0.00    -0.061 A 
ATOM      9  C   UNL     1       0.806   3.527  19.640  0.00  0.00    -0.052 A 
ATOM     10  C   UNL     1       2.000   4.249  19.386  0.00  0.00    +0.013 A 
ATOM     11  H   UNL     1       3.653   7.206  19.891  0.00  0.00    +0.065 HD
ATOM     12  H   UNL     1       3.678   1.815  17.728  0.00  0.00    +0.064 HD
ATOM     13  H   UNL     1       1.578   0.583  18.144  0.00  0.00    +0.062 HD
ATOM     14  H   UNL     1      -0.269   1.673  19.399  0.00  0.00    +0.062 HD
ATOM     15  H   UNL     1      -0.007   3.973  20.211  0.00  0.00    +0.062 HD
ENDROOT
BRANCH   3  16
ATOM     16  C   UNL     1       5.805   6.008  18.601  0.00  0.00    +0.018 A 
ATOM     17  C   UNL     1       6.057   6.916  17.561  0.00  0.00    -0.050 A 
ATOM     18  C   UNL     1       7.350   7.389  17.326  0.00  0.00    -0.043 A 
ATOM     19  C   UNL     1       8.372   6.942  18.143  0.00  0.00    +0.028 A 
ATOM     20  N   UNL     1       8.188   6.077  19.159  0.00  0.00    -0.263 NA
ATOM     21  C   UNL     1       6.917   5.642  19.364  0.00  0.00    +0.037 A 
ATOM     22  H   UNL     1       5.253   7.285  16.930  0.00  0.00    +0.063 HD
ATOM     23  H   UNL     1       7.550   8.093  16.527  0.00  0.00    +0.063 HD
ATOM     24  H   UNL     1       9.395   7.281  18.001  0.00  0.00    +0.083 HD
ATOM     25  H   UNL     1       6.817   4.952  20.200  0.00  0.00    +0.084 HD
ENDBRANCH   3  16
BRANCH   1  27
ATOM     26  N   UNL     1       1.622   7.723  20.667  0.00  0.00    -0.281 N 
ATOM     27  C   UNL     1       1.224   6.418  20.445  0.00  0.00    +0.249 C 
ATOM     28  O   UNL     1       0.174   5.886  20.777  0.00  0.00    -0.270 OA
ATOM     29  H   UNL     1       2.571   7.960  20.400  0.00  0.00    +0.155 HD
BRANCH  26  33
ATOM     30  C   UNL     1      -0.599  10.923  22.303  0.00  0.00    +0.037 A 
ATOM     31  C   UNL     1      -0.558   9.700  22.980  0.00  0.00    -0.048 A 
ATOM     32  C   UNL     1       0.177   8.626  22.462  0.00  0.00    -0.040 A 
ATOM     33  C   UNL     1       0.869   8.757  21.258  0.00  0.00    +0.034 A 
ATOM     34  C   UNL     1       0.811   9.978  20.573  0.00  0.00    -0.040 A 
ATOM     35  C   UNL     1       0.082  11.056  21.088  0.00  0.00    -0.048 A 
ATOM     36  H   UNL     1      -1.096   9.575  23.918  0.00  0.00    +0.063 HD
ATOM     37  H   UNL     1       0.177   7.697  23.025  0.00  0.00    +0.064 HD
ATOM     38  H   UNL     1       1.327  10.108  19.624  0.00  0.00    +0.064 HD
ATOM     39  H   UNL     1       0.034  11.979  20.518  0.00  0.00    +0.063 HD
BRANCH  30  41
ATOM     40  N   UNL     1      -0.886  13.298  22.777  0.00  0.00    -0.325 N 
ATOM     41  C   UNL     1      -1.393  12.033  22.892  0.00  0.00    +0.242 C 
ATOM     42  O   UNL     1      -2.442  11.831  23.489  0.00  0.00    -0.270 OA
ATOM     43  H   UNL     1      -1.376  14.011  23.305  0.00  0.00    +0.145 HD
ATOM     44  H   UNL     1       0.090  13.465  22.579  0.00  0.00    +0.145 HD
ENDBRANCH  30  41
ENDBRANCH  26  33
ENDBRANCH   1  27
TORSDOF 4
ENDMDL
MODEL 17
REMARK VINA RESULT:    -7.073      3.311      8.926
REMARK INTER + INTRA:          -8.535
REMARK INTER:                  -8.630
REMARK INTRA:                   0.095
REMARK UNBOUND:                 0.192
REMARK  Name = 
REMARK  4 active torsions:
REMARK  status: ('A' for Active; 'I' for Inactive)
REMARK    1  A    between atoms: C_2  and  C_4
REMARK    2  A    between atoms: C_7  and  N_8
REMARK    3  A    between atoms: C_9  and  C_11
REMARK    4  A    between atoms: C_13  and  C_14
REMARK                            x       y       z     vdW  Elec       q    Type
REMARK                         _______ _______ _______ _____ _____    ______ ____
ROOT
ATOM      1  C   UNL     1       0.586  10.978  20.994  0.00  0.00    +0.048 A 
ATOM      2  C   UNL     1       1.581  11.634  20.266  0.00  0.00    -0.023 A 
ATOM      3  C   UNL     1       1.711  13.004  20.405  0.00  0.00    +0.074 A 
ATOM      4  N   UNL     1       0.903  13.700  21.243  0.00  0.00    -0.247 NA
ATOM      5  C   UNL     1      -0.079  13.075  21.914  0.00  0.00    +0.072 A 
ATOM      6  C   UNL     1      -0.908  13.836  22.729  0.00  0.00    -0.036 A 
ATOM      7  C   UNL     1      -1.965  13.269  23.444  0.00  0.00    -0.060 A 
ATOM      8  C   UNL     1      -2.212  11.908  23.343  0.00  0.00    -0.061 A 
ATOM      9  C   UNL     1      -1.392  11.123  22.536  0.00  0.00    -0.052 A 
ATOM     10  C   UNL     1      -0.305  11.691  21.824  0.00  0.00    +0.013 A 
ATOM     11  H   UNL     1       2.244  11.060  19.625  0.00  0.00    +0.065 HD
ATOM     12  H   UNL     1      -0.731  14.907  22.801  0.00  0.00    +0.064 HD
ATOM     13  H   UNL     1      -2.597  13.899  24.066  0.00  0.00    +0.062 HD
ATOM     14  H   UNL     1      -3.045  11.461  23.880  0.00  0.00    +0.062 HD
ATOM     15  H   UNL     1      -1.626  10.062  22.450  0.00  0.00    +0.062 HD
ENDROOT
BRANCH   3  16
ATOM     16  C   UNL     1       2.728  13.797  19.691  0.00  0.00    +0.018 A 
ATOM     17  C   UNL     1       3.784  14.456  20.337  0.00  0.00    -0.050 A 
ATOM     18  C   UNL     1       4.715  15.198  19.608  0.00  0.00    -0.043 A 
ATOM     19  C   UNL     1       4.569  15.267  18.234  0.00  0.00    +0.028 A 
ATOM     20  N   UNL     1       3.580  14.650  17.560  0.00  0.00    -0.263 NA
ATOM     21  C   UNL     1       2.696  13.931  18.300  0.00  0.00    +0.037 A 
ATOM     22  H   UNL     1       3.913  14.388  21.414  0.00  0.00    +0.063 HD
ATOM     23  H   UNL     1       5.535  15.706  20.102  0.00  0.00    +0.063 HD
ATOM     24  H   UNL     1       5.268  15.831  17.622  0.00  0.00    +0.083 HD
ATOM     25  H   UNL     1       1.920  13.445  17.710  0.00  0.00    +0.084 HD
ENDBRANCH   3  16
BRANCH   1  27
ATOM     26  N   UNL     1       1.575   8.979  20.103  0.00  0.00    -0.281 N 
ATOM     27  C   UNL     1       0.538   9.506  20.850  0.00  0.00    +0.249 C 
ATOM     28  O   UNL     1      -0.414   8.913  21.338  0.00  0.00    -0.270 OA
ATOM     29  H   UNL     1       2.228   9.642  19.701  0.00  0.00    +0.155 HD
BRANCH  26  33
ATOM     30  C   UNL     1       2.338   4.958  19.056  0.00  0.00    +0.037 A 
ATOM     31  C   UNL     1       1.846   5.253  20.332  0.00  0.00    -0.048 A 
ATOM     32  C   UNL     1       1.579   6.577  20.701  0.00  0.00    -0.040 A 
ATOM     33  C   UNL     1       1.809   7.622  19.805  0.00  0.00    +0.034 A 
ATOM     34  C   UNL     1       2.319   7.324  18.534  0.00  0.00    -0.040 A 
ATOM     35  C   UNL     1       2.584   6.002  18.159  0.00  0.00    -0.048 A 
ATOM     36  H   UNL     1       1.666   4.453  21.048  0.00  0.00    +0.063 HD
ATOM     37  H   UNL     1       1.198   6.755  21.703  0.00  0.00    +0.064 HD
ATOM     38  H   UNL     1       2.524   8.117  17.819  0.00  0.00    +0.064 HD
ATOM     39  H   UNL     1       3.005   5.809  17.177  0.00  0.00    +0.063 HD
BRANCH  30  41
ATOM     40  N   UNL     1       1.664   2.881  17.969  0.00  0.00    -0.325 N 
ATOM     41  C   UNL     1       2.606   3.537  18.711  0.00  0.00    +0.242 C 
ATOM     42  O   UNL     1       3.612   2.957  19.100  0.00  0.00    -0.270 OA
ATOM     43  H   UNL     1       1.809   1.883  17.868  0.00  0.00    +0.145 HD
ATOM     44  H   UNL     1       0.714   3.215  17.899  0.00  0.00    +0.145 HD
ENDBRANCH  30  41
ENDBRANCH  26  33
ENDBRANCH   1  27
TORSDOF 4
ENDMDL
MODEL 18
REMARK VINA RESULT:    -6.477      1.876      4.686
REMARK INTER + INTRA:          -7.799
REMARK INTER:                  -7.663
REMARK INTRA:                  -0.135
REMARK UNBOUND:                 0.192
REMARK  Name = 
REMARK  4 active torsions:
REMARK  status: ('A' for Active; 'I' for Inactive)
REMARK    1  A    between atoms: C_2  and  C_4
REMARK    2  A    between atoms: C_7  and  N_8
REMARK    3  A    between atoms: C_9  and  C_11
REMARK    4  A    between atoms: C_13  and  C_14
REMARK                            x       y       z     vdW  Elec       q    Type
REMARK                         _______ _______ _______ _____ _____    ______ ____
ROOT
ATOM      1  C   UNL     1       3.134   6.832  18.122  0.00  0.00    +0.048 A 
ATOM      2  C   UNL     1       2.673   5.982  19.130  0.00  0.00    -0.023 A 
ATOM      3  C   UNL     1       3.183   4.698  19.199  0.00  0.00    +0.074 A 
ATOM      4  N   UNL     1       4.124   4.273  18.320  0.00  0.00    -0.247 NA
ATOM      5  C   UNL     1       4.539   5.077  17.327  0.00  0.00    +0.072 A 
ATOM      6  C   UNL     1       5.474   4.584  16.426  0.00  0.00    -0.036 A 
ATOM      7  C   UNL     1       5.942   5.346  15.353  0.00  0.00    -0.060 A 
ATOM      8  C   UNL     1       5.463   6.635  15.164  0.00  0.00    -0.061 A 
ATOM      9  C   UNL     1       4.529   7.154  16.058  0.00  0.00    -0.052 A 
ATOM     10  C   UNL     1       4.066   6.391  17.160  0.00  0.00    +0.013 A 
ATOM     11  H   UNL     1       1.946   6.346  19.849  0.00  0.00    +0.065 HD
ATOM     12  H   UNL     1       5.842   3.568  16.556  0.00  0.00    +0.064 HD
ATOM     13  H   UNL     1       6.668   4.923  14.664  0.00  0.00    +0.062 HD
ATOM     14  H   UNL     1       5.806   7.228  14.321  0.00  0.00    +0.062 HD
ATOM     15  H   UNL     1       4.147   8.157  15.871  0.00  0.00    +0.062 HD
ENDROOT
BRANCH   3  16
ATOM     16  C   UNL     1       2.774   3.719  20.222  0.00  0.00    +0.018 A 
ATOM     17  C   UNL     1       1.518   3.738  20.847  0.00  0.00    -0.050 A 
ATOM     18  C   UNL     1       1.189   2.786  21.814  0.00  0.00    -0.043 A 
ATOM     19  C   UNL     1       2.130   1.826  22.139  0.00  0.00    +0.028 A 
ATOM     20  N   UNL     1       3.348   1.755  21.568  0.00  0.00    -0.263 NA
ATOM     21  C   UNL     1       3.632   2.692  20.626  0.00  0.00    +0.037 A 
ATOM     22  H   UNL     1       0.769   4.478  20.580  0.00  0.00    +0.063 HD
ATOM     23  H   UNL     1       0.219   2.794  22.298  0.00  0.00    +0.063 HD
ATOM     24  H   UNL     1       1.921   1.064  22.885  0.00  0.00    +0.083 HD
ATOM     25  H   UNL     1       4.624   2.590  20.187  0.00  0.00    +0.084 HD
ENDBRANCH   3  16
BRANCH   1  27
ATOM     26  N   UNL     1       1.536   8.392  19.006  0.00  0.00    -0.281 N 
ATOM     27  C   UNL     1       2.597   8.212  18.139  0.00  0.00    +0.249 C 
ATOM     28  O   UNL     1       3.086   9.026  17.368  0.00  0.00    -0.270 OA
ATOM     29  H   UNL     1       1.210   7.570  19.502  0.00  0.00    +0.155 HD
BRANCH  26  33
ATOM     30  C   UNL     1      -0.664  11.950  19.598  0.00  0.00    +0.037 A 
ATOM     31  C   UNL     1       0.202  11.504  20.601  0.00  0.00    -0.048 A 
ATOM     32  C   UNL     1       0.947  10.332  20.427  0.00  0.00    -0.040 A 
ATOM     33  C   UNL     1       0.829   9.586  19.254  0.00  0.00    +0.034 A 
ATOM     34  C   UNL     1      -0.053  10.026  18.258  0.00  0.00    -0.040 A 
ATOM     35  C   UNL     1      -0.797  11.199  18.425  0.00  0.00    -0.048 A 
ATOM     36  H   UNL     1       0.304  12.069  21.527  0.00  0.00    +0.063 HD
ATOM     37  H   UNL     1       1.605  10.027  21.236  0.00  0.00    +0.064 HD
ATOM     38  H   UNL     1      -0.179   9.459  17.338  0.00  0.00    +0.064 HD
ATOM     39  H   UNL     1      -1.492  11.497  17.646  0.00  0.00    +0.063 HD
BRANCH  30  41
ATOM     40  N   UNL     1      -1.041  14.318  19.144  0.00  0.00    -0.325 N 
ATOM     41  C   UNL     1      -1.434  13.201  19.829  0.00  0.00    +0.242 C 
ATOM     42  O   UNL     1      -2.362  13.249  20.625  0.00  0.00    -0.270 OA
ATOM     43  H   UNL     1      -1.494  15.179  19.425  0.00  0.00    +0.145 HD
ATOM     44  H   UNL     1      -0.122  14.395  18.734  0.00  0.00    +0.145 HD
ENDBRANCH  30  41
ENDBRANCH  26  33
ENDBRANCH   1  27
TORSDOF 4
ENDMDL
