MODEL 1
REMARK VINA RESULT:    -9.549      0.000      0.000
REMARK INTER + INTRA:         -14.508
REMARK INTER:                 -13.017
REMARK INTRA:                  -1.491
REMARK UNBOUND:                -0.772
REMARK  Name = 
REMARK  9 active torsions:
REMARK  status: ('A' for Active; 'I' for Inactive)
REMARK    1  A    between atoms: C_1  and  C_2
REMARK    2  A    between atoms: N_6  and  C_7
REMARK    3  A    between atoms: C_7  and  C_8
REMARK    4  A    between atoms: C_12  and  C_13
REMARK    5  A    between atoms: N_19  and  C_20
REMARK    6  A    between atoms: C_24  and  C_25
REMARK    7  A    between atoms: C_25  and  C_26
REMARK    8  A    between atoms: N_30  and  C_31
REMARK    9  A    between atoms: C_33  and  C_34
REMARK                            x       y       z     vdW  Elec       q    Type
REMARK                         _______ _______ _______ _____ _____    ______ ____
ROOT
ATOM      1  C   UNL     1      -0.617  11.635  19.842  0.00  0.00    -0.032 A 
ATOM      2  C   UNL     1       0.138  10.903  18.915  0.00  0.00    -0.045 A 
ATOM      3  C   UNL     1       0.736   9.733  19.349  0.00  0.00    +0.043 A 
ATOM      4  C   UNL     1       0.625   9.267  20.653  0.00  0.00    -0.006 A 
ATOM      5  C   UNL     1      -0.106   9.977  21.600  0.00  0.00    +0.061 A 
ATOM      6  C   UNL     1      -0.725  11.168  21.176  0.00  0.00    -0.045 A 
ATOM      7  C   UNL     1       1.377   7.984  20.790  0.00  0.00    +0.046 C 
ATOM      8  N   UNL     1       1.901   7.746  19.452  0.00  0.00    -0.263 N 
ATOM      9  C   UNL     1       1.553   8.785  18.581  0.00  0.00    +0.251 C 
ATOM     10  O   UNL     1       1.826   8.981  17.412  0.00  0.00    -0.270 OA
ATOM     11  H   UNL     1       0.251  11.223  17.883  0.00  0.00    +0.063 HD
ATOM     12  H   UNL     1      -1.322  11.749  21.883  0.00  0.00    +0.063 HD
ATOM     13  H   UNL     1       0.706   7.167  21.075  0.00  0.00    +0.052 HD
ATOM     14  H   UNL     1       2.206   8.096  21.496  0.00  0.00    +0.052 HD
ENDROOT
BRANCH   8  15
ATOM     15  C   UNL     1       2.670   6.593  19.131  0.00  0.00    +0.037 A 
ATOM     16  C   UNL     1       2.355   5.348  19.685  0.00  0.00    -0.040 A 
ATOM     17  C   UNL     1       3.116   4.218  19.384  0.00  0.00    -0.060 A 
ATOM     18  C   UNL     1       4.207   4.313  18.522  0.00  0.00    -0.058 A 
ATOM     19  C   UNL     1       4.569   5.531  17.921  0.00  0.00    -0.032 A 
ATOM     20  C   UNL     1       3.764   6.652  18.251  0.00  0.00    -0.036 A 
ATOM     21  H   UNL     1       1.522   5.222  20.370  0.00  0.00    +0.064 HD
ATOM     22  H   UNL     1       2.861   3.260  19.833  0.00  0.00    +0.062 HD
ATOM     23  H   UNL     1       4.779   3.411  18.318  0.00  0.00    +0.062 HD
ATOM     24  H   UNL     1       4.027   7.593  17.770  0.00  0.00    +0.064 HD
BRANCH  19  25
ATOM     25  C   UNL     1       5.818   5.683  16.909  0.00  0.00    +0.056 C 
ATOM     26  C   UNL     1       5.544   5.907  15.377  0.00  0.00    -0.034 C 
ATOM     27  C   UNL     1       5.610   4.374  15.192  0.00  0.00    -0.041 C 
ATOM     28  C   UNL     1       6.509   4.340  16.450  0.00  0.00    -0.034 C 
ATOM     29  H   UNL     1       6.338   6.453  14.849  0.00  0.00    +0.028 HD
ATOM     30  H   UNL     1       4.587   6.358  15.095  0.00  0.00    +0.028 HD
ATOM     31  H   UNL     1       4.636   3.893  15.363  0.00  0.00    +0.030 HD
ATOM     32  H   UNL     1       6.362   3.466  17.090  0.00  0.00    +0.028 HD
ATOM     33  H   UNL     1       7.582   4.420  16.230  0.00  0.00    +0.028 HD
BRANCH  25  34
ATOM     34  C   UNL     1       6.858   6.727  17.487  0.00  0.00    +0.144 A 
ATOM     35  N   UNL     1       7.014   7.945  17.003  0.00  0.00    -0.134 NA
ATOM     36  N   UNL     1       7.979   8.580  17.747  0.00  0.00    -0.138 NA
ATOM     37  C   UNL     1       8.392   7.735  18.663  0.00  0.00    +0.120 A 
ATOM     38  N   UNL     1       7.729   6.554  18.528  0.00  0.00    -0.320 N 
ATOM     39  H   UNL     1       9.148   7.928  19.411  0.00  0.00    +0.105 HD
BRANCH  38  40
ATOM     40  C   UNL     1       7.934   5.380  19.328  0.00  0.00    +0.014 C 
ATOM     41  H   UNL     1       7.837   5.641  20.384  0.00  0.00    +0.046 HD
ATOM     42  H   UNL     1       8.938   4.988  19.150  0.00  0.00    +0.046 HD
ATOM     43  H   UNL     1       7.192   4.630  19.046  0.00  0.00    +0.046 HD
ENDBRANCH  38  40
ENDBRANCH  25  34
BRANCH  27  44
ATOM     44  C   UNL     1       6.231   3.877  13.901  0.00  0.00    -0.062 C 
ATOM     45  H   UNL     1       7.024   4.553  13.571  0.00  0.00    +0.023 HD
ATOM     46  H   UNL     1       6.671   2.885  14.042  0.00  0.00    +0.023 HD
ATOM     47  H   UNL     1       5.492   3.805  13.097  0.00  0.00    +0.023 HD
ENDBRANCH  27  44
ENDBRANCH  19  25
ENDBRANCH   8  15
BRANCH   5  48
ATOM     48  C   UNL     1      -0.245   9.477  23.012  0.00  0.00    +0.418 C 
ATOM     49  F   UNL     1      -0.994  10.311  23.783  0.00  0.00    -0.166 F 
ATOM     50  F   UNL     1       0.938   9.317  23.665  0.00  0.00    -0.166 F 
ATOM     51  F   UNL     1      -0.870   8.266  23.069  0.00  0.00    -0.166 F 
ENDBRANCH   5  48
BRANCH   1  52
ATOM     52  C   UNL     1      -1.305  12.921  19.425  0.00  0.00    +0.024 C 
ATOM     53  H   UNL     1      -1.775  12.809  18.440  0.00  0.00    +0.048 HD
ATOM     54  H   UNL     1      -0.506  13.665  19.305  0.00  0.00    +0.048 HD
BRANCH  52  59
ATOM     55  C   UNL     1      -4.703  13.648  20.985  0.00  0.00    -0.031 C 
ATOM     56  C   UNL     1      -4.428  15.072  21.483  0.00  0.00    -0.048 C 
ATOM     57  C   UNL     1      -2.968  15.266  21.882  0.00  0.00    -0.040 C 
ATOM     58  C   UNL     1      -2.016  14.785  20.787  0.00  0.00    -0.001 C 
ATOM     59  N   UNL     1      -2.285  13.386  20.421  0.00  0.00    -0.298 NA
ATOM     60  C   UNL     1      -3.667  13.247  19.921  0.00  0.00    +0.002 C 
ATOM     61  H   UNL     1      -5.697  13.640  20.517  0.00  0.00    +0.031 HD
ATOM     62  H   UNL     1      -4.669  15.782  20.680  0.00  0.00    +0.027 HD
ATOM     63  H   UNL     1      -5.083  15.320  22.326  0.00  0.00    +0.027 HD
ATOM     64  H   UNL     1      -2.763  14.724  22.813  0.00  0.00    +0.028 HD
ATOM     65  H   UNL     1      -2.784  16.326  22.089  0.00  0.00    +0.028 HD
ATOM     66  H   UNL     1      -0.992  14.880  21.168  0.00  0.00    +0.043 HD
ATOM     67  H   UNL     1      -2.098  15.442  19.910  0.00  0.00    +0.043 HD
ATOM     68  H   UNL     1      -3.869  12.210  19.627  0.00  0.00    +0.043 HD
ATOM     69  H   UNL     1      -3.811  13.863  19.022  0.00  0.00    +0.043 HD
BRANCH  55  70
ATOM     70  C   UNL     1      -4.738  12.643  22.142  0.00  0.00    -0.061 C 
ATOM     71  H   UNL     1      -5.582  11.956  22.026  0.00  0.00    +0.023 HD
ATOM     72  H   UNL     1      -3.824  12.044  22.201  0.00  0.00    +0.023 HD
ATOM     73  H   UNL     1      -4.861  13.162  23.098  0.00  0.00    +0.023 HD
ENDBRANCH  55  70
ENDBRANCH  52  59
ENDBRANCH   1  52
TORSDOF 9
ENDMDL
MODEL 2
REMARK VINA RESULT:    -8.577      2.239      2.893
REMARK INTER + INTRA:         -13.110
REMARK INTER:                 -12.160
REMARK INTRA:                  -0.949
REMARK UNBOUND:                -0.772
REMARK  Name = 
REMARK  9 active torsions:
REMARK  status: ('A' for Active; 'I' for Inactive)
REMARK    1  A    between atoms: C_1  and  C_2
REMARK    2  A    between atoms: N_6  and  C_7
REMARK    3  A    between atoms: C_7  and  C_8
REMARK    4  A    between atoms: C_12  and  C_13
REMARK    5  A    between atoms: N_19  and  C_20
REMARK    6  A    between atoms: C_24  and  C_25
REMARK    7  A    between atoms: C_25  and  C_26
REMARK    8  A    between atoms: N_30  and  C_31
REMARK    9  A    between atoms: C_33  and  C_34
REMARK                            x       y       z     vdW  Elec       q    Type
REMARK                         _______ _______ _______ _____ _____    ______ ____
ROOT
ATOM      1  C   UNL     1      -0.017  10.337  21.873  0.00  0.00    -0.032 A 
ATOM      2  C   UNL     1       0.254   8.964  21.816  0.00  0.00    -0.045 A 
ATOM      3  C   UNL     1       0.918   8.482  20.702  0.00  0.00    +0.043 A 
ATOM      4  C   UNL     1       1.314   9.296  19.648  0.00  0.00    -0.006 A 
ATOM      5  C   UNL     1       1.049  10.662  19.668  0.00  0.00    +0.061 A 
ATOM      6  C   UNL     1       0.377  11.171  20.796  0.00  0.00    -0.045 A 
ATOM      7  C   UNL     1       2.007   8.471  18.613  0.00  0.00    +0.046 C 
ATOM      8  N   UNL     1       1.997   7.129  19.178  0.00  0.00    -0.263 N 
ATOM      9  C   UNL     1       1.332   7.104  20.410  0.00  0.00    +0.251 C 
ATOM     10  O   UNL     1       1.076   6.188  21.167  0.00  0.00    -0.270 OA
ATOM     11  H   UNL     1      -0.031   8.287  22.615  0.00  0.00    +0.063 HD
ATOM     12  H   UNL     1       0.162  12.240  20.861  0.00  0.00    +0.063 HD
ATOM     13  H   UNL     1       3.041   8.807  18.476  0.00  0.00    +0.052 HD
ATOM     14  H   UNL     1       1.446   8.481  17.673  0.00  0.00    +0.052 HD
ENDROOT
BRANCH   8  15
ATOM     15  C   UNL     1       2.591   6.021  18.513  0.00  0.00    +0.037 A 
ATOM     16  C   UNL     1       2.006   4.751  18.580  0.00  0.00    -0.040 A 
ATOM     17  C   UNL     1       2.594   3.659  17.941  0.00  0.00    -0.060 A 
ATOM     18  C   UNL     1       3.778   3.817  17.223  0.00  0.00    -0.058 A 
ATOM     19  C   UNL     1       4.410   5.067  17.106  0.00  0.00    -0.032 A 
ATOM     20  C   UNL     1       3.774   6.150  17.766  0.00  0.00    -0.036 A 
ATOM     21  H   UNL     1       1.090   4.572  19.134  0.00  0.00    +0.064 HD
ATOM     22  H   UNL     1       2.130   2.678  18.012  0.00  0.00    +0.062 HD
ATOM     23  H   UNL     1       4.209   2.940  16.745  0.00  0.00    +0.062 HD
ATOM     24  H   UNL     1       4.248   7.125  17.659  0.00  0.00    +0.064 HD
BRANCH  19  25
ATOM     25  C   UNL     1       5.777   5.296  16.276  0.00  0.00    +0.056 C 
ATOM     26  C   UNL     1       5.696   5.705  14.760  0.00  0.00    -0.034 C 
ATOM     27  C   UNL     1       5.757   4.202  14.402  0.00  0.00    -0.041 C 
ATOM     28  C   UNL     1       6.494   3.994  15.746  0.00  0.00    -0.034 C 
ATOM     29  H   UNL     1       6.558   6.283  14.400  0.00  0.00    +0.028 HD
ATOM     30  H   UNL     1       4.790   6.216  14.422  0.00  0.00    +0.028 HD
ATOM     31  H   UNL     1       4.762   3.736  14.397  0.00  0.00    +0.030 HD
ATOM     32  H   UNL     1       6.254   3.056  16.255  0.00  0.00    +0.028 HD
ATOM     33  H   UNL     1       7.587   4.064  15.668  0.00  0.00    +0.028 HD
BRANCH  25  34
ATOM     34  C   UNL     1       6.756   6.231  17.095  0.00  0.00    +0.144 A 
ATOM     35  N   UNL     1       7.173   7.406  16.662  0.00  0.00    -0.134 NA
ATOM     36  N   UNL     1       7.990   7.950  17.624  0.00  0.00    -0.138 NA
ATOM     37  C   UNL     1       8.056   7.094  18.618  0.00  0.00    +0.120 A 
ATOM     38  N   UNL     1       7.311   5.994  18.323  0.00  0.00    -0.320 N 
ATOM     39  H   UNL     1       8.619   7.224  19.532  0.00  0.00    +0.105 HD
BRANCH  38  40
ATOM     40  C   UNL     1       7.166   4.831  19.153  0.00  0.00    +0.014 C 
ATOM     41  H   UNL     1       6.123   4.510  19.144  0.00  0.00    +0.046 HD
ATOM     42  H   UNL     1       7.454   5.077  20.178  0.00  0.00    +0.046 HD
ATOM     43  H   UNL     1       7.817   4.043  18.768  0.00  0.00    +0.046 HD
ENDBRANCH  38  40
ENDBRANCH  25  34
BRANCH  27  44
ATOM     44  C   UNL     1       6.523   3.839  13.145  0.00  0.00    -0.062 C 
ATOM     45  H   UNL     1       7.479   4.368  13.112  0.00  0.00    +0.023 HD
ATOM     46  H   UNL     1       6.731   2.765  13.118  0.00  0.00    +0.023 HD
ATOM     47  H   UNL     1       5.962   4.096  12.241  0.00  0.00    +0.023 HD
ENDBRANCH  27  44
ENDBRANCH  19  25
ENDBRANCH   8  15
BRANCH   5  48
ATOM     48  C   UNL     1       1.483  11.557  18.539  0.00  0.00    +0.418 C 
ATOM     49  F   UNL     1       0.460  12.315  18.060  0.00  0.00    -0.166 F 
ATOM     50  F   UNL     1       1.997  10.893  17.469  0.00  0.00    -0.166 F 
ATOM     51  F   UNL     1       2.445  12.443  18.928  0.00  0.00    -0.166 F 
ENDBRANCH   5  48
BRANCH   1  52
ATOM     52  C   UNL     1      -0.734  10.928  23.072  0.00  0.00    +0.024 C 
ATOM     53  H   UNL     1      -0.015  11.245  23.838  0.00  0.00    +0.048 HD
ATOM     54  H   UNL     1      -1.314  10.106  23.512  0.00  0.00    +0.048 HD
BRANCH  52  59
ATOM     55  C   UNL     1      -1.906  14.516  22.560  0.00  0.00    -0.031 C 
ATOM     56  C   UNL     1      -3.306  14.391  23.172  0.00  0.00    -0.048 C 
ATOM     57  C   UNL     1      -3.897  12.998  22.967  0.00  0.00    -0.040 C 
ATOM     58  C   UNL     1      -2.920  11.903  23.396  0.00  0.00    -0.001 C 
ATOM     59  N   UNL     1      -1.628  12.040  22.706  0.00  0.00    -0.298 NA
ATOM     60  C   UNL     1      -1.018  13.346  23.019  0.00  0.00    +0.002 C 
ATOM     61  H   UNL     1      -1.460  15.450  22.927  0.00  0.00    +0.031 HD
ATOM     62  H   UNL     1      -3.242  14.589  24.251  0.00  0.00    +0.027 HD
ATOM     63  H   UNL     1      -3.980  15.148  22.755  0.00  0.00    +0.027 HD
ATOM     64  H   UNL     1      -4.165  12.861  21.913  0.00  0.00    +0.028 HD
ATOM     65  H   UNL     1      -4.825  12.907  23.542  0.00  0.00    +0.028 HD
ATOM     66  H   UNL     1      -3.373  10.936  23.151  0.00  0.00    +0.043 HD
ATOM     67  H   UNL     1      -2.786  11.933  24.486  0.00  0.00    +0.043 HD
ATOM     68  H   UNL     1      -0.045  13.447  22.523  0.00  0.00    +0.043 HD
ATOM     69  H   UNL     1      -0.833  13.432  24.098  0.00  0.00    +0.043 HD
BRANCH  55  70
ATOM     70  C   UNL     1      -1.965  14.611  21.032  0.00  0.00    -0.061 C 
ATOM     71  H   UNL     1      -1.134  14.059  20.582  0.00  0.00    +0.023 HD
ATOM     72  H   UNL     1      -2.895  14.205  20.624  0.00  0.00    +0.023 HD
ATOM     73  H   UNL     1      -1.884  15.654  20.708  0.00  0.00    +0.023 HD
ENDBRANCH  55  70
ENDBRANCH  52  59
ENDBRANCH   1  52
TORSDOF 9
ENDMDL
MODEL 3
REMARK VINA RESULT:    -8.539      2.702      9.909
REMARK INTER + INTRA:         -13.055
REMARK INTER:                 -12.640
REMARK INTRA:                  -0.415
REMARK UNBOUND:                -0.772
REMARK  Name = 
REMARK  9 active torsions:
REMARK  status: ('A' for Active; 'I' for Inactive)
REMARK    1  A    between atoms: C_1  and  C_2
REMARK    2  A    between atoms: N_6  and  C_7
REMARK    3  A    between atoms: C_7  and  C_8
REMARK    4  A    between atoms: C_12  and  C_13
REMARK    5  A    between atoms: N_19  and  C_20
REMARK    6  A    between atoms: C_24  and  C_25
REMARK    7  A    between atoms: C_25  and  C_26
REMARK    8  A    between atoms: N_30  and  C_31
REMARK    9  A    between atoms: C_33  and  C_34
REMARK                            x       y       z     vdW  Elec       q    Type
REMARK                         _______ _______ _______ _____ _____    ______ ____
ROOT
ATOM      1  C   UNL     1       3.283   4.171  17.865  0.00  0.00    -0.032 A 
ATOM      2  C   UNL     1       2.908   5.518  17.773  0.00  0.00    -0.045 A 
ATOM      3  C   UNL     1       2.292   6.094  18.871  0.00  0.00    +0.043 A 
ATOM      4  C   UNL     1       2.028   5.394  20.042  0.00  0.00    -0.006 A 
ATOM      5  C   UNL     1       2.376   4.052  20.159  0.00  0.00    +0.061 A 
ATOM      6  C   UNL     1       3.007   3.451  19.053  0.00  0.00    -0.045 A 
ATOM      7  C   UNL     1       1.366   6.300  21.026  0.00  0.00    +0.046 C 
ATOM      8  N   UNL     1       1.301   7.578  20.330  0.00  0.00    -0.263 N 
ATOM      9  C   UNL     1       1.824   7.476  19.035  0.00  0.00    +0.251 C 
ATOM     10  O   UNL     1       1.912   8.290  18.136  0.00  0.00    -0.270 OA
ATOM     11  H   UNL     1       3.096   6.109  16.882  0.00  0.00    +0.063 HD
ATOM     12  H   UNL     1       3.312   2.403  19.108  0.00  0.00    +0.063 HD
ATOM     13  H   UNL     1       1.975   6.403  21.931  0.00  0.00    +0.052 HD
ATOM     14  H   UNL     1       0.354   5.952  21.252  0.00  0.00    +0.052 HD
ENDROOT
BRANCH   8  15
ATOM     15  C   UNL     1       0.756   8.745  20.933  0.00  0.00    +0.037 A 
ATOM     16  C   UNL     1       0.621   8.833  22.323  0.00  0.00    -0.040 A 
ATOM     17  C   UNL     1       0.073   9.970  22.918  0.00  0.00    -0.060 A 
ATOM     18  C   UNL     1      -0.351  11.041  22.132  0.00  0.00    -0.058 A 
ATOM     19  C   UNL     1      -0.232  11.022  20.731  0.00  0.00    -0.032 A 
ATOM     20  C   UNL     1       0.337   9.848  20.171  0.00  0.00    -0.036 A 
ATOM     21  H   UNL     1       0.926   8.024  22.979  0.00  0.00    +0.064 HD
ATOM     22  H   UNL     1      -0.032  10.017  23.999  0.00  0.00    +0.062 HD
ATOM     23  H   UNL     1      -0.779  11.906  22.632  0.00  0.00    +0.062 HD
ATOM     24  H   UNL     1       0.451   9.838  19.088  0.00  0.00    +0.064 HD
BRANCH  19  25
ATOM     25  C   UNL     1      -0.701  12.243  19.785  0.00  0.00    +0.056 C 
ATOM     26  C   UNL     1       0.222  12.689  18.591  0.00  0.00    -0.034 C 
ATOM     27  C   UNL     1       0.880  13.711  19.546  0.00  0.00    -0.041 C 
ATOM     28  C   UNL     1      -0.443  13.696  20.346  0.00  0.00    -0.034 C 
ATOM     29  H   UNL     1      -0.315  13.148  17.750  0.00  0.00    +0.028 HD
ATOM     30  H   UNL     1       0.910  11.944  18.179  0.00  0.00    +0.028 HD
ATOM     31  H   UNL     1       1.714  13.272  20.113  0.00  0.00    +0.030 HD
ATOM     32  H   UNL     1      -0.321  13.793  21.428  0.00  0.00    +0.028 HD
ATOM     33  H   UNL     1      -1.167  14.455  20.020  0.00  0.00    +0.028 HD
BRANCH  25  34
ATOM     34  C   UNL     1      -2.202  12.030  19.331  0.00  0.00    +0.144 A 
ATOM     35  N   UNL     1      -3.231  12.601  19.927  0.00  0.00    -0.134 NA
ATOM     36  N   UNL     1      -4.374  12.214  19.270  0.00  0.00    -0.138 NA
ATOM     37  C   UNL     1      -4.016  11.413  18.293  0.00  0.00    +0.120 A 
ATOM     38  N   UNL     1      -2.665  11.255  18.303  0.00  0.00    -0.320 N 
ATOM     39  H   UNL     1      -4.681  10.937  17.586  0.00  0.00    +0.105 HD
BRANCH  38  40
ATOM     40  C   UNL     1      -1.910  10.427  17.406  0.00  0.00    +0.014 C 
ATOM     41  H   UNL     1      -1.006  10.957  17.099  0.00  0.00    +0.046 HD
ATOM     42  H   UNL     1      -2.511  10.207  16.520  0.00  0.00    +0.046 HD
ATOM     43  H   UNL     1      -1.656   9.496  17.918  0.00  0.00    +0.046 HD
ENDBRANCH  38  40
ENDBRANCH  25  34
BRANCH  27  44
ATOM     44  C   UNL     1       1.289  15.037  18.935  0.00  0.00    -0.062 C 
ATOM     45  H   UNL     1       2.347  15.022  18.659  0.00  0.00    +0.023 HD
ATOM     46  H   UNL     1       0.708  15.239  18.029  0.00  0.00    +0.023 HD
ATOM     47  H   UNL     1       1.130  15.868  19.628  0.00  0.00    +0.023 HD
ENDBRANCH  27  44
ENDBRANCH  19  25
ENDBRANCH   8  15
BRANCH   5  48
ATOM     48  C   UNL     1       2.107   3.285  21.426  0.00  0.00    +0.418 C 
ATOM     49  F   UNL     1       0.813   2.876  21.515  0.00  0.00    -0.166 F 
ATOM     50  F   UNL     1       2.364   3.984  22.565  0.00  0.00    -0.166 F 
ATOM     51  F   UNL     1       2.857   2.149  21.506  0.00  0.00    -0.166 F 
ENDBRANCH   5  48
BRANCH   1  52
ATOM     52  C   UNL     1       3.970   3.486  16.699  0.00  0.00    +0.024 C 
ATOM     53  H   UNL     1       3.381   3.597  15.780  0.00  0.00    +0.048 HD
ATOM     54  H   UNL     1       3.972   2.414  16.937  0.00  0.00    +0.048 HD
BRANCH  52  59
ATOM     55  C   UNL     1       7.135   5.531  17.257  0.00  0.00    -0.031 C 
ATOM     56  C   UNL     1       7.442   5.884  15.797  0.00  0.00    -0.048 C 
ATOM     57  C   UNL     1       6.995   4.785  14.837  0.00  0.00    -0.040 C 
ATOM     58  C   UNL     1       5.547   4.366  15.095  0.00  0.00    -0.001 C 
ATOM     59  N   UNL     1       5.349   3.962  16.495  0.00  0.00    -0.298 NA
ATOM     60  C   UNL     1       5.670   5.082  17.400  0.00  0.00    +0.002 C 
ATOM     61  H   UNL     1       7.276   6.437  17.861  0.00  0.00    +0.031 HD
ATOM     62  H   UNL     1       6.914   6.811  15.537  0.00  0.00    +0.027 HD
ATOM     63  H   UNL     1       8.511   6.084  15.664  0.00  0.00    +0.027 HD
ATOM     64  H   UNL     1       7.653   3.914  14.938  0.00  0.00    +0.028 HD
ATOM     65  H   UNL     1       7.096   5.138  13.805  0.00  0.00    +0.028 HD
ATOM     66  H   UNL     1       5.318   3.526  14.429  0.00  0.00    +0.043 HD
ATOM     67  H   UNL     1       4.870   5.188  14.825  0.00  0.00    +0.043 HD
ATOM     68  H   UNL     1       5.505   4.794  18.445  0.00  0.00    +0.043 HD
ATOM     69  H   UNL     1       5.007   5.936  17.199  0.00  0.00    +0.043 HD
BRANCH  55  70
ATOM     70  C   UNL     1       8.101   4.470  17.796  0.00  0.00    -0.061 C 
ATOM     71  H   UNL     1       8.879   4.938  18.407  0.00  0.00    +0.023 HD
ATOM     72  H   UNL     1       7.596   3.721  18.414  0.00  0.00    +0.023 HD
ATOM     73  H   UNL     1       8.596   3.947  16.972  0.00  0.00    +0.023 HD
ENDBRANCH  55  70
ENDBRANCH  52  59
ENDBRANCH   1  52
TORSDOF 9
ENDMDL
MODEL 4
REMARK VINA RESULT:    -8.416      0.856      1.668
REMARK INTER + INTRA:         -12.877
REMARK INTER:                 -12.141
REMARK INTRA:                  -0.736
REMARK UNBOUND:                -0.772
REMARK  Name = 
REMARK  9 active torsions:
REMARK  status: ('A' for Active; 'I' for Inactive)
REMARK    1  A    between atoms: C_1  and  C_2
REMARK    2  A    between atoms: N_6  and  C_7
REMARK    3  A    between atoms: C_7  and  C_8
REMARK    4  A    between atoms: C_12  and  C_13
REMARK    5  A    between atoms: N_19  and  C_20
REMARK    6  A    between atoms: C_24  and  C_25
REMARK    7  A    between atoms: C_25  and  C_26
REMARK    8  A    between atoms: N_30  and  C_31
REMARK    9  A    between atoms: C_33  and  C_34
REMARK                            x       y       z     vdW  Elec       q    Type
REMARK                         _______ _______ _______ _____ _____    ______ ____
ROOT
ATOM      1  C   UNL     1       0.023  11.812  19.945  0.00  0.00    -0.032 A 
ATOM      2  C   UNL     1       0.621  11.023  18.954  0.00  0.00    -0.045 A 
ATOM      3  C   UNL     1       1.020   9.744  19.298  0.00  0.00    +0.043 A 
ATOM      4  C   UNL     1       0.861   9.222  20.576  0.00  0.00    -0.006 A 
ATOM      5  C   UNL     1       0.284   9.984  21.587  0.00  0.00    +0.061 A 
ATOM      6  C   UNL     1      -0.133  11.287  21.252  0.00  0.00    -0.045 A 
ATOM      7  C   UNL     1       1.388   7.825  20.614  0.00  0.00    +0.046 C 
ATOM      8  N   UNL     1       1.832   7.586  19.247  0.00  0.00    -0.263 N 
ATOM      9  C   UNL     1       1.647   8.722  18.450  0.00  0.00    +0.251 C 
ATOM     10  O   UNL     1       1.923   8.942  17.286  0.00  0.00    -0.270 OA
ATOM     11  H   UNL     1       0.763  11.383  17.939  0.00  0.00    +0.063 HD
ATOM     12  H   UNL     1      -0.606  11.915  22.012  0.00  0.00    +0.063 HD
ATOM     13  H   UNL     1       0.594   7.116  20.873  0.00  0.00    +0.052 HD
ATOM     14  H   UNL     1       2.240   7.751  21.297  0.00  0.00    +0.052 HD
ENDROOT
BRANCH   8  15
ATOM     15  C   UNL     1       2.387   6.343  18.835  0.00  0.00    +0.037 A 
ATOM     16  C   UNL     1       1.738   5.139  19.131  0.00  0.00    -0.040 A 
ATOM     17  C   UNL     1       2.286   3.917  18.741  0.00  0.00    -0.060 A 
ATOM     18  C   UNL     1       3.494   3.876  18.046  0.00  0.00    -0.058 A 
ATOM     19  C   UNL     1       4.190   5.050  17.707  0.00  0.00    -0.032 A 
ATOM     20  C   UNL     1       3.593   6.269  18.118  0.00  0.00    -0.036 A 
ATOM     21  H   UNL     1       0.801   5.115  19.678  0.00  0.00    +0.064 HD
ATOM     22  H   UNL     1       1.771   2.991  18.988  0.00  0.00    +0.062 HD
ATOM     23  H   UNL     1       3.892   2.904  17.767  0.00  0.00    +0.062 HD
ATOM     24  H   UNL     1       4.118   7.181  17.837  0.00  0.00    +0.064 HD
BRANCH  19  25
ATOM     25  C   UNL     1       5.586   5.048  16.895  0.00  0.00    +0.056 C 
ATOM     26  C   UNL     1       5.649   5.715  15.472  0.00  0.00    -0.034 C 
ATOM     27  C   UNL     1       5.321   4.333  14.864  0.00  0.00    -0.041 C 
ATOM     28  C   UNL     1       5.947   3.713  16.135  0.00  0.00    -0.034 C 
ATOM     29  H   UNL     1       6.641   6.098  15.195  0.00  0.00    +0.028 HD
ATOM     30  H   UNL     1       4.917   6.496  15.247  0.00  0.00    +0.028 HD
ATOM     31  H   UNL     1       4.238   4.152  14.804  0.00  0.00    +0.030 HD
ATOM     32  H   UNL     1       5.458   2.799  16.483  0.00  0.00    +0.028 HD
ATOM     33  H   UNL     1       7.022   3.506  16.043  0.00  0.00    +0.028 HD
BRANCH  25  34
ATOM     34  C   UNL     1       6.759   5.540  17.837  0.00  0.00    +0.144 A 
ATOM     35  N   UNL     1       7.401   4.749  18.675  0.00  0.00    -0.134 NA
ATOM     36  N   UNL     1       8.361   5.495  19.317  0.00  0.00    -0.138 NA
ATOM     37  C   UNL     1       8.277   6.723  18.860  0.00  0.00    +0.120 A 
ATOM     38  N   UNL     1       7.276   6.803  17.943  0.00  0.00    -0.320 N 
ATOM     39  H   UNL     1       8.896   7.556  19.163  0.00  0.00    +0.105 HD
BRANCH  38  40
ATOM     40  C   UNL     1       6.865   7.991  17.250  0.00  0.00    +0.014 C 
ATOM     41  H   UNL     1       7.741   8.608  17.041  0.00  0.00    +0.046 HD
ATOM     42  H   UNL     1       6.173   8.558  17.877  0.00  0.00    +0.046 HD
ATOM     43  H   UNL     1       6.366   7.701  16.323  0.00  0.00    +0.046 HD
ENDBRANCH  38  40
ENDBRANCH  25  34
BRANCH  27  44
ATOM     44  C   UNL     1       5.991   4.000  13.545  0.00  0.00    -0.062 C 
ATOM     45  H   UNL     1       6.247   2.938  13.502  0.00  0.00    +0.023 HD
ATOM     46  H   UNL     1       5.321   4.219  12.708  0.00  0.00    +0.023 HD
ATOM     47  H   UNL     1       6.909   4.577  13.401  0.00  0.00    +0.023 HD
ENDBRANCH  27  44
ENDBRANCH  19  25
ENDBRANCH   8  15
BRANCH   5  48
ATOM     48  C   UNL     1       0.094   9.427  22.971  0.00  0.00    +0.418 C 
ATOM     49  F   UNL     1       1.276   9.253  23.623  0.00  0.00    -0.166 F 
ATOM     50  F   UNL     1      -0.539   8.223  23.006  0.00  0.00    -0.166 F 
ATOM     51  F   UNL     1      -0.640  10.260  23.763  0.00  0.00    -0.166 F 
ENDBRANCH   5  48
BRANCH   1  52
ATOM     52  C   UNL     1      -0.446  13.219  19.627  0.00  0.00    +0.024 C 
ATOM     53  H   UNL     1      -0.149  13.507  18.611  0.00  0.00    +0.048 HD
ATOM     54  H   UNL     1       0.103  13.881  20.310  0.00  0.00    +0.048 HD
BRANCH  52  59
ATOM     55  C   UNL     1      -3.732  13.914  21.422  0.00  0.00    -0.031 C 
ATOM     56  C   UNL     1      -4.553  12.748  20.860  0.00  0.00    -0.048 C 
ATOM     57  C   UNL     1      -4.129  12.383  19.440  0.00  0.00    -0.040 C 
ATOM     58  C   UNL     1      -2.615  12.198  19.335  0.00  0.00    -0.001 C 
ATOM     59  N   UNL     1      -1.896  13.388  19.814  0.00  0.00    -0.298 NA
ATOM     60  C   UNL     1      -2.229  13.649  21.228  0.00  0.00    +0.002 C 
ATOM     61  H   UNL     1      -3.932  13.980  22.500  0.00  0.00    +0.031 HD
ATOM     62  H   UNL     1      -4.412  11.871  21.505  0.00  0.00    +0.027 HD
ATOM     63  H   UNL     1      -5.624  12.983  20.881  0.00  0.00    +0.027 HD
ATOM     64  H   UNL     1      -4.454  13.164  18.743  0.00  0.00    +0.028 HD
ATOM     65  H   UNL     1      -4.634  11.460  19.134  0.00  0.00    +0.028 HD
ATOM     66  H   UNL     1      -2.372  12.016  18.281  0.00  0.00    +0.043 HD
ATOM     67  H   UNL     1      -2.311  11.304  19.897  0.00  0.00    +0.043 HD
ATOM     68  H   UNL     1      -1.681  14.524  21.599  0.00  0.00    +0.043 HD
ATOM     69  H   UNL     1      -1.925  12.799  21.854  0.00  0.00    +0.043 HD
BRANCH  55  70
ATOM     70  C   UNL     1      -4.151  15.251  20.801  0.00  0.00    -0.061 C 
ATOM     71  H   UNL     1      -4.607  15.090  19.819  0.00  0.00    +0.023 HD
ATOM     72  H   UNL     1      -4.873  15.791  21.421  0.00  0.00    +0.023 HD
ATOM     73  H   UNL     1      -3.280  15.899  20.659  0.00  0.00    +0.023 HD
ENDBRANCH  55  70
ENDBRANCH  52  59
ENDBRANCH   1  52
TORSDOF 9
ENDMDL
MODEL 5
REMARK VINA RESULT:    -8.326      1.497      2.317
REMARK INTER + INTRA:         -12.748
REMARK INTER:                 -12.494
REMARK INTRA:                  -0.254
REMARK UNBOUND:                -0.772
REMARK  Name = 
REMARK  9 active torsions:
REMARK  status: ('A' for Active; 'I' for Inactive)
REMARK    1  A    between atoms: C_1  and  C_2
REMARK    2  A    between atoms: N_6  and  C_7
REMARK    3  A    between atoms: C_7  and  C_8
REMARK    4  A    between atoms: C_12  and  C_13
REMARK    5  A    between atoms: N_19  and  C_20
REMARK    6  A    between atoms: C_24  and  C_25
REMARK    7  A    between atoms: C_25  and  C_26
REMARK    8  A    between atoms: N_30  and  C_31
REMARK    9  A    between atoms: C_33  and  C_34
REMARK                            x       y       z     vdW  Elec       q    Type
REMARK                         _______ _______ _______ _____ _____    ______ ____
ROOT
ATOM      1  C   UNL     1      -0.774  11.306  19.671  0.00  0.00    -0.032 A 
ATOM      2  C   UNL     1       0.040  10.571  18.798  0.00  0.00    -0.045 A 
ATOM      3  C   UNL     1       0.727   9.487  19.314  0.00  0.00    +0.043 A 
ATOM      4  C   UNL     1       0.650   9.111  20.650  0.00  0.00    -0.006 A 
ATOM      5  C   UNL     1      -0.138   9.827  21.544  0.00  0.00    +0.061 A 
ATOM      6  C   UNL     1      -0.849  10.932  21.035  0.00  0.00    -0.045 A 
ATOM      7  C   UNL     1       1.502   7.905  20.878  0.00  0.00    +0.046 C 
ATOM      8  N   UNL     1       2.047   7.613  19.559  0.00  0.00    -0.263 N 
ATOM      9  C   UNL     1       1.621   8.554  18.615  0.00  0.00    +0.251 C 
ATOM     10  O   UNL     1       1.881   8.685  17.435  0.00  0.00    -0.270 OA
ATOM     11  H   UNL     1       0.130  10.823  17.745  0.00  0.00    +0.063 HD
ATOM     12  H   UNL     1      -1.492  11.514  21.700  0.00  0.00    +0.063 HD
ATOM     13  H   UNL     1       0.897   7.060  21.224  0.00  0.00    +0.052 HD
ATOM     14  H   UNL     1       2.318   8.135  21.571  0.00  0.00    +0.052 HD
ENDROOT
BRANCH   8  15
ATOM     15  C   UNL     1       2.906   6.504  19.321  0.00  0.00    +0.037 A 
ATOM     16  C   UNL     1       2.710   5.292  19.992  0.00  0.00    -0.040 A 
ATOM     17  C   UNL     1       3.560   4.208  19.772  0.00  0.00    -0.060 A 
ATOM     18  C   UNL     1       4.623   4.316  18.876  0.00  0.00    -0.058 A 
ATOM     19  C   UNL     1       4.867   5.501  18.161  0.00  0.00    -0.032 A 
ATOM     20  C   UNL     1       3.974   6.575  18.411  0.00  0.00    -0.036 A 
ATOM     21  H   UNL     1       1.905   5.159  20.708  0.00  0.00    +0.064 HD
ATOM     22  H   UNL     1       3.397   3.277  20.310  0.00  0.00    +0.062 HD
ATOM     23  H   UNL     1       5.267   3.451  18.738  0.00  0.00    +0.062 HD
ATOM     24  H   UNL     1       4.147   7.488  17.842  0.00  0.00    +0.064 HD
BRANCH  19  25
ATOM     25  C   UNL     1       6.080   5.666  17.107  0.00  0.00    +0.056 C 
ATOM     26  C   UNL     1       5.751   5.852  15.580  0.00  0.00    -0.034 C 
ATOM     27  C   UNL     1       5.853   4.317  15.422  0.00  0.00    -0.041 C 
ATOM     28  C   UNL     1       6.791   4.332  16.651  0.00  0.00    -0.034 C 
ATOM     29  H   UNL     1       6.513   6.408  15.017  0.00  0.00    +0.028 HD
ATOM     30  H   UNL     1       4.775   6.272  15.321  0.00  0.00    +0.028 HD
ATOM     31  H   UNL     1       4.898   3.815  15.633  0.00  0.00    +0.030 HD
ATOM     32  H   UNL     1       6.688   3.467  17.312  0.00  0.00    +0.028 HD
ATOM     33  H   UNL     1       7.854   4.436  16.396  0.00  0.00    +0.028 HD
BRANCH  25  34
ATOM     34  C   UNL     1       7.108   6.748  17.632  0.00  0.00    +0.144 A 
ATOM     35  N   UNL     1       7.315   7.906  17.035  0.00  0.00    -0.134 NA
ATOM     36  N   UNL     1       8.252   8.600  17.762  0.00  0.00    -0.138 NA
ATOM     37  C   UNL     1       8.599   7.848  18.781  0.00  0.00    +0.120 A 
ATOM     38  N   UNL     1       7.920   6.670  18.730  0.00  0.00    -0.320 N 
ATOM     39  H   UNL     1       9.319   8.105  19.545  0.00  0.00    +0.105 HD
BRANCH  38  40
ATOM     40  C   UNL     1       8.058   5.581  19.656  0.00  0.00    +0.014 C 
ATOM     41  H   UNL     1       8.853   5.811  20.368  0.00  0.00    +0.046 HD
ATOM     42  H   UNL     1       8.321   4.671  19.112  0.00  0.00    +0.046 HD
ATOM     43  H   UNL     1       7.106   5.438  20.172  0.00  0.00    +0.046 HD
ENDBRANCH  38  40
ENDBRANCH  25  34
BRANCH  27  44
ATOM     44  C   UNL     1       6.446   3.812  14.121  0.00  0.00    -0.062 C 
ATOM     45  H   UNL     1       7.398   3.307  14.304  0.00  0.00    +0.023 HD
ATOM     46  H   UNL     1       5.771   3.094  13.645  0.00  0.00    +0.023 HD
ATOM     47  H   UNL     1       6.623   4.626  13.414  0.00  0.00    +0.023 HD
ENDBRANCH  27  44
ENDBRANCH  19  25
ENDBRANCH   8  15
BRANCH   5  48
ATOM     48  C   UNL     1      -0.240   9.423  22.990  0.00  0.00    +0.418 C 
ATOM     49  F   UNL     1      -0.785   8.185  23.141  0.00  0.00    -0.166 F 
ATOM     50  F   UNL     1      -0.992  10.263  23.752  0.00  0.00    -0.166 F 
ATOM     51  F   UNL     1       0.982   9.362  23.593  0.00  0.00    -0.166 F 
ENDBRANCH   5  48
BRANCH   1  52
ATOM     52  C   UNL     1      -1.561  12.500  19.163  0.00  0.00    +0.024 C 
ATOM     53  H   UNL     1      -0.889  13.329  18.907  0.00  0.00    +0.048 HD
ATOM     54  H   UNL     1      -2.168  12.844  20.011  0.00  0.00    +0.048 HD
BRANCH  52  59
ATOM     55  C   UNL     1      -4.680  11.363  17.295  0.00  0.00    -0.031 C 
ATOM     56  C   UNL     1      -4.014  10.415  16.291  0.00  0.00    -0.048 C 
ATOM     57  C   UNL     1      -2.610  10.878  15.912  0.00  0.00    -0.040 C 
ATOM     58  C   UNL     1      -1.765  11.183  17.149  0.00  0.00    -0.001 C 
ATOM     59  N   UNL     1      -2.429  12.161  18.023  0.00  0.00    -0.298 NA
ATOM     60  C   UNL     1      -3.732  11.638  18.476  0.00  0.00    +0.002 C 
ATOM     61  H   UNL     1      -5.578  10.866  17.685  0.00  0.00    +0.031 HD
ATOM     62  H   UNL     1      -3.945   9.414  16.738  0.00  0.00    +0.027 HD
ATOM     63  H   UNL     1      -4.630  10.312  15.390  0.00  0.00    +0.027 HD
ATOM     64  H   UNL     1      -2.672  11.771  15.279  0.00  0.00    +0.028 HD
ATOM     65  H   UNL     1      -2.119  10.102  15.314  0.00  0.00    +0.028 HD
ATOM     66  H   UNL     1      -0.803  11.581  16.807  0.00  0.00    +0.043 HD
ATOM     67  H   UNL     1      -1.555  10.251  17.692  0.00  0.00    +0.043 HD
ATOM     68  H   UNL     1      -4.225  12.354  19.144  0.00  0.00    +0.043 HD
ATOM     69  H   UNL     1      -3.592  10.713  19.053  0.00  0.00    +0.043 HD
BRANCH  55  70
ATOM     70  C   UNL     1      -5.136  12.664  16.626  0.00  0.00    -0.061 C 
ATOM     71  H   UNL     1      -5.322  12.501  15.561  0.00  0.00    +0.023 HD
ATOM     72  H   UNL     1      -6.053  13.062  17.070  0.00  0.00    +0.023 HD
ATOM     73  H   UNL     1      -4.361  13.433  16.713  0.00  0.00    +0.023 HD
ENDBRANCH  55  70
ENDBRANCH  52  59
ENDBRANCH   1  52
TORSDOF 9
ENDMDL
MODEL 6
REMARK VINA RESULT:    -8.264      2.697      9.613
REMARK INTER + INTRA:         -12.659
REMARK INTER:                 -12.248
REMARK INTRA:                  -0.411
REMARK UNBOUND:                -0.772
REMARK  Name = 
REMARK  9 active torsions:
REMARK  status: ('A' for Active; 'I' for Inactive)
REMARK    1  A    between atoms: C_1  and  C_2
REMARK    2  A    between atoms: N_6  and  C_7
REMARK    3  A    between atoms: C_7  and  C_8
REMARK    4  A    between atoms: C_12  and  C_13
REMARK    5  A    between atoms: N_19  and  C_20
REMARK    6  A    between atoms: C_24  and  C_25
REMARK    7  A    between atoms: C_25  and  C_26
REMARK    8  A    between atoms: N_30  and  C_31
REMARK    9  A    between atoms: C_33  and  C_34
REMARK                            x       y       z     vdW  Elec       q    Type
REMARK                         _______ _______ _______ _____ _____    ______ ____
ROOT
ATOM      1  C   UNL     1       3.406   3.981  17.969  0.00  0.00    -0.032 A 
ATOM      2  C   UNL     1       3.029   5.322  17.817  0.00  0.00    -0.045 A 
ATOM      3  C   UNL     1       2.379   5.934  18.873  0.00  0.00    +0.043 A 
ATOM      4  C   UNL     1       2.081   5.276  20.060  0.00  0.00    -0.006 A 
ATOM      5  C   UNL     1       2.429   3.941  20.238  0.00  0.00    +0.061 A 
ATOM      6  C   UNL     1       3.096   3.302  19.174  0.00  0.00    -0.045 A 
ATOM      7  C   UNL     1       1.386   6.215  20.991  0.00  0.00    +0.046 C 
ATOM      8  N   UNL     1       1.339   7.467  20.247  0.00  0.00    -0.263 N 
ATOM      9  C   UNL     1       1.902   7.320  18.973  0.00  0.00    +0.251 C 
ATOM     10  O   UNL     1       2.015   8.101  18.048  0.00  0.00    -0.270 OA
ATOM     11  H   UNL     1       3.243   5.881  16.911  0.00  0.00    +0.063 HD
ATOM     12  H   UNL     1       3.401   2.258  19.276  0.00  0.00    +0.063 HD
ATOM     13  H   UNL     1       1.966   6.353  21.910  0.00  0.00    +0.052 HD
ATOM     14  H   UNL     1       0.368   5.871  21.198  0.00  0.00    +0.052 HD
ENDROOT
BRANCH   8  15
ATOM     15  C   UNL     1       0.772   8.653  20.790  0.00  0.00    +0.037 A 
ATOM     16  C   UNL     1       0.766   8.873  22.172  0.00  0.00    -0.040 A 
ATOM     17  C   UNL     1       0.198  10.028  22.709  0.00  0.00    -0.060 A 
ATOM     18  C   UNL     1      -0.376  10.985  21.874  0.00  0.00    -0.058 A 
ATOM     19  C   UNL     1      -0.393  10.831  20.477  0.00  0.00    -0.032 A 
ATOM     20  C   UNL     1       0.202   9.644  19.974  0.00  0.00    -0.036 A 
ATOM     21  H   UNL     1       1.190   8.155  22.867  0.00  0.00    +0.064 HD
ATOM     22  H   UNL     1       0.195  10.177  23.787  0.00  0.00    +0.062 HD
ATOM     23  H   UNL     1      -0.816  11.868  22.332  0.00  0.00    +0.062 HD
ATOM     24  H   UNL     1       0.211   9.532  18.891  0.00  0.00    +0.064 HD
BRANCH  19  25
ATOM     25  C   UNL     1      -1.038  11.918  19.472  0.00  0.00    +0.056 C 
ATOM     26  C   UNL     1      -2.558  12.294  19.620  0.00  0.00    -0.034 C 
ATOM     27  C   UNL     1      -2.881  11.186  18.591  0.00  0.00    -0.041 C 
ATOM     28  C   UNL     1      -1.449  11.388  18.044  0.00  0.00    -0.034 C 
ATOM     29  H   UNL     1      -2.810  13.306  19.276  0.00  0.00    +0.028 HD
ATOM     30  H   UNL     1      -3.021  12.151  20.601  0.00  0.00    +0.028 HD
ATOM     31  H   UNL     1      -3.010  10.203  19.066  0.00  0.00    +0.030 HD
ATOM     32  H   UNL     1      -0.961  10.472  17.698  0.00  0.00    +0.028 HD
ATOM     33  H   UNL     1      -1.383  12.129  17.236  0.00  0.00    +0.028 HD
BRANCH  25  34
ATOM     34  C   UNL     1      -0.112  13.199  19.396  0.00  0.00    +0.144 A 
ATOM     35  N   UNL     1      -0.497  14.400  19.783  0.00  0.00    -0.134 NA
ATOM     36  N   UNL     1       0.554  15.267  19.595  0.00  0.00    -0.138 NA
ATOM     37  C   UNL     1       1.551  14.576  19.093  0.00  0.00    +0.120 A 
ATOM     38  N   UNL     1       1.174  13.278  18.935  0.00  0.00    -0.320 N 
ATOM     39  H   UNL     1       2.525  14.965  18.831  0.00  0.00    +0.105 HD
BRANCH  38  40
ATOM     40  C   UNL     1       1.985  12.230  18.384  0.00  0.00    +0.014 C 
ATOM     41  H   UNL     1       1.370  11.341  18.229  0.00  0.00    +0.046 HD
ATOM     42  H   UNL     1       2.790  11.987  19.081  0.00  0.00    +0.046 HD
ATOM     43  H   UNL     1       2.410  12.575  17.439  0.00  0.00    +0.046 HD
ENDBRANCH  38  40
ENDBRANCH  25  34
BRANCH  27  44
ATOM     44  C   UNL     1      -4.020  11.469  17.632  0.00  0.00    -0.062 C 
ATOM     45  H   UNL     1      -4.219  10.596  17.004  0.00  0.00    +0.023 HD
ATOM     46  H   UNL     1      -4.937  11.703  18.182  0.00  0.00    +0.023 HD
ATOM     47  H   UNL     1      -3.797  12.315  16.976  0.00  0.00    +0.023 HD
ENDBRANCH  27  44
ENDBRANCH  19  25
ENDBRANCH   8  15
BRANCH   5  48
ATOM     48  C   UNL     1       2.124   3.220  21.522  0.00  0.00    +0.418 C 
ATOM     49  F   UNL     1       2.911   2.124  21.698  0.00  0.00    -0.166 F 
ATOM     50  F   UNL     1       0.839   2.785  21.625  0.00  0.00    -0.166 F 
ATOM     51  F   UNL     1       2.342   4.006  22.616  0.00  0.00    -0.166 F 
ENDBRANCH   5  48
BRANCH   1  52
ATOM     52  C   UNL     1       4.131   3.256  16.850  0.00  0.00    +0.024 C 
ATOM     53  H   UNL     1       3.529   3.256  15.933  0.00  0.00    +0.048 HD
ATOM     54  H   UNL     1       4.209   2.208  17.170  0.00  0.00    +0.048 HD
BRANCH  52  59
ATOM     55  C   UNL     1       7.213   5.445  17.316  0.00  0.00    -0.031 C 
ATOM     56  C   UNL     1       7.427   5.856  15.854  0.00  0.00    -0.048 C 
ATOM     57  C   UNL     1       6.988   4.763  14.884  0.00  0.00    -0.040 C 
ATOM     58  C   UNL     1       5.578   4.262  15.199  0.00  0.00    -0.001 C 
ATOM     59  N   UNL     1       5.472   3.808  16.594  0.00  0.00    -0.298 NA
ATOM     60  C   UNL     1       5.781   4.918  17.516  0.00  0.00    +0.002 C 
ATOM     61  H   UNL     1       7.339   6.340  17.940  0.00  0.00    +0.031 HD
ATOM     62  H   UNL     1       6.841   6.762  15.650  0.00  0.00    +0.027 HD
ATOM     63  H   UNL     1       8.477   6.115  15.675  0.00  0.00    +0.027 HD
ATOM     64  H   UNL     1       7.694   3.925  14.924  0.00  0.00    +0.028 HD
ATOM     65  H   UNL     1       7.019   5.150  13.859  0.00  0.00    +0.028 HD
ATOM     66  H   UNL     1       5.358   3.431  14.519  0.00  0.00    +0.043 HD
ATOM     67  H   UNL     1       4.848   5.056  14.989  0.00  0.00    +0.043 HD
ATOM     68  H   UNL     1       5.685   4.592  18.559  0.00  0.00    +0.043 HD
ATOM     69  H   UNL     1       5.067   5.741  17.376  0.00  0.00    +0.043 HD
BRANCH  55  70
ATOM     70  C   UNL     1       8.257   4.421  17.773  0.00  0.00    -0.061 C 
ATOM     71  H   UNL     1       7.897   3.403  17.598  0.00  0.00    +0.023 HD
ATOM     72  H   UNL     1       9.210   4.534  17.248  0.00  0.00    +0.023 HD
ATOM     73  H   UNL     1       8.452   4.524  18.846  0.00  0.00    +0.023 HD
ENDBRANCH  55  70
ENDBRANCH  52  59
ENDBRANCH   1  52
TORSDOF 9
ENDMDL
MODEL 7
REMARK VINA RESULT:    -8.117      3.247     10.185
REMARK INTER + INTRA:         -12.447
REMARK INTER:                 -11.372
REMARK INTRA:                  -1.074
REMARK UNBOUND:                -0.772
REMARK  Name = 
REMARK  9 active torsions:
REMARK  status: ('A' for Active; 'I' for Inactive)
REMARK    1  A    between atoms: C_1  and  C_2
REMARK    2  A    between atoms: N_6  and  C_7
REMARK    3  A    between atoms: C_7  and  C_8
REMARK    4  A    between atoms: C_12  and  C_13
REMARK    5  A    between atoms: N_19  and  C_20
REMARK    6  A    between atoms: C_24  and  C_25
REMARK    7  A    between atoms: C_25  and  C_26
REMARK    8  A    between atoms: N_30  and  C_31
REMARK    9  A    between atoms: C_33  and  C_34
REMARK                            x       y       z     vdW  Elec       q    Type
REMARK                         _______ _______ _______ _____ _____    ______ ____
ROOT
ATOM      1  C   UNL     1       5.710   5.412  16.536  0.00  0.00    -0.032 A 
ATOM      2  C   UNL     1       5.160   6.665  16.837  0.00  0.00    -0.045 A 
ATOM      3  C   UNL     1       4.048   6.702  17.661  0.00  0.00    +0.043 A 
ATOM      4  C   UNL     1       3.460   5.558  18.186  0.00  0.00    -0.006 A 
ATOM      5  C   UNL     1       3.974   4.299  17.896  0.00  0.00    +0.061 A 
ATOM      6  C   UNL     1       5.108   4.242  17.062  0.00  0.00    -0.045 A 
ATOM      7  C   UNL     1       2.291   5.943  19.033  0.00  0.00    +0.046 C 
ATOM      8  N   UNL     1       2.281   7.398  18.968  0.00  0.00    -0.263 N 
ATOM      9  C   UNL     1       3.302   7.874  18.137  0.00  0.00    +0.251 C 
ATOM     10  O   UNL     1       3.600   9.001  17.793  0.00  0.00    -0.270 OA
ATOM     11  H   UNL     1       5.585   7.588  16.455  0.00  0.00    +0.063 HD
ATOM     12  H   UNL     1       5.553   3.274  16.821  0.00  0.00    +0.063 HD
ATOM     13  H   UNL     1       2.438   5.621  20.070  0.00  0.00    +0.052 HD
ATOM     14  H   UNL     1       1.362   5.548  18.610  0.00  0.00    +0.052 HD
ENDROOT
BRANCH   8  15
ATOM     15  C   UNL     1       1.325   8.183  19.670  0.00  0.00    +0.037 A 
ATOM     16  C   UNL     1       0.933   7.838  20.968  0.00  0.00    -0.040 A 
ATOM     17  C   UNL     1      -0.015   8.597  21.654  0.00  0.00    -0.060 A 
ATOM     18  C   UNL     1      -0.589   9.718  21.054  0.00  0.00    -0.058 A 
ATOM     19  C   UNL     1      -0.229  10.126  19.758  0.00  0.00    -0.032 A 
ATOM     20  C   UNL     1       0.743   9.328  19.100  0.00  0.00    -0.036 A 
ATOM     21  H   UNL     1       1.341   6.970  21.476  0.00  0.00    +0.064 HD
ATOM     22  H   UNL     1      -0.315   8.308  22.658  0.00  0.00    +0.062 HD
ATOM     23  H   UNL     1      -1.329  10.279  21.618  0.00  0.00    +0.062 HD
ATOM     24  H   UNL     1       1.040   9.654  18.105  0.00  0.00    +0.064 HD
BRANCH  19  25
ATOM     25  C   UNL     1      -0.861  11.422  19.030  0.00  0.00    +0.056 C 
ATOM     26  C   UNL     1      -2.354  11.817  19.324  0.00  0.00    -0.034 C 
ATOM     27  C   UNL     1      -2.770  10.959  18.107  0.00  0.00    -0.041 C 
ATOM     28  C   UNL     1      -1.352  11.214  17.544  0.00  0.00    -0.034 C 
ATOM     29  H   UNL     1      -2.571  12.888  19.208  0.00  0.00    +0.028 HD
ATOM     30  H   UNL     1      -2.784  11.493  20.277  0.00  0.00    +0.028 HD
ATOM     31  H   UNL     1      -2.927   9.905  18.377  0.00  0.00    +0.030 HD
ATOM     32  H   UNL     1      -0.923  10.371  16.995  0.00  0.00    +0.028 HD
ATOM     33  H   UNL     1      -1.283  12.103  16.903  0.00  0.00    +0.028 HD
BRANCH  25  34
ATOM     34  C   UNL     1       0.122  12.654  19.172  0.00  0.00    +0.144 A 
ATOM     35  N   UNL     1       0.887  13.092  18.191  0.00  0.00    -0.134 NA
ATOM     36  N   UNL     1       1.593  14.178  18.652  0.00  0.00    -0.138 NA
ATOM     37  C   UNL     1       1.246  14.373  19.903  0.00  0.00    +0.120 A 
ATOM     38  N   UNL     1       0.338  13.431  20.277  0.00  0.00    -0.320 N 
ATOM     39  H   UNL     1       1.621  15.151  20.552  0.00  0.00    +0.105 HD
BRANCH  38  40
ATOM     40  C   UNL     1      -0.249  13.302  21.581  0.00  0.00    +0.014 C 
ATOM     41  H   UNL     1      -0.615  12.282  21.713  0.00  0.00    +0.046 HD
ATOM     42  H   UNL     1      -1.088  13.995  21.673  0.00  0.00    +0.046 HD
ATOM     43  H   UNL     1       0.508  13.542  22.331  0.00  0.00    +0.046 HD
ENDBRANCH  38  40
ENDBRANCH  25  34
BRANCH  27  44
ATOM     44  C   UNL     1      -3.931  11.477  17.283  0.00  0.00    -0.062 C 
ATOM     45  H   UNL     1      -3.654  11.541  16.227  0.00  0.00    +0.023 HD
ATOM     46  H   UNL     1      -4.792  10.805  17.365  0.00  0.00    +0.023 HD
ATOM     47  H   UNL     1      -4.249  12.471  17.610  0.00  0.00    +0.023 HD
ENDBRANCH  27  44
ENDBRANCH  19  25
ENDBRANCH   8  15
BRANCH   5  48
ATOM     48  C   UNL     1       3.354   3.053  18.468  0.00  0.00    +0.418 C 
ATOM     49  F   UNL     1       3.886   1.920  17.935  0.00  0.00    -0.166 F 
ATOM     50  F   UNL     1       2.009   2.964  18.283  0.00  0.00    -0.166 F 
ATOM     51  F   UNL     1       3.554   2.953  19.814  0.00  0.00    -0.166 F 
ENDBRANCH   5  48
BRANCH   1  52
ATOM     52  C   UNL     1       6.934   5.306  15.647  0.00  0.00    +0.024 C 
ATOM     53  H   UNL     1       7.672   4.620  16.081  0.00  0.00    +0.048 HD
ATOM     54  H   UNL     1       7.397   6.302  15.650  0.00  0.00    +0.048 HD
BRANCH  52  59
ATOM     55  C   UNL     1       5.780   3.080  12.779  0.00  0.00    -0.031 C 
ATOM     56  C   UNL     1       6.885   3.412  11.770  0.00  0.00    -0.048 C 
ATOM     57  C   UNL     1       7.384   4.846  11.920  0.00  0.00    -0.040 C 
ATOM     58  C   UNL     1       7.735   5.172  13.372  0.00  0.00    -0.001 C 
ATOM     59  N   UNL     1       6.600   4.908  14.269  0.00  0.00    -0.298 NA
ATOM     60  C   UNL     1       6.215   3.485  14.198  0.00  0.00    +0.002 C 
ATOM     61  H   UNL     1       5.624   1.993  12.765  0.00  0.00    +0.031 HD
ATOM     62  H   UNL     1       7.730   2.729  11.931  0.00  0.00    +0.027 HD
ATOM     63  H   UNL     1       6.537   3.242  10.745  0.00  0.00    +0.027 HD
ATOM     64  H   UNL     1       6.619   5.544  11.561  0.00  0.00    +0.028 HD
ATOM     65  H   UNL     1       8.266   4.994  11.287  0.00  0.00    +0.028 HD
ATOM     66  H   UNL     1       8.009   6.232  13.420  0.00  0.00    +0.043 HD
ATOM     67  H   UNL     1       8.618   4.594  13.677  0.00  0.00    +0.043 HD
ATOM     68  H   UNL     1       5.381   3.276  14.880  0.00  0.00    +0.043 HD
ATOM     69  H   UNL     1       7.051   2.848  14.518  0.00  0.00    +0.043 HD
BRANCH  55  70
ATOM     70  C   UNL     1       4.448   3.733  12.393  0.00  0.00    -0.061 C 
ATOM     71  H   UNL     1       4.047   3.274  11.484  0.00  0.00    +0.023 HD
ATOM     72  H   UNL     1       3.693   3.637  13.178  0.00  0.00    +0.023 HD
ATOM     73  H   UNL     1       4.588   4.801  12.191  0.00  0.00    +0.023 HD
ENDBRANCH  55  70
ENDBRANCH  52  59
ENDBRANCH   1  52
TORSDOF 9
ENDMDL
MODEL 8
REMARK VINA RESULT:    -8.085      3.275     10.438
REMARK INTER + INTRA:         -12.401
REMARK INTER:                 -11.345
REMARK INTRA:                  -1.056
REMARK UNBOUND:                -0.772
REMARK  Name = 
REMARK  9 active torsions:
REMARK  status: ('A' for Active; 'I' for Inactive)
REMARK    1  A    between atoms: C_1  and  C_2
REMARK    2  A    between atoms: N_6  and  C_7
REMARK    3  A    between atoms: C_7  and  C_8
REMARK    4  A    between atoms: C_12  and  C_13
REMARK    5  A    between atoms: N_19  and  C_20
REMARK    6  A    between atoms: C_24  and  C_25
REMARK    7  A    between atoms: C_25  and  C_26
REMARK    8  A    between atoms: N_30  and  C_31
REMARK    9  A    between atoms: C_33  and  C_34
REMARK                            x       y       z     vdW  Elec       q    Type
REMARK                         _______ _______ _______ _____ _____    ______ ____
ROOT
ATOM      1  C   UNL     1       5.628   5.401  16.523  0.00  0.00    -0.032 A 
ATOM      2  C   UNL     1       5.118   6.661  16.863  0.00  0.00    -0.045 A 
ATOM      3  C   UNL     1       4.002   6.708  17.679  0.00  0.00    +0.043 A 
ATOM      4  C   UNL     1       3.370   5.568  18.160  0.00  0.00    -0.006 A 
ATOM      5  C   UNL     1       3.843   4.302  17.830  0.00  0.00    +0.061 A 
ATOM      6  C   UNL     1       4.981   4.235  17.004  0.00  0.00    -0.045 A 
ATOM      7  C   UNL     1       2.208   5.964  19.011  0.00  0.00    +0.046 C 
ATOM      8  N   UNL     1       2.248   7.420  18.996  0.00  0.00    -0.263 N 
ATOM      9  C   UNL     1       3.292   7.888  18.190  0.00  0.00    +0.251 C 
ATOM     10  O   UNL     1       3.632   9.016  17.887  0.00  0.00    -0.270 OA
ATOM     11  H   UNL     1       5.579   7.582  16.516  0.00  0.00    +0.063 HD
ATOM     12  H   UNL     1       5.396   3.261  16.732  0.00  0.00    +0.063 HD
ATOM     13  H   UNL     1       2.335   5.601  20.037  0.00  0.00    +0.052 HD
ATOM     14  H   UNL     1       1.269   5.616  18.568  0.00  0.00    +0.052 HD
ENDROOT
BRANCH   8  15
ATOM     15  C   UNL     1       1.314   8.213  19.717  0.00  0.00    +0.037 A 
ATOM     16  C   UNL     1       0.818   7.784  20.954  0.00  0.00    -0.040 A 
ATOM     17  C   UNL     1      -0.109   8.553  21.657  0.00  0.00    -0.060 A 
ATOM     18  C   UNL     1      -0.559   9.766  21.137  0.00  0.00    -0.058 A 
ATOM     19  C   UNL     1      -0.091  10.260  19.907  0.00  0.00    -0.032 A 
ATOM     20  C   UNL     1       0.855   9.448  19.229  0.00  0.00    -0.036 A 
ATOM     21  H   UNL     1       1.127   6.843  21.398  0.00  0.00    +0.064 HD
ATOM     22  H   UNL     1      -0.491   8.198  22.612  0.00  0.00    +0.062 HD
ATOM     23  H   UNL     1      -1.288  10.332  21.712  0.00  0.00    +0.062 HD
ATOM     24  H   UNL     1       1.237   9.838  18.287  0.00  0.00    +0.064 HD
BRANCH  19  25
ATOM     25  C   UNL     1      -0.577  11.663  19.273  0.00  0.00    +0.056 C 
ATOM     26  C   UNL     1       0.293  12.343  18.153  0.00  0.00    -0.034 C 
ATOM     27  C   UNL     1       1.025  13.126  19.267  0.00  0.00    -0.041 C 
ATOM     28  C   UNL     1      -0.255  12.957  20.118  0.00  0.00    -0.034 C 
ATOM     29  H   UNL     1      -0.275  12.981  17.462  0.00  0.00    +0.028 HD
ATOM     30  H   UNL     1       0.939  11.696  17.553  0.00  0.00    +0.028 HD
ATOM     31  H   UNL     1       1.876  12.565  19.679  0.00  0.00    +0.030 HD
ATOM     32  H   UNL     1      -0.074  12.816  21.187  0.00  0.00    +0.028 HD
ATOM     33  H   UNL     1      -0.975  13.778  20.004  0.00  0.00    +0.028 HD
BRANCH  25  34
ATOM     34  C   UNL     1      -2.105  11.573  18.869  0.00  0.00    +0.144 A 
ATOM     35  N   UNL     1      -3.067  12.208  19.510  0.00  0.00    -0.134 NA
ATOM     36  N   UNL     1      -4.258  11.922  18.887  0.00  0.00    -0.138 NA
ATOM     37  C   UNL     1      -3.995  11.116  17.884  0.00  0.00    +0.120 A 
ATOM     38  N   UNL     1      -2.660  10.856  17.845  0.00  0.00    -0.320 N 
ATOM     39  H   UNL     1      -4.718  10.705  17.194  0.00  0.00    +0.105 HD
BRANCH  38  40
ATOM     40  C   UNL     1      -2.001   9.991  16.907  0.00  0.00    +0.014 C 
ATOM     41  H   UNL     1      -1.072   9.623  17.347  0.00  0.00    +0.046 HD
ATOM     42  H   UNL     1      -1.768  10.549  15.998  0.00  0.00    +0.046 HD
ATOM     43  H   UNL     1      -2.670   9.161  16.667  0.00  0.00    +0.046 HD
ENDBRANCH  38  40
ENDBRANCH  25  34
BRANCH  27  44
ATOM     44  C   UNL     1       1.435  14.547  18.933  0.00  0.00    -0.062 C 
ATOM     45  H   UNL     1       1.441  14.701  17.851  0.00  0.00    +0.023 HD
ATOM     46  H   UNL     1       0.732  15.263  19.371  0.00  0.00    +0.023 HD
ATOM     47  H   UNL     1       2.433  14.781  19.315  0.00  0.00    +0.023 HD
ENDBRANCH  27  44
ENDBRANCH  19  25
ENDBRANCH   8  15
BRANCH   5  48
ATOM     48  C   UNL     1       3.176   3.060  18.355  0.00  0.00    +0.418 C 
ATOM     49  F   UNL     1       1.910   2.914  17.877  0.00  0.00    -0.166 F 
ATOM     50  F   UNL     1       3.077   3.011  19.711  0.00  0.00    -0.166 F 
ATOM     51  F   UNL     1       3.840   1.927  17.986  0.00  0.00    -0.166 F 
ENDBRANCH   5  48
BRANCH   1  52
ATOM     52  C   UNL     1       6.856   5.283  15.640  0.00  0.00    +0.024 C 
ATOM     53  H   UNL     1       7.587   4.595  16.081  0.00  0.00    +0.048 HD
ATOM     54  H   UNL     1       7.325   6.276  15.640  0.00  0.00    +0.048 HD
BRANCH  52  59
ATOM     55  C   UNL     1       5.708   3.048  12.777  0.00  0.00    -0.031 C 
ATOM     56  C   UNL     1       6.817   3.375  11.770  0.00  0.00    -0.048 C 
ATOM     57  C   UNL     1       7.316   4.810  11.916  0.00  0.00    -0.040 C 
ATOM     58  C   UNL     1       7.663   5.141  13.368  0.00  0.00    -0.001 C 
ATOM     59  N   UNL     1       6.525   4.880  14.262  0.00  0.00    -0.298 NA
ATOM     60  C   UNL     1       6.139   3.458  14.196  0.00  0.00    +0.002 C 
ATOM     61  H   UNL     1       5.552   1.961  12.766  0.00  0.00    +0.031 HD
ATOM     62  H   UNL     1       7.661   2.692  11.936  0.00  0.00    +0.027 HD
ATOM     63  H   UNL     1       6.472   3.202  10.744  0.00  0.00    +0.027 HD
ATOM     64  H   UNL     1       6.553   5.508  11.552  0.00  0.00    +0.028 HD
ATOM     65  H   UNL     1       8.201   4.955  11.285  0.00  0.00    +0.028 HD
ATOM     66  H   UNL     1       7.938   6.201  13.413  0.00  0.00    +0.043 HD
ATOM     67  H   UNL     1       8.545   4.563  13.678  0.00  0.00    +0.043 HD
ATOM     68  H   UNL     1       5.303   3.252  14.875  0.00  0.00    +0.043 HD
ATOM     69  H   UNL     1       6.974   2.821  14.521  0.00  0.00    +0.043 HD
BRANCH  55  70
ATOM     70  C   UNL     1       4.379   3.701  12.384  0.00  0.00    -0.061 C 
ATOM     71  H   UNL     1       3.965   4.263  13.226  0.00  0.00    +0.023 HD
ATOM     72  H   UNL     1       4.486   4.392  11.542  0.00  0.00    +0.023 HD
ATOM     73  H   UNL     1       3.645   2.939  12.101  0.00  0.00    +0.023 HD
ENDBRANCH  55  70
ENDBRANCH  52  59
ENDBRANCH   1  52
TORSDOF 9
ENDMDL
MODEL 9
REMARK VINA RESULT:    -8.036      2.858      9.628
REMARK INTER + INTRA:         -12.332
REMARK INTER:                 -11.598
REMARK INTRA:                  -0.734
REMARK UNBOUND:                -0.772
REMARK  Name = 
REMARK  9 active torsions:
REMARK  status: ('A' for Active; 'I' for Inactive)
REMARK    1  A    between atoms: C_1  and  C_2
REMARK    2  A    between atoms: N_6  and  C_7
REMARK    3  A    between atoms: C_7  and  C_8
REMARK    4  A    between atoms: C_12  and  C_13
REMARK    5  A    between atoms: N_19  and  C_20
REMARK    6  A    between atoms: C_24  and  C_25
REMARK    7  A    between atoms: C_25  and  C_26
REMARK    8  A    between atoms: N_30  and  C_31
REMARK    9  A    between atoms: C_33  and  C_34
REMARK                            x       y       z     vdW  Elec       q    Type
REMARK                         _______ _______ _______ _____ _____    ______ ____
ROOT
ATOM      1  C   UNL     1       3.885   3.840  18.174  0.00  0.00    -0.032 A 
ATOM      2  C   UNL     1       3.573   5.191  17.969  0.00  0.00    -0.045 A 
ATOM      3  C   UNL     1       2.821   5.835  18.935  0.00  0.00    +0.043 A 
ATOM      4  C   UNL     1       2.363   5.199  20.083  0.00  0.00    -0.006 A 
ATOM      5  C   UNL     1       2.644   3.856  20.310  0.00  0.00    +0.061 A 
ATOM      6  C   UNL     1       3.411   3.185  19.338  0.00  0.00    -0.045 A 
ATOM      7  C   UNL     1       1.592   6.170  20.916  0.00  0.00    +0.046 C 
ATOM      8  N   UNL     1       1.675   7.414  20.163  0.00  0.00    -0.263 N 
ATOM      9  C   UNL     1       2.381   7.235  18.968  0.00  0.00    +0.251 C 
ATOM     10  O   UNL     1       2.629   8.002  18.057  0.00  0.00    -0.270 OA
ATOM     11  H   UNL     1       3.912   5.733  17.091  0.00  0.00    +0.063 HD
ATOM     12  H   UNL     1       3.668   2.133  19.484  0.00  0.00    +0.063 HD
ATOM     13  H   UNL     1       2.062   6.300  21.897  0.00  0.00    +0.052 HD
ATOM     14  H   UNL     1       0.546   5.860  21.002  0.00  0.00    +0.052 HD
ENDROOT
BRANCH   8  15
ATOM     15  C   UNL     1       1.085   8.623  20.626  0.00  0.00    +0.037 A 
ATOM     16  C   UNL     1       1.105   8.951  21.986  0.00  0.00    -0.040 A 
ATOM     17  C   UNL     1       0.516  10.129  22.446  0.00  0.00    -0.060 A 
ATOM     18  C   UNL     1      -0.106  11.001  21.553  0.00  0.00    -0.058 A 
ATOM     19  C   UNL     1      -0.149  10.737  20.173  0.00  0.00    -0.032 A 
ATOM     20  C   UNL     1       0.468   9.531  19.750  0.00  0.00    -0.036 A 
ATOM     21  H   UNL     1       1.566   8.302  22.724  0.00  0.00    +0.064 HD
ATOM     22  H   UNL     1       0.533  10.362  23.508  0.00  0.00    +0.062 HD
ATOM     23  H   UNL     1      -0.560  11.904  21.951  0.00  0.00    +0.062 HD
ATOM     24  H   UNL     1       0.456   9.334  18.679  0.00  0.00    +0.064 HD
BRANCH  19  25
ATOM     25  C   UNL     1      -0.849  11.723  19.103  0.00  0.00    +0.056 C 
ATOM     26  C   UNL     1      -2.402  11.963  19.180  0.00  0.00    -0.034 C 
ATOM     27  C   UNL     1      -2.582  10.794  18.185  0.00  0.00    -0.041 C 
ATOM     28  C   UNL     1      -1.153  11.106  17.683  0.00  0.00    -0.034 C 
ATOM     29  H   UNL     1      -2.731  12.935  18.788  0.00  0.00    +0.028 HD
ATOM     30  H   UNL     1      -2.889  11.814  20.148  0.00  0.00    +0.028 HD
ATOM     31  H   UNL     1      -2.640   9.821  18.693  0.00  0.00    +0.030 HD
ATOM     32  H   UNL     1      -0.571  10.227  17.392  0.00  0.00    +0.028 HD
ATOM     33  H   UNL     1      -1.122  11.820  16.849  0.00  0.00    +0.028 HD
BRANCH  25  34
ATOM     34  C   UNL     1      -0.041  13.080  19.010  0.00  0.00    +0.144 A 
ATOM     35  N   UNL     1      -0.561  14.259  19.292  0.00  0.00    -0.134 NA
ATOM     36  N   UNL     1       0.417  15.210  19.122  0.00  0.00    -0.138 NA
ATOM     37  C   UNL     1       1.508  14.590  18.737  0.00  0.00    +0.120 A 
ATOM     38  N   UNL     1       1.264  13.255  18.637  0.00  0.00    -0.320 N 
ATOM     39  H   UNL     1       2.460  15.054  18.520  0.00  0.00    +0.105 HD
BRANCH  38  40
ATOM     40  C   UNL     1       2.207  12.259  18.212  0.00  0.00    +0.014 C 
ATOM     41  H   UNL     1       2.109  11.376  18.847  0.00  0.00    +0.046 HD
ATOM     42  H   UNL     1       3.221  12.653  18.307  0.00  0.00    +0.046 HD
ATOM     43  H   UNL     1       2.006  12.008  17.168  0.00  0.00    +0.046 HD
ENDBRANCH  38  40
ENDBRANCH  25  34
BRANCH  27  44
ATOM     44  C   UNL     1      -3.702  10.936  17.174  0.00  0.00    -0.062 C 
ATOM     45  H   UNL     1      -3.982  11.986  17.055  0.00  0.00    +0.023 HD
ATOM     46  H   UNL     1      -3.388  10.559  16.195  0.00  0.00    +0.023 HD
ATOM     47  H   UNL     1      -4.594  10.380  17.477  0.00  0.00    +0.023 HD
ENDBRANCH  27  44
ENDBRANCH  19  25
ENDBRANCH   8  15
BRANCH   5  48
ATOM     48  C   UNL     1       2.163   3.159  21.553  0.00  0.00    +0.418 C 
ATOM     49  F   UNL     1       2.834   1.998  21.785  0.00  0.00    -0.166 F 
ATOM     50  F   UNL     1       0.842   2.836  21.536  0.00  0.00    -0.166 F 
ATOM     51  F   UNL     1       2.350   3.918  22.671  0.00  0.00    -0.166 F 
ENDBRANCH   5  48
BRANCH   1  52
ATOM     52  C   UNL     1       4.714   3.081  17.155  0.00  0.00    +0.024 C 
ATOM     53  H   UNL     1       4.121   2.288  16.684  0.00  0.00    +0.048 HD
ATOM     54  H   UNL     1       5.507   2.579  17.726  0.00  0.00    +0.048 HD
BRANCH  52  59
ATOM     55  C   UNL     1       6.477   4.098  13.936  0.00  0.00    -0.031 C 
ATOM     56  C   UNL     1       7.452   5.127  14.521  0.00  0.00    -0.048 C 
ATOM     57  C   UNL     1       6.863   5.848  15.731  0.00  0.00    -0.040 C 
ATOM     58  C   UNL     1       6.294   4.863  16.753  0.00  0.00    -0.001 C 
ATOM     59  N   UNL     1       5.306   3.965  16.136  0.00  0.00    -0.298 NA
ATOM     60  C   UNL     1       5.932   3.187  15.049  0.00  0.00    +0.002 C 
ATOM     61  H   UNL     1       7.033   3.474  13.223  0.00  0.00    +0.031 HD
ATOM     62  H   UNL     1       8.369   4.610  14.834  0.00  0.00    +0.027 HD
ATOM     63  H   UNL     1       7.749   5.856  13.759  0.00  0.00    +0.027 HD
ATOM     64  H   UNL     1       6.074   6.536  15.404  0.00  0.00    +0.028 HD
ATOM     65  H   UNL     1       7.638   6.461  16.204  0.00  0.00    +0.028 HD
ATOM     66  H   UNL     1       5.821   5.445  17.552  0.00  0.00    +0.043 HD
ATOM     67  H   UNL     1       7.113   4.291  17.209  0.00  0.00    +0.043 HD
ATOM     68  H   UNL     1       5.206   2.500  14.598  0.00  0.00    +0.043 HD
ATOM     69  H   UNL     1       6.749   2.568  15.445  0.00  0.00    +0.043 HD
BRANCH  55  70
ATOM     70  C   UNL     1       5.343   4.775  13.158  0.00  0.00    -0.061 C 
ATOM     71  H   UNL     1       4.404   4.232  13.303  0.00  0.00    +0.023 HD
ATOM     72  H   UNL     1       5.182   5.811  13.471  0.00  0.00    +0.023 HD
ATOM     73  H   UNL     1       5.561   4.779  12.085  0.00  0.00    +0.023 HD
ENDBRANCH  55  70
ENDBRANCH  52  59
ENDBRANCH   1  52
TORSDOF 9
ENDMDL
MODEL 10
REMARK VINA RESULT:    -7.988      2.300      9.968
REMARK INTER + INTRA:         -12.261
REMARK INTER:                 -11.583
REMARK INTRA:                  -0.679
REMARK UNBOUND:                -0.772
REMARK  Name = 
REMARK  9 active torsions:
REMARK  status: ('A' for Active; 'I' for Inactive)
REMARK    1  A    between atoms: C_1  and  C_2
REMARK    2  A    between atoms: N_6  and  C_7
REMARK    3  A    between atoms: C_7  and  C_8
REMARK    4  A    between atoms: C_12  and  C_13
REMARK    5  A    between atoms: N_19  and  C_20
REMARK    6  A    between atoms: C_24  and  C_25
REMARK    7  A    between atoms: C_25  and  C_26
REMARK    8  A    between atoms: N_30  and  C_31
REMARK    9  A    between atoms: C_33  and  C_34
REMARK                            x       y       z     vdW  Elec       q    Type
REMARK                         _______ _______ _______ _____ _____    ______ ____
ROOT
ATOM      1  C   UNL     1       3.546   5.695  17.953  0.00  0.00    -0.032 A 
ATOM      2  C   UNL     1       3.070   7.006  18.093  0.00  0.00    -0.045 A 
ATOM      3  C   UNL     1       2.214   7.273  19.146  0.00  0.00    +0.043 A 
ATOM      4  C   UNL     1       1.805   6.303  20.053  0.00  0.00    -0.006 A 
ATOM      5  C   UNL     1       2.249   4.989  19.933  0.00  0.00    +0.061 A 
ATOM      6  C   UNL     1       3.125   4.700  18.869  0.00  0.00    -0.045 A 
ATOM      7  C   UNL     1       0.893   6.916  21.063  0.00  0.00    +0.046 C 
ATOM      8  N   UNL     1       0.838   8.319  20.673  0.00  0.00    -0.263 N 
ATOM      9  C   UNL     1       1.597   8.552  19.520  0.00  0.00    +0.251 C 
ATOM     10  O   UNL     1       1.773   9.560  18.863  0.00  0.00    -0.270 OA
ATOM     11  H   UNL     1       3.363   7.801  17.413  0.00  0.00    +0.063 HD
ATOM     12  H   UNL     1       3.510   3.684  18.747  0.00  0.00    +0.063 HD
ATOM     13  H   UNL     1       1.313   6.829  22.071  0.00  0.00    +0.052 HD
ATOM     14  H   UNL     1      -0.107   6.476  20.998  0.00  0.00    +0.052 HD
ENDROOT
BRANCH   8  15
ATOM     15  C   UNL     1       0.086   9.281  21.402  0.00  0.00    +0.037 A 
ATOM     16  C   UNL     1       0.064   9.260  22.801  0.00  0.00    -0.040 A 
ATOM     17  C   UNL     1      -0.684  10.193  23.518  0.00  0.00    -0.060 A 
ATOM     18  C   UNL     1      -1.426  11.166  22.849  0.00  0.00    -0.058 A 
ATOM     19  C   UNL     1      -1.438  11.250  21.445  0.00  0.00    -0.032 A 
ATOM     20  C   UNL     1      -0.657  10.284  20.758  0.00  0.00    -0.036 A 
ATOM     21  H   UNL     1       0.615   8.518  23.370  0.00  0.00    +0.064 HD
ATOM     22  H   UNL     1      -0.696  10.155  24.605  0.00  0.00    +0.062 HD
ATOM     23  H   UNL     1      -2.003  11.870  23.443  0.00  0.00    +0.062 HD
ATOM     24  H   UNL     1      -0.646  10.360  19.671  0.00  0.00    +0.064 HD
BRANCH  19  25
ATOM     25  C   UNL     1      -2.274  12.365  20.631  0.00  0.00    +0.056 C 
ATOM     26  C   UNL     1      -1.896  13.883  20.797  0.00  0.00    -0.034 C 
ATOM     27  C   UNL     1      -2.937  13.967  21.937  0.00  0.00    -0.041 C 
ATOM     28  C   UNL     1      -3.663  12.784  21.254  0.00  0.00    -0.034 C 
ATOM     29  H   UNL     1      -2.139  14.508  19.927  0.00  0.00    +0.028 HD
ATOM     30  H   UNL     1      -0.871  14.118  21.100  0.00  0.00    +0.028 HD
ATOM     31  H   UNL     1      -2.510  13.686  22.910  0.00  0.00    +0.030 HD
ATOM     32  H   UNL     1      -4.128  12.076  21.945  0.00  0.00    +0.028 HD
ATOM     33  H   UNL     1      -4.425  13.093  20.525  0.00  0.00    +0.028 HD
BRANCH  25  34
ATOM     34  C   UNL     1      -2.399  11.944  19.111  0.00  0.00    +0.144 A 
ATOM     35  N   UNL     1      -3.454  11.332  18.608  0.00  0.00    -0.134 NA
ATOM     36  N   UNL     1      -3.234  11.134  17.266  0.00  0.00    -0.138 NA
ATOM     37  C   UNL     1      -2.049  11.624  16.983  0.00  0.00    +0.120 A 
ATOM     38  N   UNL     1      -1.481  12.127  18.112  0.00  0.00    -0.320 N 
ATOM     39  H   UNL     1      -1.579  11.627  16.009  0.00  0.00    +0.105 HD
BRANCH  38  40
ATOM     40  C   UNL     1      -0.176  12.717  18.204  0.00  0.00    +0.014 C 
ATOM     41  H   UNL     1       0.563  12.024  17.797  0.00  0.00    +0.046 HD
ATOM     42  H   UNL     1       0.062  12.915  19.252  0.00  0.00    +0.046 HD
ATOM     43  H   UNL     1      -0.175  13.655  17.644  0.00  0.00    +0.046 HD
ENDBRANCH  38  40
ENDBRANCH  25  34
BRANCH  27  44
ATOM     44  C   UNL     1      -3.711  15.266  22.048  0.00  0.00    -0.062 C 
ATOM     45  H   UNL     1      -4.625  15.119  22.630  0.00  0.00    +0.023 HD
ATOM     46  H   UNL     1      -3.110  16.029  22.552  0.00  0.00    +0.023 HD
ATOM     47  H   UNL     1      -3.993  15.655  21.065  0.00  0.00    +0.023 HD
ENDBRANCH  27  44
ENDBRANCH  19  25
ENDBRANCH   8  15
BRANCH   5  48
ATOM     48  C   UNL     1       1.824   3.931  20.915  0.00  0.00    +0.418 C 
ATOM     49  F   UNL     1       0.471   3.821  21.001  0.00  0.00    -0.166 F 
ATOM     50  F   UNL     1       2.269   4.138  22.184  0.00  0.00    -0.166 F 
ATOM     51  F   UNL     1       2.271   2.692  20.559  0.00  0.00    -0.166 F 
ENDBRANCH   5  48
BRANCH   1  52
ATOM     52  C   UNL     1       4.495   5.340  16.824  0.00  0.00    +0.024 C 
ATOM     53  H   UNL     1       4.209   5.856  15.899  0.00  0.00    +0.048 HD
ATOM     54  H   UNL     1       4.355   4.267  16.637  0.00  0.00    +0.048 HD
BRANCH  52  59
ATOM     55  C   UNL     1       7.683   5.474  18.905  0.00  0.00    -0.031 C 
ATOM     56  C   UNL     1       8.112   6.909  18.577  0.00  0.00    -0.048 C 
ATOM     57  C   UNL     1       7.699   7.321  17.167  0.00  0.00    -0.040 C 
ATOM     58  C   UNL     1       6.221   7.028  16.906  0.00  0.00    -0.001 C 
ATOM     59  N   UNL     1       5.902   5.616  17.161  0.00  0.00    -0.298 NA
ATOM     60  C   UNL     1       6.196   5.273  18.566  0.00  0.00    +0.002 C 
ATOM     61  H   UNL     1       7.812   5.320  19.985  0.00  0.00    +0.031 HD
ATOM     62  H   UNL     1       7.641   7.593  19.295  0.00  0.00    +0.027 HD
ATOM     63  H   UNL     1       9.195   7.026  18.698  0.00  0.00    +0.027 HD
ATOM     64  H   UNL     1       8.315   6.793  16.430  0.00  0.00    +0.028 HD
ATOM     65  H   UNL     1       7.891   8.391  17.029  0.00  0.00    +0.028 HD
ATOM     66  H   UNL     1       6.011   7.274  15.858  0.00  0.00    +0.043 HD
ATOM     67  H   UNL     1       5.598   7.689  17.525  0.00  0.00    +0.043 HD
ATOM     68  H   UNL     1       5.942   4.225  18.769  0.00  0.00    +0.043 HD
ATOM     69  H   UNL     1       5.582   5.883  19.243  0.00  0.00    +0.043 HD
BRANCH  55  70
ATOM     70  C   UNL     1       8.565   4.444  18.192  0.00  0.00    -0.061 C 
ATOM     71  H   UNL     1       8.747   4.748  17.156  0.00  0.00    +0.023 HD
ATOM     72  H   UNL     1       9.537   4.318  18.679  0.00  0.00    +0.023 HD
ATOM     73  H   UNL     1       8.073   3.466  18.168  0.00  0.00    +0.023 HD
ENDBRANCH  55  70
ENDBRANCH  52  59
ENDBRANCH   1  52
TORSDOF 9
ENDMDL
MODEL 11
REMARK VINA RESULT:    -7.836      2.118      2.643
REMARK INTER + INTRA:         -12.044
REMARK INTER:                 -10.742
REMARK INTRA:                  -1.302
REMARK UNBOUND:                -0.772
REMARK  Name = 
REMARK  9 active torsions:
REMARK  status: ('A' for Active; 'I' for Inactive)
REMARK    1  A    between atoms: C_1  and  C_2
REMARK    2  A    between atoms: N_6  and  C_7
REMARK    3  A    between atoms: C_7  and  C_8
REMARK    4  A    between atoms: C_12  and  C_13
REMARK    5  A    between atoms: N_19  and  C_20
REMARK    6  A    between atoms: C_24  and  C_25
REMARK    7  A    between atoms: C_25  and  C_26
REMARK    8  A    between atoms: N_30  and  C_31
REMARK    9  A    between atoms: C_33  and  C_34
REMARK                            x       y       z     vdW  Elec       q    Type
REMARK                         _______ _______ _______ _____ _____    ______ ____
ROOT
ATOM      1  C   UNL     1      -0.568  11.527  21.230  0.00  0.00    -0.032 A 
ATOM      2  C   UNL     1       0.396  10.593  21.633  0.00  0.00    -0.045 A 
ATOM      3  C   UNL     1       0.745   9.598  20.738  0.00  0.00    +0.043 A 
ATOM      4  C   UNL     1       0.177   9.485  19.474  0.00  0.00    -0.006 A 
ATOM      5  C   UNL     1      -0.792  10.388  19.049  0.00  0.00    +0.061 A 
ATOM      6  C   UNL     1      -1.156  11.411  19.946  0.00  0.00    -0.045 A 
ATOM      7  C   UNL     1       0.773   8.315  18.762  0.00  0.00    +0.046 C 
ATOM      8  N   UNL     1       1.744   7.790  19.713  0.00  0.00    -0.263 N 
ATOM      9  C   UNL     1       1.729   8.521  20.906  0.00  0.00    +0.251 C 
ATOM     10  O   UNL     1       2.347   8.380  21.944  0.00  0.00    -0.270 OA
ATOM     11  H   UNL     1       0.872  10.641  22.608  0.00  0.00    +0.063 HD
ATOM     12  H   UNL     1      -1.903  12.151  19.647  0.00  0.00    +0.063 HD
ATOM     13  H   UNL     1       1.286   8.635  17.849  0.00  0.00    +0.052 HD
ATOM     14  H   UNL     1       0.010   7.558  18.559  0.00  0.00    +0.052 HD
ENDROOT
BRANCH   8  15
ATOM     15  C   UNL     1       2.567   6.668  19.416  0.00  0.00    +0.037 A 
ATOM     16  C   UNL     1       2.374   5.448  20.073  0.00  0.00    -0.040 A 
ATOM     17  C   UNL     1       3.189   4.350  19.796  0.00  0.00    -0.060 A 
ATOM     18  C   UNL     1       4.212   4.452  18.855  0.00  0.00    -0.058 A 
ATOM     19  C   UNL     1       4.451   5.645  18.150  0.00  0.00    -0.032 A 
ATOM     20  C   UNL     1       3.595   6.734  18.460  0.00  0.00    -0.036 A 
ATOM     21  H   UNL     1       1.599   5.318  20.822  0.00  0.00    +0.064 HD
ATOM     22  H   UNL     1       3.030   3.413  20.324  0.00  0.00    +0.062 HD
ATOM     23  H   UNL     1       4.830   3.577  18.672  0.00  0.00    +0.062 HD
ATOM     24  H   UNL     1       3.762   7.653  17.900  0.00  0.00    +0.064 HD
BRANCH  19  25
ATOM     25  C   UNL     1       5.618   5.804  17.046  0.00  0.00    +0.056 C 
ATOM     26  C   UNL     1       5.226   6.053  15.543  0.00  0.00    -0.034 C 
ATOM     27  C   UNL     1       5.265   4.522  15.331  0.00  0.00    -0.041 C 
ATOM     28  C   UNL     1       6.259   4.463  16.514  0.00  0.00    -0.034 C 
ATOM     29  H   UNL     1       5.981   6.601  14.963  0.00  0.00    +0.028 HD
ATOM     30  H   UNL     1       4.255   6.515  15.344  0.00  0.00    +0.028 HD
ATOM     31  H   UNL     1       4.304   4.046  15.571  0.00  0.00    +0.030 HD
ATOM     32  H   UNL     1       6.156   3.580  17.150  0.00  0.00    +0.028 HD
ATOM     33  H   UNL     1       7.312   4.539  16.212  0.00  0.00    +0.028 HD
BRANCH  25  34
ATOM     34  C   UNL     1       6.708   6.832  17.556  0.00  0.00    +0.144 A 
ATOM     35  N   UNL     1       6.827   8.060  17.088  0.00  0.00    -0.134 NA
ATOM     36  N   UNL     1       7.856   8.675  17.760  0.00  0.00    -0.138 NA
ATOM     37  C   UNL     1       8.344   7.808  18.617  0.00  0.00    +0.120 A 
ATOM     38  N   UNL     1       7.666   6.632  18.512  0.00  0.00    -0.320 N 
ATOM     39  H   UNL     1       9.162   7.982  19.301  0.00  0.00    +0.105 HD
BRANCH  38  40
ATOM     40  C   UNL     1       7.934   5.439  19.264  0.00  0.00    +0.014 C 
ATOM     41  H   UNL     1       8.998   5.397  19.508  0.00  0.00    +0.046 HD
ATOM     42  H   UNL     1       7.672   4.564  18.665  0.00  0.00    +0.046 HD
ATOM     43  H   UNL     1       7.330   5.455  20.174  0.00  0.00    +0.046 HD
ENDBRANCH  38  40
ENDBRANCH  25  34
BRANCH  27  44
ATOM     44  C   UNL     1       5.778   4.041  13.988  0.00  0.00    -0.062 C 
ATOM     45  H   UNL     1       6.411   4.802  13.524  0.00  0.00    +0.023 HD
ATOM     46  H   UNL     1       6.378   3.133  14.109  0.00  0.00    +0.023 HD
ATOM     47  H   UNL     1       4.960   3.814  13.299  0.00  0.00    +0.023 HD
ENDBRANCH  27  44
ENDBRANCH  19  25
ENDBRANCH   8  15
BRANCH   5  48
ATOM     48  C   UNL     1      -1.405  10.285  17.679  0.00  0.00    +0.418 C 
ATOM     49  F   UNL     1      -2.607   9.647  17.700  0.00  0.00    -0.166 F 
ATOM     50  F   UNL     1      -0.638   9.620  16.773  0.00  0.00    -0.166 F 
ATOM     51  F   UNL     1      -1.651  11.511  17.134  0.00  0.00    -0.166 F 
ENDBRANCH   5  48
BRANCH   1  52
ATOM     52  C   UNL     1      -0.986  12.649  22.162  0.00  0.00    +0.024 C 
ATOM     53  H   UNL     1      -0.561  13.605  21.835  0.00  0.00    +0.048 HD
ATOM     54  H   UNL     1      -0.527  12.421  23.133  0.00  0.00    +0.048 HD
BRANCH  52  59
ATOM     55  C   UNL     1      -4.493  14.094  21.809  0.00  0.00    -0.031 C 
ATOM     56  C   UNL     1      -4.974  13.887  23.250  0.00  0.00    -0.048 C 
ATOM     57  C   UNL     1      -4.351  12.647  23.888  0.00  0.00    -0.040 C 
ATOM     58  C   UNL     1      -2.832  12.630  23.720  0.00  0.00    -0.001 C 
ATOM     59  N   UNL     1      -2.449  12.749  22.305  0.00  0.00    -0.298 NA
ATOM     60  C   UNL     1      -2.958  14.016  21.744  0.00  0.00    +0.002 C 
ATOM     61  H   UNL     1      -4.799  15.100  21.492  0.00  0.00    +0.031 HD
ATOM     62  H   UNL     1      -4.695  14.765  23.847  0.00  0.00    +0.027 HD
ATOM     63  H   UNL     1      -6.067  13.817  23.287  0.00  0.00    +0.027 HD
ATOM     64  H   UNL     1      -4.781  11.744  23.439  0.00  0.00    +0.028 HD
ATOM     65  H   UNL     1      -4.603  12.619  24.954  0.00  0.00    +0.028 HD
ATOM     66  H   UNL     1      -2.460  11.683  24.128  0.00  0.00    +0.043 HD
ATOM     67  H   UNL     1      -2.385  13.438  24.316  0.00  0.00    +0.043 HD
ATOM     68  H   UNL     1      -2.659  14.121  20.694  0.00  0.00    +0.043 HD
ATOM     69  H   UNL     1      -2.526  14.872  22.281  0.00  0.00    +0.043 HD
BRANCH  55  70
ATOM     70  C   UNL     1      -5.147  13.096  20.847  0.00  0.00    -0.061 C 
ATOM     71  H   UNL     1      -6.236  13.131  20.942  0.00  0.00    +0.023 HD
ATOM     72  H   UNL     1      -4.896  13.299  19.802  0.00  0.00    +0.023 HD
ATOM     73  H   UNL     1      -4.827  12.074  21.077  0.00  0.00    +0.023 HD
ENDBRANCH  55  70
ENDBRANCH  52  59
ENDBRANCH   1  52
TORSDOF 9
ENDMDL
MODEL 12
REMARK VINA RESULT:    -7.348      1.396      2.770
REMARK INTER + INTRA:         -11.341
REMARK INTER:                 -10.465
REMARK INTRA:                  -0.877
REMARK UNBOUND:                -0.772
REMARK  Name = 
REMARK  9 active torsions:
REMARK  status: ('A' for Active; 'I' for Inactive)
REMARK    1  A    between atoms: C_1  and  C_2
REMARK    2  A    between atoms: N_6  and  C_7
REMARK    3  A    between atoms: C_7  and  C_8
REMARK    4  A    between atoms: C_12  and  C_13
REMARK    5  A    between atoms: N_19  and  C_20
REMARK    6  A    between atoms: C_24  and  C_25
REMARK    7  A    between atoms: C_25  and  C_26
REMARK    8  A    between atoms: N_30  and  C_31
REMARK    9  A    between atoms: C_33  and  C_34
REMARK                            x       y       z     vdW  Elec       q    Type
REMARK                         _______ _______ _______ _____ _____    ______ ____
ROOT
ATOM      1  C   UNL     1      -0.210  11.824  19.839  0.00  0.00    -0.032 A 
ATOM      2  C   UNL     1       0.463  11.023  18.907  0.00  0.00    -0.045 A 
ATOM      3  C   UNL     1       0.888   9.772  19.317  0.00  0.00    +0.043 A 
ATOM      4  C   UNL     1       0.683   9.289  20.604  0.00  0.00    -0.006 A 
ATOM      5  C   UNL     1       0.030  10.064  21.557  0.00  0.00    +0.061 A 
ATOM      6  C   UNL     1      -0.414  11.339  21.155  0.00  0.00    -0.045 A 
ATOM      7  C   UNL     1       1.254   7.914  20.718  0.00  0.00    +0.046 C 
ATOM      8  N   UNL     1       1.775   7.644  19.384  0.00  0.00    -0.263 N 
ATOM      9  C   UNL     1       1.591   8.744  18.538  0.00  0.00    +0.251 C 
ATOM     10  O   UNL     1       1.917   8.934  17.382  0.00  0.00    -0.270 OA
ATOM     11  H   UNL     1       0.644  11.353  17.888  0.00  0.00    +0.063 HD
ATOM     12  H   UNL     1      -0.945  11.976  21.867  0.00  0.00    +0.063 HD
ATOM     13  H   UNL     1       0.473   7.186  20.963  0.00  0.00    +0.052 HD
ATOM     14  H   UNL     1       2.073   7.895  21.444  0.00  0.00    +0.052 HD
ENDROOT
BRANCH   8  15
ATOM     15  C   UNL     1       2.391   6.408  19.045  0.00  0.00    +0.037 A 
ATOM     16  C   UNL     1       1.690   5.203  19.170  0.00  0.00    -0.040 A 
ATOM     17  C   UNL     1       2.296   3.988  18.851  0.00  0.00    -0.060 A 
ATOM     18  C   UNL     1       3.615   3.955  18.402  0.00  0.00    -0.058 A 
ATOM     19  C   UNL     1       4.371   5.130  18.241  0.00  0.00    -0.032 A 
ATOM     20  C   UNL     1       3.712   6.343  18.571  0.00  0.00    -0.036 A 
ATOM     21  H   UNL     1       0.665   5.173  19.525  0.00  0.00    +0.064 HD
ATOM     22  H   UNL     1       1.739   3.061  18.964  0.00  0.00    +0.062 HD
ATOM     23  H   UNL     1       4.054   2.987  18.171  0.00  0.00    +0.062 HD
ATOM     24  H   UNL     1       4.286   7.257  18.427  0.00  0.00    +0.064 HD
BRANCH  19  25
ATOM     25  C   UNL     1       5.897   5.137  17.714  0.00  0.00    +0.056 C 
ATOM     26  C   UNL     1       6.995   4.360  18.529  0.00  0.00    -0.034 C 
ATOM     27  C   UNL     1       7.279   5.670  19.300  0.00  0.00    -0.041 C 
ATOM     28  C   UNL     1       6.745   6.423  18.060  0.00  0.00    -0.034 C 
ATOM     29  H   UNL     1       7.843   4.008  17.925  0.00  0.00    +0.028 HD
ATOM     30  H   UNL     1       6.665   3.527  19.156  0.00  0.00    +0.028 HD
ATOM     31  H   UNL     1       6.622   5.788  20.173  0.00  0.00    +0.030 HD
ATOM     32  H   UNL     1       6.188   7.336  18.288  0.00  0.00    +0.028 HD
ATOM     33  H   UNL     1       7.523   6.678  17.327  0.00  0.00    +0.028 HD
BRANCH  25  34
ATOM     34  C   UNL     1       5.938   4.785  16.172  0.00  0.00    +0.144 A 
ATOM     35  N   UNL     1       6.406   3.647  15.697  0.00  0.00    -0.134 NA
ATOM     36  N   UNL     1       6.275   3.669  14.329  0.00  0.00    -0.138 NA
ATOM     37  C   UNL     1       5.736   4.821  14.002  0.00  0.00    +0.120 A 
ATOM     38  N   UNL     1       5.523   5.561  15.124  0.00  0.00    -0.320 N 
ATOM     39  H   UNL     1       5.501   5.150  12.999  0.00  0.00    +0.105 HD
BRANCH  38  40
ATOM     40  C   UNL     1       4.978   6.889  15.163  0.00  0.00    +0.014 C 
ATOM     41  H   UNL     1       4.407   7.071  14.251  0.00  0.00    +0.046 HD
ATOM     42  H   UNL     1       5.793   7.615  15.223  0.00  0.00    +0.046 HD
ATOM     43  H   UNL     1       4.340   6.979  16.045  0.00  0.00    +0.046 HD
ENDBRANCH  38  40
ENDBRANCH  25  34
BRANCH  27  44
ATOM     44  C   UNL     1       8.724   5.928  19.682  0.00  0.00    -0.062 C 
ATOM     45  H   UNL     1       9.122   5.092  20.264  0.00  0.00    +0.023 HD
ATOM     46  H   UNL     1       9.344   6.039  18.786  0.00  0.00    +0.023 HD
ATOM     47  H   UNL     1       8.829   6.838  20.278  0.00  0.00    +0.023 HD
ENDBRANCH  27  44
ENDBRANCH  19  25
ENDBRANCH   8  15
BRANCH   5  48
ATOM     48  C   UNL     1      -0.209   9.549  22.950  0.00  0.00    +0.418 C 
ATOM     49  F   UNL     1      -0.882   8.366  22.953  0.00  0.00    -0.166 F 
ATOM     50  F   UNL     1      -0.924  10.394  23.741  0.00  0.00    -0.166 F 
ATOM     51  F   UNL     1       0.957   9.309  23.615  0.00  0.00    -0.166 F 
ENDBRANCH   5  48
BRANCH   1  52
ATOM     52  C   UNL     1      -0.710  13.201  19.447  0.00  0.00    +0.024 C 
ATOM     53  H   UNL     1      -0.479  13.415  18.396  0.00  0.00    +0.048 HD
ATOM     54  H   UNL     1      -0.126  13.915  20.044  0.00  0.00    +0.048 HD
BRANCH  52  59
ATOM     55  C   UNL     1      -3.891  13.942  21.408  0.00  0.00    -0.031 C 
ATOM     56  C   UNL     1      -4.744  12.766  20.917  0.00  0.00    -0.048 C 
ATOM     57  C   UNL     1      -4.399  12.370  19.484  0.00  0.00    -0.040 C 
ATOM     58  C   UNL     1      -2.894  12.179  19.298  0.00  0.00    -0.001 C 
ATOM     59  N   UNL     1      -2.148  13.378  19.712  0.00  0.00    -0.298 NA
ATOM     60  C   UNL     1      -2.401  13.670  21.136  0.00  0.00    +0.002 C 
ATOM     61  H   UNL     1      -4.031  14.031  22.493  0.00  0.00    +0.031 HD
ATOM     62  H   UNL     1      -4.568  11.902  21.571  0.00  0.00    +0.027 HD
ATOM     63  H   UNL     1      -5.811  13.004  20.993  0.00  0.00    +0.027 HD
ATOM     64  H   UNL     1      -4.762  13.137  18.789  0.00  0.00    +0.028 HD
ATOM     65  H   UNL     1      -4.921  11.441  19.226  0.00  0.00    +0.028 HD
ATOM     66  H   UNL     1      -2.710  11.974  18.237  0.00  0.00    +0.043 HD
ATOM     67  H   UNL     1      -2.560  11.297  19.861  0.00  0.00    +0.043 HD
ATOM     68  H   UNL     1      -1.833  14.551  21.457  0.00  0.00    +0.043 HD
ATOM     69  H   UNL     1      -2.064  12.832  21.762  0.00  0.00    +0.043 HD
BRANCH  55  70
ATOM     70  C   UNL     1      -4.343  15.266  20.782  0.00  0.00    -0.061 C 
ATOM     71  H   UNL     1      -4.602  15.988  21.562  0.00  0.00    +0.023 HD
ATOM     72  H   UNL     1      -3.568  15.717  20.154  0.00  0.00    +0.023 HD
ATOM     73  H   UNL     1      -5.232  15.115  20.161  0.00  0.00    +0.023 HD
ENDBRANCH  55  70
ENDBRANCH  52  59
ENDBRANCH   1  52
TORSDOF 9
ENDMDL
MODEL 13
REMARK VINA RESULT:    -7.135      3.185      4.617
REMARK INTER + INTRA:         -11.035
REMARK INTER:                 -10.569
REMARK INTRA:                  -0.466
REMARK UNBOUND:                -0.772
REMARK  Name = 
REMARK  9 active torsions:
REMARK  status: ('A' for Active; 'I' for Inactive)
REMARK    1  A    between atoms: C_1  and  C_2
REMARK    2  A    between atoms: N_6  and  C_7
REMARK    3  A    between atoms: C_7  and  C_8
REMARK    4  A    between atoms: C_12  and  C_13
REMARK    5  A    between atoms: N_19  and  C_20
REMARK    6  A    between atoms: C_24  and  C_25
REMARK    7  A    between atoms: C_25  and  C_26
REMARK    8  A    between atoms: N_30  and  C_31
REMARK    9  A    between atoms: C_33  and  C_34
REMARK                            x       y       z     vdW  Elec       q    Type
REMARK                         _______ _______ _______ _____ _____    ______ ____
ROOT
ATOM      1  C   UNL     1      -3.397  12.162  19.612  0.00  0.00    -0.032 A 
ATOM      2  C   UNL     1      -2.147  11.742  20.086  0.00  0.00    -0.045 A 
ATOM      3  C   UNL     1      -1.374  10.948  19.258  0.00  0.00    +0.043 A 
ATOM      4  C   UNL     1      -1.789  10.549  17.993  0.00  0.00    -0.006 A 
ATOM      5  C   UNL     1      -3.030  10.938  17.498  0.00  0.00    +0.061 A 
ATOM      6  C   UNL     1      -3.828  11.750  18.326  0.00  0.00    -0.045 A 
ATOM      7  C   UNL     1      -0.727   9.710  17.362  0.00  0.00    +0.046 C 
ATOM      8  N   UNL     1       0.334   9.688  18.359  0.00  0.00    -0.263 N 
ATOM      9  C   UNL     1      -0.036  10.397  19.508  0.00  0.00    +0.251 C 
ATOM     10  O   UNL     1       0.540  10.578  20.563  0.00  0.00    -0.270 OA
ATOM     11  H   UNL     1      -1.776  12.031  21.066  0.00  0.00    +0.063 HD
ATOM     12  H   UNL     1      -4.803  12.091  17.971  0.00  0.00    +0.063 HD
ATOM     13  H   UNL     1      -0.359  10.174  16.441  0.00  0.00    +0.052 HD
ATOM     14  H   UNL     1      -1.092   8.692  17.189  0.00  0.00    +0.052 HD
ENDROOT
BRANCH   8  15
ATOM     15  C   UNL     1       1.565   9.007  18.144  0.00  0.00    +0.037 A 
ATOM     16  C   UNL     1       2.694   9.699  17.693  0.00  0.00    -0.040 A 
ATOM     17  C   UNL     1       3.898   9.032  17.467  0.00  0.00    -0.060 A 
ATOM     18  C   UNL     1       3.995   7.659  17.689  0.00  0.00    -0.058 A 
ATOM     19  C   UNL     1       2.902   6.907  18.155  0.00  0.00    -0.032 A 
ATOM     20  C   UNL     1       1.700   7.628  18.376  0.00  0.00    -0.036 A 
ATOM     21  H   UNL     1       2.669  10.766  17.495  0.00  0.00    +0.064 HD
ATOM     22  H   UNL     1       4.763   9.585  17.107  0.00  0.00    +0.062 HD
ATOM     23  H   UNL     1       4.949   7.174  17.494  0.00  0.00    +0.062 HD
ATOM     24  H   UNL     1       0.857   7.053  18.758  0.00  0.00    +0.064 HD
BRANCH  19  25
ATOM     25  C   UNL     1       2.974   5.318  18.434  0.00  0.00    +0.056 C 
ATOM     26  C   UNL     1       1.675   4.448  18.261  0.00  0.00    -0.034 C 
ATOM     27  C   UNL     1       1.383   4.675  19.762  0.00  0.00    -0.041 C 
ATOM     28  C   UNL     1       2.905   4.874  19.947  0.00  0.00    -0.034 C 
ATOM     29  H   UNL     1       1.865   3.398  18.000  0.00  0.00    +0.028 HD
ATOM     30  H   UNL     1       0.901   4.824  17.585  0.00  0.00    +0.028 HD
ATOM     31  H   UNL     1       0.818   5.602  19.939  0.00  0.00    +0.030 HD
ATOM     32  H   UNL     1       3.177   5.625  20.695  0.00  0.00    +0.028 HD
ATOM     33  H   UNL     1       3.447   3.950  20.185  0.00  0.00    +0.028 HD
BRANCH  25  34
ATOM     34  C   UNL     1       4.216   4.692  17.679  0.00  0.00    +0.144 A 
ATOM     35  N   UNL     1       4.123   4.056  16.527  0.00  0.00    -0.134 NA
ATOM     36  N   UNL     1       5.386   3.663  16.153  0.00  0.00    -0.138 NA
ATOM     37  C   UNL     1       6.218   4.063  17.087  0.00  0.00    +0.120 A 
ATOM     38  N   UNL     1       5.526   4.699  18.072  0.00  0.00    -0.320 N 
ATOM     39  H   UNL     1       7.288   3.911  17.092  0.00  0.00    +0.105 HD
BRANCH  38  40
ATOM     40  C   UNL     1       6.090   5.247  19.273  0.00  0.00    +0.014 C 
ATOM     41  H   UNL     1       6.263   6.316  19.136  0.00  0.00    +0.046 HD
ATOM     42  H   UNL     1       7.043   4.757  19.485  0.00  0.00    +0.046 HD
ATOM     43  H   UNL     1       5.396   5.071  20.098  0.00  0.00    +0.046 HD
ENDBRANCH  38  40
ENDBRANCH  25  34
BRANCH  27  44
ATOM     44  C   UNL     1       0.754   3.516  20.509  0.00  0.00    -0.062 C 
ATOM     45  H   UNL     1      -0.085   3.103  19.942  0.00  0.00    +0.023 HD
ATOM     46  H   UNL     1       1.484   2.714  20.660  0.00  0.00    +0.023 HD
ATOM     47  H   UNL     1       0.382   3.821  21.491  0.00  0.00    +0.023 HD
ENDBRANCH  27  44
ENDBRANCH  19  25
ENDBRANCH   8  15
BRANCH   5  48
ATOM     48  C   UNL     1      -3.485  10.523  16.125  0.00  0.00    +0.418 C 
ATOM     49  F   UNL     1      -4.791  10.833  15.900  0.00  0.00    -0.166 F 
ATOM     50  F   UNL     1      -3.364   9.191  15.877  0.00  0.00    -0.166 F 
ATOM     51  F   UNL     1      -2.784  11.154  15.140  0.00  0.00    -0.166 F 
ENDBRANCH   5  48
BRANCH   1  52
ATOM     52  C   UNL     1      -4.287  13.042  20.469  0.00  0.00    +0.024 C 
ATOM     53  H   UNL     1      -5.327  12.696  20.434  0.00  0.00    +0.048 HD
ATOM     54  H   UNL     1      -4.274  14.034  19.997  0.00  0.00    +0.048 HD
BRANCH  52  59
ATOM     55  C   UNL     1      -4.421  13.672  24.223  0.00  0.00    -0.031 C 
ATOM     56  C   UNL     1      -3.127  14.481  24.368  0.00  0.00    -0.048 C 
ATOM     57  C   UNL     1      -2.066  14.047  23.361  0.00  0.00    -0.040 C 
ATOM     58  C   UNL     1      -2.625  13.999  21.938  0.00  0.00    -0.001 C 
ATOM     59  N   UNL     1      -3.816  13.138  21.861  0.00  0.00    -0.298 NA
ATOM     60  C   UNL     1      -4.874  13.650  22.753  0.00  0.00    +0.002 C 
ATOM     61  H   UNL     1      -5.201  14.172  24.814  0.00  0.00    +0.031 HD
ATOM     62  H   UNL     1      -3.352  15.544  24.204  0.00  0.00    +0.027 HD
ATOM     63  H   UNL     1      -2.732  14.399  25.387  0.00  0.00    +0.027 HD
ATOM     64  H   UNL     1      -1.675  13.060  23.636  0.00  0.00    +0.028 HD
ATOM     65  H   UNL     1      -1.220  14.742  23.399  0.00  0.00    +0.028 HD
ATOM     66  H   UNL     1      -1.839  13.607  21.283  0.00  0.00    +0.043 HD
ATOM     67  H   UNL     1      -2.856  15.017  21.597  0.00  0.00    +0.043 HD
ATOM     68  H   UNL     1      -5.772  13.025  22.685  0.00  0.00    +0.043 HD
ATOM     69  H   UNL     1      -5.172  14.663  22.448  0.00  0.00    +0.043 HD
BRANCH  55  70
ATOM     70  C   UNL     1      -4.266  12.254  24.784  0.00  0.00    -0.061 C 
ATOM     71  H   UNL     1      -5.237  11.751  24.824  0.00  0.00    +0.023 HD
ATOM     72  H   UNL     1      -3.595  11.638  24.179  0.00  0.00    +0.023 HD
ATOM     73  H   UNL     1      -3.867  12.286  25.803  0.00  0.00    +0.023 HD
ENDBRANCH  55  70
ENDBRANCH  52  59
ENDBRANCH   1  52
TORSDOF 9
ENDMDL
MODEL 14
REMARK VINA RESULT:    -7.028      2.517      2.988
REMARK INTER + INTRA:         -10.881
REMARK INTER:                  -9.707
REMARK INTRA:                  -1.174
REMARK UNBOUND:                -0.772
REMARK  Name = 
REMARK  9 active torsions:
REMARK  status: ('A' for Active; 'I' for Inactive)
REMARK    1  A    between atoms: C_1  and  C_2
REMARK    2  A    between atoms: N_6  and  C_7
REMARK    3  A    between atoms: C_7  and  C_8
REMARK    4  A    between atoms: C_12  and  C_13
REMARK    5  A    between atoms: N_19  and  C_20
REMARK    6  A    between atoms: C_24  and  C_25
REMARK    7  A    between atoms: C_25  and  C_26
REMARK    8  A    between atoms: N_30  and  C_31
REMARK    9  A    between atoms: C_33  and  C_34
REMARK                            x       y       z     vdW  Elec       q    Type
REMARK                         _______ _______ _______ _____ _____    ______ ____
ROOT
ATOM      1  C   UNL     1      -1.042  12.573  19.951  0.00  0.00    -0.032 A 
ATOM      2  C   UNL     1      -0.987  11.191  20.173  0.00  0.00    -0.045 A 
ATOM      3  C   UNL     1       0.131  10.508  19.726  0.00  0.00    +0.043 A 
ATOM      4  C   UNL     1       1.184  11.132  19.068  0.00  0.00    -0.006 A 
ATOM      5  C   UNL     1       1.154  12.501  18.820  0.00  0.00    +0.061 A 
ATOM      6  C   UNL     1       0.025  13.212  19.271  0.00  0.00    -0.045 A 
ATOM      7  C   UNL     1       2.229  10.121  18.727  0.00  0.00    +0.046 C 
ATOM      8  N   UNL     1       1.697   8.878  19.270  0.00  0.00    -0.263 N 
ATOM      9  C   UNL     1       0.438   9.077  19.849  0.00  0.00    +0.251 C 
ATOM     10  O   UNL     1      -0.343   8.300  20.364  0.00  0.00    -0.270 OA
ATOM     11  H   UNL     1      -1.781  10.657  20.686  0.00  0.00    +0.063 HD
ATOM     12  H   UNL     1      -0.033  14.292  19.112  0.00  0.00    +0.063 HD
ATOM     13  H   UNL     1       3.178  10.362  19.217  0.00  0.00    +0.052 HD
ATOM     14  H   UNL     1       2.340  10.032  17.642  0.00  0.00    +0.052 HD
ENDROOT
BRANCH   8  15
ATOM     15  C   UNL     1       2.405   7.648  19.185  0.00  0.00    +0.037 A 
ATOM     16  C   UNL     1       2.055   6.565  19.999  0.00  0.00    -0.040 A 
ATOM     17  C   UNL     1       2.757   5.361  19.928  0.00  0.00    -0.060 A 
ATOM     18  C   UNL     1       3.823   5.218  19.041  0.00  0.00    -0.058 A 
ATOM     19  C   UNL     1       4.217   6.263  18.186  0.00  0.00    -0.032 A 
ATOM     20  C   UNL     1       3.472   7.466  18.288  0.00  0.00    -0.036 A 
ATOM     21  H   UNL     1       1.241   6.627  20.713  0.00  0.00    +0.064 HD
ATOM     22  H   UNL     1       2.476   4.534  20.575  0.00  0.00    +0.062 HD
ATOM     23  H   UNL     1       4.349   4.267  19.021  0.00  0.00    +0.062 HD
ATOM     24  H   UNL     1       3.760   8.270  17.612  0.00  0.00    +0.064 HD
BRANCH  19  25
ATOM     25  C   UNL     1       5.439   6.137  17.138  0.00  0.00    +0.056 C 
ATOM     26  C   UNL     1       5.155   6.316  15.601  0.00  0.00    -0.034 C 
ATOM     27  C   UNL     1       4.949   4.787  15.511  0.00  0.00    -0.041 C 
ATOM     28  C   UNL     1       5.871   4.669  16.747  0.00  0.00    -0.034 C 
ATOM     29  H   UNL     1       6.013   6.684  15.022  0.00  0.00    +0.028 HD
ATOM     30  H   UNL     1       4.282   6.910  15.315  0.00  0.00    +0.028 HD
ATOM     31  H   UNL     1       3.913   4.494  15.735  0.00  0.00    +0.030 HD
ATOM     32  H   UNL     1       5.597   3.872  17.443  0.00  0.00    +0.028 HD
ATOM     33  H   UNL     1       6.933   4.548  16.498  0.00  0.00    +0.028 HD
BRANCH  25  34
ATOM     34  C   UNL     1       6.662   7.015  17.625  0.00  0.00    +0.144 A 
ATOM     35  N   UNL     1       6.936   8.212  17.145  0.00  0.00    -0.134 NA
ATOM     36  N   UNL     1       8.046   8.691  17.799  0.00  0.00    -0.138 NA
ATOM     37  C   UNL     1       8.426   7.774  18.657  0.00  0.00    +0.120 A 
ATOM     38  N   UNL     1       7.597   6.697  18.572  0.00  0.00    -0.320 N 
ATOM     39  H   UNL     1       9.270   7.843  19.329  0.00  0.00    +0.105 HD
BRANCH  38  40
ATOM     40  C   UNL     1       7.715   5.485  19.332  0.00  0.00    +0.014 C 
ATOM     41  H   UNL     1       8.648   5.504  19.900  0.00  0.00    +0.046 HD
ATOM     42  H   UNL     1       7.730   4.629  18.653  0.00  0.00    +0.046 HD
ATOM     43  H   UNL     1       6.856   5.407  20.002  0.00  0.00    +0.046 HD
ENDBRANCH  38  40
ENDBRANCH  25  34
BRANCH  27  44
ATOM     44  C   UNL     1       5.430   4.116  14.239  0.00  0.00    -0.062 C 
ATOM     45  H   UNL     1       6.506   3.930  14.287  0.00  0.00    +0.023 HD
ATOM     46  H   UNL     1       4.928   3.154  14.098  0.00  0.00    +0.023 HD
ATOM     47  H   UNL     1       5.232   4.732  13.357  0.00  0.00    +0.023 HD
ENDBRANCH  27  44
ENDBRANCH  19  25
ENDBRANCH   8  15
BRANCH   5  48
ATOM     48  C   UNL     1       2.292  13.191  18.119  0.00  0.00    +0.418 C 
ATOM     49  F   UNL     1       1.970  14.458  17.738  0.00  0.00    -0.166 F 
ATOM     50  F   UNL     1       2.722  12.555  16.996  0.00  0.00    -0.166 F 
ATOM     51  F   UNL     1       3.388  13.318  18.922  0.00  0.00    -0.166 F 
ENDBRANCH   5  48
BRANCH   1  52
ATOM     52  C   UNL     1      -2.236  13.379  20.425  0.00  0.00    +0.024 C 
ATOM     53  H   UNL     1      -3.160  13.017  19.958  0.00  0.00    +0.048 HD
ATOM     54  H   UNL     1      -2.079  14.400  20.052  0.00  0.00    +0.048 HD
BRANCH  52  59
ATOM     55  C   UNL     1      -3.880  13.775  23.839  0.00  0.00    -0.031 C 
ATOM     56  C   UNL     1      -2.776  14.580  24.534  0.00  0.00    -0.048 C 
ATOM     57  C   UNL     1      -1.388  14.214  24.015  0.00  0.00    -0.040 C 
ATOM     58  C   UNL     1      -1.330  14.251  22.487  0.00  0.00    -0.001 C 
ATOM     59  N   UNL     1      -2.364  13.391  21.892  0.00  0.00    -0.298 NA
ATOM     60  C   UNL     1      -3.705  13.841  22.312  0.00  0.00    +0.002 C 
ATOM     61  H   UNL     1      -4.845  14.233  24.094  0.00  0.00    +0.031 HD
ATOM     62  H   UNL     1      -2.947  15.649  24.352  0.00  0.00    +0.027 HD
ATOM     63  H   UNL     1      -2.818  14.437  25.620  0.00  0.00    +0.027 HD
ATOM     64  H   UNL     1      -1.111  13.215  24.370  0.00  0.00    +0.028 HD
ATOM     65  H   UNL     1      -0.649  14.910  24.427  0.00  0.00    +0.028 HD
ATOM     66  H   UNL     1      -0.336  13.905  22.181  0.00  0.00    +0.043 HD
ATOM     67  H   UNL     1      -1.435  15.288  22.138  0.00  0.00    +0.043 HD
ATOM     68  H   UNL     1      -4.483  13.216  21.855  0.00  0.00    +0.043 HD
ATOM     69  H   UNL     1      -3.887  14.869  21.969  0.00  0.00    +0.043 HD
BRANCH  55  70
ATOM     70  C   UNL     1      -3.920  12.326  24.336  0.00  0.00    -0.061 C 
ATOM     71  H   UNL     1      -3.439  12.244  25.316  0.00  0.00    +0.023 HD
ATOM     72  H   UNL     1      -4.941  11.945  24.432  0.00  0.00    +0.023 HD
ATOM     73  H   UNL     1      -3.380  11.667  23.647  0.00  0.00    +0.023 HD
ENDBRANCH  55  70
ENDBRANCH  52  59
ENDBRANCH   1  52
TORSDOF 9
ENDMDL
MODEL 15
REMARK VINA RESULT:    -6.595      2.502     10.120
REMARK INTER + INTRA:         -10.258
REMARK INTER:                 -10.242
REMARK INTRA:                  -0.016
REMARK UNBOUND:                -0.772
REMARK  Name = 
REMARK  9 active torsions:
REMARK  status: ('A' for Active; 'I' for Inactive)
REMARK    1  A    between atoms: C_1  and  C_2
REMARK    2  A    between atoms: N_6  and  C_7
REMARK    3  A    between atoms: C_7  and  C_8
REMARK    4  A    between atoms: C_12  and  C_13
REMARK    5  A    between atoms: N_19  and  C_20
REMARK    6  A    between atoms: C_24  and  C_25
REMARK    7  A    between atoms: C_25  and  C_26
REMARK    8  A    between atoms: N_30  and  C_31
REMARK    9  A    between atoms: C_33  and  C_34
REMARK                            x       y       z     vdW  Elec       q    Type
REMARK                         _______ _______ _______ _____ _____    ______ ____
ROOT
ATOM      1  C   UNL     1       4.415   4.391  18.206  0.00  0.00    -0.032 A 
ATOM      2  C   UNL     1       4.164   5.755  18.008  0.00  0.00    -0.045 A 
ATOM      3  C   UNL     1       3.144   6.337  18.740  0.00  0.00    +0.043 A 
ATOM      4  C   UNL     1       2.365   5.628  19.646  0.00  0.00    -0.006 A 
ATOM      5  C   UNL     1       2.581   4.269  19.855  0.00  0.00    +0.061 A 
ATOM      6  C   UNL     1       3.617   3.661  19.121  0.00  0.00    -0.045 A 
ATOM      7  C   UNL     1       1.365   6.545  20.269  0.00  0.00    +0.046 C 
ATOM      8  N   UNL     1       1.657   7.837  19.665  0.00  0.00    -0.263 N 
ATOM      9  C   UNL     1       2.697   7.736  18.733  0.00  0.00    +0.251 C 
ATOM     10  O   UNL     1       3.202   8.562  17.997  0.00  0.00    -0.270 OA
ATOM     11  H   UNL     1       4.747   6.354  17.315  0.00  0.00    +0.063 HD
ATOM     12  H   UNL     1       3.831   2.599  19.266  0.00  0.00    +0.063 HD
ATOM     13  H   UNL     1       1.511   6.602  21.353  0.00  0.00    +0.052 HD
ATOM     14  H   UNL     1       0.346   6.239  20.010  0.00  0.00    +0.052 HD
ENDROOT
BRANCH   8  15
ATOM     15  C   UNL     1       0.939   9.016  20.007  0.00  0.00    +0.037 A 
ATOM     16  C   UNL     1       1.318   9.788  21.112  0.00  0.00    -0.040 A 
ATOM     17  C   UNL     1       0.607  10.937  21.459  0.00  0.00    -0.060 A 
ATOM     18  C   UNL     1      -0.497  11.336  20.708  0.00  0.00    -0.058 A 
ATOM     19  C   UNL     1      -0.923  10.613  19.579  0.00  0.00    -0.032 A 
ATOM     20  C   UNL     1      -0.167   9.455  19.260  0.00  0.00    -0.036 A 
ATOM     21  H   UNL     1       2.164   9.515  21.735  0.00  0.00    +0.064 HD
ATOM     22  H   UNL     1       0.912  11.518  22.326  0.00  0.00    +0.062 HD
ATOM     23  H   UNL     1      -1.029  12.232  21.015  0.00  0.00    +0.062 HD
ATOM     24  H   UNL     1      -0.480   8.906  18.373  0.00  0.00    +0.064 HD
BRANCH  19  25
ATOM     25  C   UNL     1      -2.190  11.045  18.676  0.00  0.00    +0.056 C 
ATOM     26  C   UNL     1      -3.031   9.933  17.950  0.00  0.00    -0.034 C 
ATOM     27  C   UNL     1      -2.118  10.116  16.716  0.00  0.00    -0.041 C 
ATOM     28  C   UNL     1      -1.863  11.556  17.219  0.00  0.00    -0.034 C 
ATOM     29  H   UNL     1      -4.080  10.203  17.770  0.00  0.00    +0.028 HD
ATOM     30  H   UNL     1      -3.017   8.927  18.380  0.00  0.00    +0.028 HD
ATOM     31  H   UNL     1      -1.216   9.491  16.771  0.00  0.00    +0.030 HD
ATOM     32  H   UNL     1      -0.849  11.927  17.041  0.00  0.00    +0.028 HD
ATOM     33  H   UNL     1      -2.566  12.297  16.818  0.00  0.00    +0.028 HD
BRANCH  25  34
ATOM     34  C   UNL     1      -3.105  12.057  19.478  0.00  0.00    +0.144 A 
ATOM     35  N   UNL     1      -4.365  11.814  19.784  0.00  0.00    -0.134 NA
ATOM     36  N   UNL     1      -4.848  12.889  20.491  0.00  0.00    -0.138 NA
ATOM     37  C   UNL     1      -3.874  13.764  20.596  0.00  0.00    +0.120 A 
ATOM     38  N   UNL     1      -2.767  13.292  19.961  0.00  0.00    -0.320 N 
ATOM     39  H   UNL     1      -3.929  14.719  21.097  0.00  0.00    +0.105 HD
BRANCH  38  40
ATOM     40  C   UNL     1      -1.514  13.981  19.834  0.00  0.00    +0.014 C 
ATOM     41  H   UNL     1      -0.785  13.322  19.358  0.00  0.00    +0.046 HD
ATOM     42  H   UNL     1      -1.148  14.257  20.826  0.00  0.00    +0.046 HD
ATOM     43  H   UNL     1      -1.669  14.883  19.237  0.00  0.00    +0.046 HD
ENDBRANCH  38  40
ENDBRANCH  25  34
BRANCH  27  44
ATOM     44  C   UNL     1      -2.782   9.979  15.360  0.00  0.00    -0.062 C 
ATOM     45  H   UNL     1      -3.190   8.972  15.233  0.00  0.00    +0.023 HD
ATOM     46  H   UNL     1      -3.607  10.691  15.262  0.00  0.00    +0.023 HD
ATOM     47  H   UNL     1      -2.078  10.165  14.544  0.00  0.00    +0.023 HD
ENDBRANCH  27  44
ENDBRANCH  19  25
ENDBRANCH   8  15
BRANCH   5  48
ATOM     48  C   UNL     1       1.753   3.492  20.842  0.00  0.00    +0.418 C 
ATOM     49  F   UNL     1       2.063   3.800  22.131  0.00  0.00    -0.166 F 
ATOM     50  F   UNL     1       1.879   2.142  20.734  0.00  0.00    -0.166 F 
ATOM     51  F   UNL     1       0.420   3.755  20.713  0.00  0.00    -0.166 F 
ENDBRANCH   5  48
BRANCH   1  52
ATOM     52  C   UNL     1       5.526   3.697  17.440  0.00  0.00    +0.024 C 
ATOM     53  H   UNL     1       5.316   2.625  17.335  0.00  0.00    +0.048 HD
ATOM     54  H   UNL     1       6.422   3.777  18.069  0.00  0.00    +0.048 HD
BRANCH  52  59
ATOM     55  C   UNL     1       6.328   3.914  13.723  0.00  0.00    -0.031 C 
ATOM     56  C   UNL     1       7.349   5.056  13.773  0.00  0.00    -0.048 C 
ATOM     57  C   UNL     1       7.044   6.046  14.894  0.00  0.00    -0.040 C 
ATOM     58  C   UNL     1       6.825   5.334  16.230  0.00  0.00    -0.001 C 
ATOM     59  N   UNL     1       5.775   4.310  16.124  0.00  0.00    -0.298 NA
ATOM     60  C   UNL     1       6.151   3.296  15.121  0.00  0.00    +0.002 C 
ATOM     61  H   UNL     1       6.722   3.138  13.052  0.00  0.00    +0.031 HD
ATOM     62  H   UNL     1       8.348   4.633  13.942  0.00  0.00    +0.027 HD
ATOM     63  H   UNL     1       7.390   5.581  12.812  0.00  0.00    +0.027 HD
ATOM     64  H   UNL     1       6.153   6.632  14.639  0.00  0.00    +0.028 HD
ATOM     65  H   UNL     1       7.872   6.757  14.989  0.00  0.00    +0.028 HD
ATOM     66  H   UNL     1       6.535   6.091  16.969  0.00  0.00    +0.043 HD
ATOM     67  H   UNL     1       7.771   4.892  16.572  0.00  0.00    +0.043 HD
ATOM     68  H   UNL     1       5.381   2.518  15.051  0.00  0.00    +0.043 HD
ATOM     69  H   UNL     1       7.081   2.793  15.417  0.00  0.00    +0.043 HD
BRANCH  55  70
ATOM     70  C   UNL     1       4.989   4.378  13.140  0.00  0.00    -0.061 C 
ATOM     71  H   UNL     1       5.137   4.831  12.155  0.00  0.00    +0.023 HD
ATOM     72  H   UNL     1       4.276   3.557  13.027  0.00  0.00    +0.023 HD
ATOM     73  H   UNL     1       4.530   5.134  13.786  0.00  0.00    +0.023 HD
ENDBRANCH  55  70
ENDBRANCH  52  59
ENDBRANCH   1  52
TORSDOF 9
ENDMDL
