MODEL 1
REMARK VINA RESULT:    -7.612      0.000      0.000
REMARK INTER + INTRA:          -9.650
REMARK INTER:                  -9.897
REMARK INTRA:                   0.247
REMARK UNBOUND:                -0.480
REMARK  Name = 
REMARK  4 active torsions:
REMARK  status: ('A' for Active; 'I' for Inactive)
REMARK    1  A    between atoms: C_1  and  N_2
REMARK    2  A    between atoms: C_6  and  C_7
REMARK    3  A    between atoms: C_17  and  C_18
REMARK    4  A    between atoms: C_25  and  C_26
REMARK                            x       y       z     vdW  Elec       q    Type
REMARK                         _______ _______ _______ _____ _____    ______ ____
ROOT
ATOM      1  C   UNL     1       3.486   5.187  19.124  0.00  0.00    +0.113 A 
ATOM      2  C   UNL     1       2.740   6.225  19.641  0.00  0.00    +0.008 A 
ATOM      3  C   UNL     1       2.709   7.390  18.909  0.00  0.00    +0.132 A 
ATOM      4  N   UNL     1       1.969   8.506  19.364  0.00  0.00    -0.248 N 
ATOM      5  C   UNL     1       1.205   8.507  20.597  0.00  0.00    +0.048 C 
ATOM      6  C   UNL     1       0.616   9.880  20.636  0.00  0.00    -0.006 A 
ATOM      7  C   UNL     1       1.023  10.592  19.511  0.00  0.00    +0.042 A 
ATOM      8  C   UNL     1       0.635  11.897  19.274  0.00  0.00    -0.049 A 
ATOM      9  C   UNL     1      -0.197  12.503  20.214  0.00  0.00    -0.060 A 
ATOM     10  C   UNL     1      -0.619  11.797  21.358  0.00  0.00    -0.050 A 
ATOM     11  C   UNL     1      -0.216  10.468  21.587  0.00  0.00    +0.060 A 
ATOM     12  C   UNL     1       1.886   9.726  18.695  0.00  0.00    +0.253 C 
ATOM     13  O   UNL     1       2.377  10.117  17.652  0.00  0.00    -0.270 OA
ATOM     14  N   UNL     1       3.376   7.492  17.752  0.00  0.00    -0.217 NA
ATOM     15  C   UNL     1       4.088   6.445  17.306  0.00  0.00    +0.135 A 
ATOM     16  N   UNL     1       4.160   5.277  17.966  0.00  0.00    -0.228 NA
ATOM     17  H   UNL     1       2.216   6.098  20.579  0.00  0.00    +0.067 HD
ATOM     18  H   UNL     1       0.418   7.747  20.546  0.00  0.00    +0.052 HD
ATOM     19  H   UNL     1       1.873   8.345  21.448  0.00  0.00    +0.052 HD
ATOM     20  H   UNL     1       0.971  12.424  18.386  0.00  0.00    +0.063 HD
ATOM     21  H   UNL     1      -0.525  13.530  20.062  0.00  0.00    +0.062 HD
ATOM     22  H   UNL     1      -1.270  12.302  22.072  0.00  0.00    +0.062 HD
ENDROOT
BRANCH  15  23
ATOM     23  C   UNL     1       4.831   6.582  16.002  0.00  0.00    +0.019 C 
ATOM     24  C   UNL     1       6.304   6.247  15.930  0.00  0.00    -0.043 C 
ATOM     25  C   UNL     1       5.305   5.352  15.261  0.00  0.00    -0.043 C 
ATOM     26  H   UNL     1       4.507   7.419  15.389  0.00  0.00    +0.038 HD
ATOM     27  H   UNL     1       6.931   6.878  15.310  0.00  0.00    +0.027 HD
ATOM     28  H   UNL     1       6.793   5.896  16.832  0.00  0.00    +0.027 HD
ATOM     29  H   UNL     1       5.125   4.378  15.703  0.00  0.00    +0.027 HD
ATOM     30  H   UNL     1       5.256   5.364  14.178  0.00  0.00    +0.027 HD
ENDBRANCH  15  23
BRANCH   1  35
ATOM     31  N   UNL     1       2.585   3.291  20.570  0.00  0.00    -0.315 N 
ATOM     32  C   UNL     1       3.126   2.136  21.048  0.00  0.00    +0.120 A 
ATOM     33  N   UNL     1       4.371   2.033  20.650  0.00  0.00    -0.137 NA
ATOM     34  N   UNL     1       4.652   3.143  19.894  0.00  0.00    -0.128 NA
ATOM     35  C   UNL     1       3.574   3.913  19.840  0.00  0.00    +0.182 A 
ATOM     36  H   UNL     1       2.593   1.424  21.663  0.00  0.00    +0.105 HD
BRANCH  31  37
ATOM     37  C   UNL     1       1.235   3.731  20.807  0.00  0.00    +0.015 C 
ATOM     38  H   UNL     1       0.745   3.023  21.479  0.00  0.00    +0.046 HD
ATOM     39  H   UNL     1       1.253   4.718  21.278  0.00  0.00    +0.046 HD
ATOM     40  H   UNL     1       0.712   3.802  19.851  0.00  0.00    +0.046 HD
ENDBRANCH  31  37
ENDBRANCH   1  35
BRANCH  11  41
ATOM     41  C   UNL     1      -0.660   9.704  22.805  0.00  0.00    +0.418 C 
ATOM     42  F   UNL     1       0.350   9.539  23.702  0.00  0.00    -0.166 F 
ATOM     43  F   UNL     1      -1.653  10.346  23.478  0.00  0.00    -0.166 F 
ATOM     44  F   UNL     1      -1.131   8.458  22.532  0.00  0.00    -0.166 F 
ENDBRANCH  11  41
TORSDOF 4
ENDMDL
MODEL 2
REMARK VINA RESULT:    -7.466      3.039      7.146
REMARK INTER + INTRA:          -9.473
REMARK INTER:                  -9.350
REMARK INTRA:                  -0.123
REMARK UNBOUND:                -0.480
REMARK  Name = 
REMARK  4 active torsions:
REMARK  status: ('A' for Active; 'I' for Inactive)
REMARK    1  A    between atoms: C_1  and  N_2
REMARK    2  A    between atoms: C_6  and  C_7
REMARK    3  A    between atoms: C_17  and  C_18
REMARK    4  A    between atoms: C_25  and  C_26
REMARK                            x       y       z     vdW  Elec       q    Type
REMARK                         _______ _______ _______ _____ _____    ______ ____
ROOT
ATOM      1  C   UNL     1       0.337  10.646  20.433  0.00  0.00    +0.113 A 
ATOM      2  C   UNL     1       0.760   9.342  20.283  0.00  0.00    +0.008 A 
ATOM      3  C   UNL     1       1.660   9.095  19.271  0.00  0.00    +0.132 A 
ATOM      4  N   UNL     1       2.147   7.788  19.044  0.00  0.00    -0.248 N 
ATOM      5  C   UNL     1       1.752   6.641  19.840  0.00  0.00    +0.048 C 
ATOM      6  C   UNL     1       2.519   5.515  19.225  0.00  0.00    -0.006 A 
ATOM      7  C   UNL     1       3.282   5.997  18.166  0.00  0.00    +0.042 A 
ATOM      8  C   UNL     1       4.098   5.182  17.404  0.00  0.00    -0.049 A 
ATOM      9  C   UNL     1       4.140   3.827  17.729  0.00  0.00    -0.060 A 
ATOM     10  C   UNL     1       3.375   3.323  18.798  0.00  0.00    -0.050 A 
ATOM     11  C   UNL     1       2.548   4.164  19.566  0.00  0.00    +0.060 A 
ATOM     12  C   UNL     1       3.052   7.443  18.041  0.00  0.00    +0.253 C 
ATOM     13  O   UNL     1       3.605   8.105  17.183  0.00  0.00    -0.270 OA
ATOM     14  N   UNL     1       2.094  10.087  18.482  0.00  0.00    -0.217 NA
ATOM     15  C   UNL     1       1.640  11.335  18.679  0.00  0.00    +0.135 A 
ATOM     16  N   UNL     1       0.764  11.649  19.648  0.00  0.00    -0.228 NA
ATOM     17  H   UNL     1       0.384   8.573  20.944  0.00  0.00    +0.067 HD
ATOM     18  H   UNL     1       2.051   6.792  20.882  0.00  0.00    +0.052 HD
ATOM     19  H   UNL     1       0.674   6.476  19.744  0.00  0.00    +0.052 HD
ATOM     20  H   UNL     1       4.680   5.591  16.583  0.00  0.00    +0.063 HD
ATOM     21  H   UNL     1       4.772   3.153  17.152  0.00  0.00    +0.062 HD
ATOM     22  H   UNL     1       3.432   2.258  19.024  0.00  0.00    +0.062 HD
ENDROOT
BRANCH  15  23
ATOM     23  C   UNL     1       2.142  12.435  17.778  0.00  0.00    +0.019 C 
ATOM     24  C   UNL     1       1.866  13.881  18.122  0.00  0.00    -0.043 C 
ATOM     25  C   UNL     1       3.261  13.344  18.235  0.00  0.00    -0.043 C 
ATOM     26  H   UNL     1       2.122  12.189  16.720  0.00  0.00    +0.038 HD
ATOM     27  H   UNL     1       1.636  14.555  17.304  0.00  0.00    +0.027 HD
ATOM     28  H   UNL     1       1.318  14.094  19.033  0.00  0.00    +0.027 HD
ATOM     29  H   UNL     1       3.669  13.204  19.230  0.00  0.00    +0.027 HD
ATOM     30  H   UNL     1       3.989  13.659  17.497  0.00  0.00    +0.027 HD
ENDBRANCH  15  23
BRANCH   1  35
ATOM     31  N   UNL     1      -0.696  10.473  22.757  0.00  0.00    -0.315 N 
ATOM     32  C   UNL     1      -1.740  11.099  23.369  0.00  0.00    +0.120 A 
ATOM     33  N   UNL     1      -2.286  11.958  22.544  0.00  0.00    -0.137 NA
ATOM     34  N   UNL     1      -1.588  11.894  21.365  0.00  0.00    -0.128 NA
ATOM     35  C   UNL     1      -0.621  10.995  21.484  0.00  0.00    +0.182 A 
ATOM     36  H   UNL     1      -2.054  10.903  24.385  0.00  0.00    +0.105 HD
BRANCH  31  37
ATOM     37  C   UNL     1       0.136   9.469  23.364  0.00  0.00    +0.015 C 
ATOM     38  H   UNL     1       0.648   9.906  24.225  0.00  0.00    +0.046 HD
ATOM     39  H   UNL     1      -0.487   8.637  23.704  0.00  0.00    +0.046 HD
ATOM     40  H   UNL     1       0.848   9.102  22.621  0.00  0.00    +0.046 HD
ENDBRANCH  31  37
ENDBRANCH   1  35
BRANCH  11  41
ATOM     41  C   UNL     1       1.725   3.636  20.710  0.00  0.00    +0.418 C 
ATOM     42  F   UNL     1       1.738   2.276  20.766  0.00  0.00    -0.166 F 
ATOM     43  F   UNL     1       2.193   4.061  21.915  0.00  0.00    -0.166 F 
ATOM     44  F   UNL     1       0.416   4.001  20.662  0.00  0.00    -0.166 F 
ENDBRANCH  11  41
TORSDOF 4
ENDMDL
MODEL 3
REMARK VINA RESULT:    -7.441      3.055      7.262
REMARK INTER + INTRA:          -9.443
REMARK INTER:                  -9.304
REMARK INTRA:                  -0.138
REMARK UNBOUND:                -0.480
REMARK  Name = 
REMARK  4 active torsions:
REMARK  status: ('A' for Active; 'I' for Inactive)
REMARK    1  A    between atoms: C_1  and  N_2
REMARK    2  A    between atoms: C_6  and  C_7
REMARK    3  A    between atoms: C_17  and  C_18
REMARK    4  A    between atoms: C_25  and  C_26
REMARK                            x       y       z     vdW  Elec       q    Type
REMARK                         _______ _______ _______ _____ _____    ______ ____
ROOT
ATOM      1  C   UNL     1       0.429  10.563  20.464  0.00  0.00    +0.113 A 
ATOM      2  C   UNL     1       0.839   9.257  20.304  0.00  0.00    +0.008 A 
ATOM      3  C   UNL     1       1.730   9.008  19.284  0.00  0.00    +0.132 A 
ATOM      4  N   UNL     1       2.204   7.698  19.046  0.00  0.00    -0.248 N 
ATOM      5  C   UNL     1       1.804   6.550  19.838  0.00  0.00    +0.048 C 
ATOM      6  C   UNL     1       2.557   5.421  19.211  0.00  0.00    -0.006 A 
ATOM      7  C   UNL     1       3.317   5.903  18.148  0.00  0.00    +0.042 A 
ATOM      8  C   UNL     1       4.120   5.086  17.376  0.00  0.00    -0.049 A 
ATOM      9  C   UNL     1       4.153   3.728  17.693  0.00  0.00    -0.060 A 
ATOM     10  C   UNL     1       3.391   3.224  18.764  0.00  0.00    -0.050 A 
ATOM     11  C   UNL     1       2.577   4.068  19.543  0.00  0.00    +0.060 A 
ATOM     12  C   UNL     1       3.098   7.352  18.034  0.00  0.00    +0.253 C 
ATOM     13  O   UNL     1       3.650   8.013  17.175  0.00  0.00    -0.270 OA
ATOM     14  N   UNL     1       2.166  10.001  18.497  0.00  0.00    -0.217 NA
ATOM     15  C   UNL     1       1.724  11.252  18.704  0.00  0.00    +0.135 A 
ATOM     16  N   UNL     1       0.858  11.567  19.682  0.00  0.00    -0.228 NA
ATOM     17  H   UNL     1       0.461   8.488  20.963  0.00  0.00    +0.067 HD
ATOM     18  H   UNL     1       2.112   6.693  20.878  0.00  0.00    +0.052 HD
ATOM     19  H   UNL     1       0.725   6.395  19.749  0.00  0.00    +0.052 HD
ATOM     20  H   UNL     1       4.700   5.494  16.553  0.00  0.00    +0.063 HD
ATOM     21  H   UNL     1       4.775   3.053  17.107  0.00  0.00    +0.062 HD
ATOM     22  H   UNL     1       3.441   2.158  18.984  0.00  0.00    +0.062 HD
ENDROOT
BRANCH  15  23
ATOM     23  C   UNL     1       2.229  12.352  17.806  0.00  0.00    +0.019 C 
ATOM     24  C   UNL     1       1.877  13.793  18.102  0.00  0.00    -0.043 C 
ATOM     25  C   UNL     1       3.284  13.317  18.301  0.00  0.00    -0.043 C 
ATOM     26  H   UNL     1       2.276  12.084  16.755  0.00  0.00    +0.038 HD
ATOM     27  H   UNL     1       1.663  14.439  17.257  0.00  0.00    +0.027 HD
ATOM     28  H   UNL     1       1.271  14.002  18.977  0.00  0.00    +0.027 HD
ATOM     29  H   UNL     1       3.643  13.215  19.319  0.00  0.00    +0.027 HD
ATOM     30  H   UNL     1       4.037  13.646  17.595  0.00  0.00    +0.027 HD
ENDBRANCH  15  23
BRANCH   1  35
ATOM     31  N   UNL     1      -1.543  11.833  21.462  0.00  0.00    -0.315 N 
ATOM     32  C   UNL     1      -2.150  11.817  22.682  0.00  0.00    +0.120 A 
ATOM     33  N   UNL     1      -1.552  10.950  23.462  0.00  0.00    -0.137 NA
ATOM     34  N   UNL     1      -0.532  10.385  22.739  0.00  0.00    -0.128 NA
ATOM     35  C   UNL     1      -0.518  10.915  21.524  0.00  0.00    +0.182 A 
ATOM     36  H   UNL     1      -2.996  12.436  22.948  0.00  0.00    +0.105 HD
BRANCH  31  37
ATOM     37  C   UNL     1      -1.935  12.665  20.355  0.00  0.00    +0.015 C 
ATOM     38  H   UNL     1      -3.022  12.630  20.254  0.00  0.00    +0.046 HD
ATOM     39  H   UNL     1      -1.627  13.697  20.549  0.00  0.00    +0.046 HD
ATOM     40  H   UNL     1      -1.437  12.309  19.451  0.00  0.00    +0.046 HD
ENDBRANCH  31  37
ENDBRANCH   1  35
BRANCH  11  41
ATOM     41  C   UNL     1       1.758   3.541  20.691  0.00  0.00    +0.418 C 
ATOM     42  F   UNL     1       0.437   3.842  20.558  0.00  0.00    -0.166 F 
ATOM     43  F   UNL     1       1.822   2.185  20.784  0.00  0.00    -0.166 F 
ATOM     44  F   UNL     1       2.137   4.023  21.905  0.00  0.00    -0.166 F 
ENDBRANCH  11  41
TORSDOF 4
ENDMDL
MODEL 4
REMARK VINA RESULT:    -7.434      3.974      8.460
REMARK INTER + INTRA:          -9.434
REMARK INTER:                  -9.522
REMARK INTRA:                   0.088
REMARK UNBOUND:                -0.480
REMARK  Name = 
REMARK  4 active torsions:
REMARK  status: ('A' for Active; 'I' for Inactive)
REMARK    1  A    between atoms: C_1  and  N_2
REMARK    2  A    between atoms: C_6  and  C_7
REMARK    3  A    between atoms: C_17  and  C_18
REMARK    4  A    between atoms: C_25  and  C_26
REMARK                            x       y       z     vdW  Elec       q    Type
REMARK                         _______ _______ _______ _____ _____    ______ ____
ROOT
ATOM      1  C   UNL     1       1.296  10.810  19.461  0.00  0.00    +0.113 A 
ATOM      2  C   UNL     1       1.982   9.748  18.912  0.00  0.00    +0.008 A 
ATOM      3  C   UNL     1       1.786   8.516  19.495  0.00  0.00    +0.132 A 
ATOM      4  N   UNL     1       2.449   7.371  18.997  0.00  0.00    -0.248 N 
ATOM      5  C   UNL     1       3.355   7.405  17.865  0.00  0.00    +0.048 C 
ATOM      6  C   UNL     1       3.789   5.980  17.730  0.00  0.00    -0.006 A 
ATOM      7  C   UNL     1       3.173   5.212  18.714  0.00  0.00    +0.042 A 
ATOM      8  C   UNL     1       3.384   3.852  18.838  0.00  0.00    -0.049 A 
ATOM      9  C   UNL     1       4.254   3.249  17.930  0.00  0.00    -0.060 A 
ATOM     10  C   UNL     1       4.885   4.011  16.928  0.00  0.00    -0.050 A 
ATOM     11  C   UNL     1       4.661   5.396  16.813  0.00  0.00    +0.060 A 
ATOM     12  C   UNL     1       2.319   6.089  19.527  0.00  0.00    +0.253 C 
ATOM     13  O   UNL     1       1.669   5.657  20.461  0.00  0.00    -0.270 OA
ATOM     14  N   UNL     1       0.964   8.376  20.543  0.00  0.00    -0.217 NA
ATOM     15  C   UNL     1       0.328   9.453  21.033  0.00  0.00    +0.135 A 
ATOM     16  N   UNL     1       0.469  10.683  20.513  0.00  0.00    -0.228 NA
ATOM     17  H   UNL     1       2.634   9.907  18.065  0.00  0.00    +0.067 HD
ATOM     18  H   UNL     1       2.818   7.734  16.970  0.00  0.00    +0.052 HD
ATOM     19  H   UNL     1       4.208   8.052  18.091  0.00  0.00    +0.052 HD
ATOM     20  H   UNL     1       2.888   3.282  19.618  0.00  0.00    +0.063 HD
ATOM     21  H   UNL     1       4.445   2.179  17.996  0.00  0.00    +0.062 HD
ATOM     22  H   UNL     1       5.559   3.507  16.235  0.00  0.00    +0.062 HD
ENDROOT
BRANCH  15  23
ATOM     23  C   UNL     1      -0.591   9.271  22.214  0.00  0.00    +0.019 C 
ATOM     24  C   UNL     1      -0.057   9.419  23.620  0.00  0.00    -0.043 C 
ATOM     25  C   UNL     1      -0.984  10.458  23.065  0.00  0.00    -0.043 C 
ATOM     26  H   UNL     1      -1.350   8.506  22.075  0.00  0.00    +0.038 HD
ATOM     27  H   UNL     1      -0.436   8.737  24.374  0.00  0.00    +0.027 HD
ATOM     28  H   UNL     1       0.990   9.672  23.746  0.00  0.00    +0.027 HD
ATOM     29  H   UNL     1      -0.566  11.429  22.824  0.00  0.00    +0.027 HD
ATOM     30  H   UNL     1      -1.997  10.493  23.447  0.00  0.00    +0.027 HD
ENDBRANCH  15  23
BRANCH   1  35
ATOM     31  N   UNL     1       0.448  13.015  18.502  0.00  0.00    -0.315 N 
ATOM     32  C   UNL     1       1.066  14.143  18.053  0.00  0.00    +0.120 A 
ATOM     33  N   UNL     1       2.365  14.009  18.163  0.00  0.00    -0.137 NA
ATOM     34  N   UNL     1       2.605  12.767  18.695  0.00  0.00    -0.128 NA
ATOM     35  C   UNL     1       1.447  12.156  18.903  0.00  0.00    +0.182 A 
ATOM     36  H   UNL     1       0.545  15.009  17.668  0.00  0.00    +0.105 HD
BRANCH  31  37
ATOM     37  C   UNL     1      -0.976  12.808  18.531  0.00  0.00    +0.015 C 
ATOM     38  H   UNL     1      -1.176  11.758  18.757  0.00  0.00    +0.046 HD
ATOM     39  H   UNL     1      -1.418  13.432  19.312  0.00  0.00    +0.046 HD
ATOM     40  H   UNL     1      -1.396  13.095  17.564  0.00  0.00    +0.046 HD
ENDBRANCH  31  37
ENDBRANCH   1  35
BRANCH  11  41
ATOM     41  C   UNL     1       5.330   6.221  15.747  0.00  0.00    +0.418 C 
ATOM     42  F   UNL     1       6.346   6.977  16.246  0.00  0.00    -0.166 F 
ATOM     43  F   UNL     1       5.886   5.448  14.776  0.00  0.00    -0.166 F 
ATOM     44  F   UNL     1       4.493   7.084  15.111  0.00  0.00    -0.166 F 
ENDBRANCH  11  41
TORSDOF 4
ENDMDL
MODEL 5
REMARK VINA RESULT:    -7.387      2.668      4.500
REMARK INTER + INTRA:          -9.378
REMARK INTER:                  -9.615
REMARK INTRA:                   0.237
REMARK UNBOUND:                -0.480
REMARK  Name = 
REMARK  4 active torsions:
REMARK  status: ('A' for Active; 'I' for Inactive)
REMARK    1  A    between atoms: C_1  and  N_2
REMARK    2  A    between atoms: C_6  and  C_7
REMARK    3  A    between atoms: C_17  and  C_18
REMARK    4  A    between atoms: C_25  and  C_26
REMARK                            x       y       z     vdW  Elec       q    Type
REMARK                         _______ _______ _______ _____ _____    ______ ____
ROOT
ATOM      1  C   UNL     1       2.998   6.203  18.688  0.00  0.00    +0.113 A 
ATOM      2  C   UNL     1       2.533   7.452  19.040  0.00  0.00    +0.008 A 
ATOM      3  C   UNL     1       1.679   7.514  20.118  0.00  0.00    +0.132 A 
ATOM      4  N   UNL     1       1.154   8.754  20.550  0.00  0.00    -0.248 N 
ATOM      5  C   UNL     1       1.469  10.018  19.911  0.00  0.00    +0.048 C 
ATOM      6  C   UNL     1       0.689  11.011  20.712  0.00  0.00    -0.006 A 
ATOM      7  C   UNL     1      -0.009  10.349  21.719  0.00  0.00    +0.042 A 
ATOM      8  C   UNL     1      -0.820  11.011  22.621  0.00  0.00    -0.049 A 
ATOM      9  C   UNL     1      -0.928  12.396  22.496  0.00  0.00    -0.060 A 
ATOM     10  C   UNL     1      -0.228  13.080  21.484  0.00  0.00    -0.050 A 
ATOM     11  C   UNL     1       0.595  12.394  20.571  0.00  0.00    +0.060 A 
ATOM     12  C   UNL     1       0.279   8.912  21.623  0.00  0.00    +0.253 C 
ATOM     13  O   UNL     1      -0.215   8.111  22.394  0.00  0.00    -0.270 OA
ATOM     14  N   UNL     1       1.330   6.404  20.782  0.00  0.00    -0.217 NA
ATOM     15  C   UNL     1       1.815   5.216  20.385  0.00  0.00    +0.135 A 
ATOM     16  N   UNL     1       2.654   5.082  19.344  0.00  0.00    -0.228 NA
ATOM     17  H   UNL     1       2.842   8.321  18.477  0.00  0.00    +0.067 HD
ATOM     18  H   UNL     1       2.543  10.214  19.987  0.00  0.00    +0.052 HD
ATOM     19  H   UNL     1       1.129  10.004  18.871  0.00  0.00    +0.052 HD
ATOM     20  H   UNL     1      -1.352  10.465  23.394  0.00  0.00    +0.063 HD
ATOM     21  H   UNL     1      -1.558  12.953  23.189  0.00  0.00    +0.062 HD
ATOM     22  H   UNL     1      -0.335  14.163  21.415  0.00  0.00    +0.062 HD
ENDROOT
BRANCH  15  23
ATOM     23  C   UNL     1       1.407   3.981  21.146  0.00  0.00    +0.019 C 
ATOM     24  C   UNL     1       1.413   2.633  20.461  0.00  0.00    -0.043 C 
ATOM     25  C   UNL     1       2.437   2.936  21.512  0.00  0.00    -0.043 C 
ATOM     26  H   UNL     1       0.608   4.143  21.864  0.00  0.00    +0.038 HD
ATOM     27  H   UNL     1       0.610   1.945  20.704  0.00  0.00    +0.027 HD
ATOM     28  H   UNL     1       1.730   2.587  19.425  0.00  0.00    +0.027 HD
ATOM     29  H   UNL     1       3.462   3.083  21.189  0.00  0.00    +0.027 HD
ATOM     30  H   UNL     1       2.340   2.446  22.474  0.00  0.00    +0.027 HD
ENDBRANCH  15  23
BRANCH   1  35
ATOM     31  N   UNL     1       4.318   4.872  16.961  0.00  0.00    -0.315 N 
ATOM     32  C   UNL     1       5.159   5.222  15.949  0.00  0.00    +0.120 A 
ATOM     33  N   UNL     1       5.274   6.526  15.900  0.00  0.00    -0.137 NA
ATOM     34  N   UNL     1       4.493   7.043  16.902  0.00  0.00    -0.128 NA
ATOM     35  C   UNL     1       3.909   6.047  17.552  0.00  0.00    +0.182 A 
ATOM     36  H   UNL     1       5.649   4.515  15.293  0.00  0.00    +0.105 HD
BRANCH  31  37
ATOM     37  C   UNL     1       3.958   3.522  17.307  0.00  0.00    +0.015 C 
ATOM     38  H   UNL     1       4.505   3.229  18.206  0.00  0.00    +0.046 HD
ATOM     39  H   UNL     1       2.885   3.473  17.510  0.00  0.00    +0.046 HD
ATOM     40  H   UNL     1       4.192   2.866  16.465  0.00  0.00    +0.046 HD
ENDBRANCH  31  37
ENDBRANCH   1  35
BRANCH  11  41
ATOM     41  C   UNL     1       1.347  13.114  19.485  0.00  0.00    +0.418 C 
ATOM     42  F   UNL     1       1.089  14.451  19.484  0.00  0.00    -0.166 F 
ATOM     43  F   UNL     1       2.695  12.998  19.633  0.00  0.00    -0.166 F 
ATOM     44  F   UNL     1       1.063  12.672  18.231  0.00  0.00    -0.166 F 
ENDBRANCH  11  41
TORSDOF 4
ENDMDL
MODEL 6
REMARK VINA RESULT:    -7.252      2.764      4.644
REMARK INTER + INTRA:          -9.216
REMARK INTER:                  -9.020
REMARK INTRA:                  -0.197
REMARK UNBOUND:                -0.480
REMARK  Name = 
REMARK  4 active torsions:
REMARK  status: ('A' for Active; 'I' for Inactive)
REMARK    1  A    between atoms: C_1  and  N_2
REMARK    2  A    between atoms: C_6  and  C_7
REMARK    3  A    between atoms: C_17  and  C_18
REMARK    4  A    between atoms: C_25  and  C_26
REMARK                            x       y       z     vdW  Elec       q    Type
REMARK                         _______ _______ _______ _____ _____    ______ ____
ROOT
ATOM      1  C   UNL     1       4.250   5.385  17.946  0.00  0.00    +0.113 A 
ATOM      2  C   UNL     1       3.647   6.593  18.226  0.00  0.00    +0.008 A 
ATOM      3  C   UNL     1       2.721   6.601  19.246  0.00  0.00    +0.132 A 
ATOM      4  N   UNL     1       2.053   7.795  19.601  0.00  0.00    -0.248 N 
ATOM      5  C   UNL     1       2.288   9.066  18.943  0.00  0.00    +0.048 C 
ATOM      6  C   UNL     1       1.366  10.000  19.659  0.00  0.00    -0.006 A 
ATOM      7  C   UNL     1       0.669   9.301  20.641  0.00  0.00    +0.042 A 
ATOM      8  C   UNL     1      -0.260   9.905  21.467  0.00  0.00    -0.049 A 
ATOM      9  C   UNL     1      -0.490  11.268  21.290  0.00  0.00    -0.060 A 
ATOM     10  C   UNL     1       0.207  11.990  20.302  0.00  0.00    -0.050 A 
ATOM     11  C   UNL     1       1.150  11.362  19.467  0.00  0.00    +0.060 A 
ATOM     12  C   UNL     1       1.098   7.896  20.612  0.00  0.00    +0.253 C 
ATOM     13  O   UNL     1       0.633   7.072  21.376  0.00  0.00    -0.270 OA
ATOM     14  N   UNL     1       2.436   5.480  19.922  0.00  0.00    -0.217 NA
ATOM     15  C   UNL     1       3.057   4.335  19.596  0.00  0.00    +0.135 A 
ATOM     16  N   UNL     1       3.972   4.255  18.616  0.00  0.00    -0.228 NA
ATOM     17  H   UNL     1       3.908   7.472  17.655  0.00  0.00    +0.067 HD
ATOM     18  H   UNL     1       3.331   9.367  19.080  0.00  0.00    +0.052 HD
ATOM     19  H   UNL     1       2.020   8.990  17.884  0.00  0.00    +0.052 HD
ATOM     20  H   UNL     1      -0.787   9.330  22.224  0.00  0.00    +0.063 HD
ATOM     21  H   UNL     1      -1.214  11.780  21.923  0.00  0.00    +0.062 HD
ATOM     22  H   UNL     1       0.002  13.055  20.191  0.00  0.00    +0.062 HD
ENDROOT
BRANCH  15  23
ATOM     23  C   UNL     1       2.719   3.087  20.371  0.00  0.00    +0.019 C 
ATOM     24  C   UNL     1       1.442   3.018  21.177  0.00  0.00    -0.043 C 
ATOM     25  C   UNL     1       1.577   2.200  19.928  0.00  0.00    -0.043 C 
ATOM     26  H   UNL     1       3.579   2.584  20.804  0.00  0.00    +0.038 HD
ATOM     27  H   UNL     1       1.482   2.510  22.135  0.00  0.00    +0.027 HD
ATOM     28  H   UNL     1       0.782   3.878  21.165  0.00  0.00    +0.027 HD
ATOM     29  H   UNL     1       0.993   2.499  19.064  0.00  0.00    +0.027 HD
ATOM     30  H   UNL     1       1.700   1.128  20.032  0.00  0.00    +0.027 HD
ENDBRANCH  15  23
BRANCH   1  35
ATOM     31  N   UNL     1       6.615   5.234  17.007  0.00  0.00    -0.315 N 
ATOM     32  C   UNL     1       7.121   5.149  15.745  0.00  0.00    +0.120 A 
ATOM     33  N   UNL     1       6.141   5.148  14.876  0.00  0.00    -0.137 NA
ATOM     34  N   UNL     1       4.967   5.235  15.581  0.00  0.00    -0.128 NA
ATOM     35  C   UNL     1       5.245   5.288  16.876  0.00  0.00    +0.182 A 
ATOM     36  H   UNL     1       8.176   5.091  15.516  0.00  0.00    +0.105 HD
BRANCH  31  37
ATOM     37  C   UNL     1       7.401   5.258  18.213  0.00  0.00    +0.015 C 
ATOM     38  H   UNL     1       6.760   4.997  19.058  0.00  0.00    +0.046 HD
ATOM     39  H   UNL     1       8.207   4.523  18.136  0.00  0.00    +0.046 HD
ATOM     40  H   UNL     1       7.835   6.253  18.333  0.00  0.00    +0.046 HD
ENDBRANCH  31  37
ENDBRANCH   1  35
BRANCH  11  41
ATOM     41  C   UNL     1       1.901  12.123  18.407  0.00  0.00    +0.418 C 
ATOM     42  F   UNL     1       1.118  13.052  17.793  0.00  0.00    -0.166 F 
ATOM     43  F   UNL     1       2.956  12.810  18.922  0.00  0.00    -0.166 F 
ATOM     44  F   UNL     1       2.405  11.338  17.418  0.00  0.00    -0.166 F 
ENDBRANCH  11  41
TORSDOF 4
ENDMDL
MODEL 7
REMARK VINA RESULT:    -5.905      3.889      8.590
REMARK INTER + INTRA:          -7.593
REMARK INTER:                  -7.341
REMARK INTRA:                  -0.252
REMARK UNBOUND:                -0.480
REMARK  Name = 
REMARK  4 active torsions:
REMARK  status: ('A' for Active; 'I' for Inactive)
REMARK    1  A    between atoms: C_1  and  N_2
REMARK    2  A    between atoms: C_6  and  C_7
REMARK    3  A    between atoms: C_17  and  C_18
REMARK    4  A    between atoms: C_25  and  C_26
REMARK                            x       y       z     vdW  Elec       q    Type
REMARK                         _______ _______ _______ _____ _____    ______ ____
ROOT
ATOM      1  C   UNL     1       1.139  12.319  20.303  0.00  0.00    +0.113 A 
ATOM      2  C   UNL     1       1.555  11.058  19.934  0.00  0.00    +0.008 A 
ATOM      3  C   UNL     1       0.984   9.997  20.601  0.00  0.00    +0.132 A 
ATOM      4  N   UNL     1       1.351   8.669  20.288  0.00  0.00    -0.248 N 
ATOM      5  C   UNL     1       2.324   8.331  19.267  0.00  0.00    +0.048 C 
ATOM      6  C   UNL     1       2.365   6.837  19.312  0.00  0.00    -0.006 A 
ATOM      7  C   UNL     1       1.484   6.378  20.287  0.00  0.00    +0.042 A 
ATOM      8  C   UNL     1       1.307   5.034  20.558  0.00  0.00    -0.049 A 
ATOM      9  C   UNL     1       2.053   4.122  19.812  0.00  0.00    -0.060 A 
ATOM     10  C   UNL     1       2.950   4.570  18.822  0.00  0.00    -0.050 A 
ATOM     11  C   UNL     1       3.120   5.942  18.557  0.00  0.00    +0.060 A 
ATOM     12  C   UNL     1       0.834   7.536  20.915  0.00  0.00    +0.253 C 
ATOM     13  O   UNL     1       0.016   7.402  21.805  0.00  0.00    -0.270 OA
ATOM     14  N   UNL     1       0.070  10.201  21.559  0.00  0.00    -0.217 NA
ATOM     15  C   UNL     1      -0.289  11.456  21.874  0.00  0.00    +0.135 A 
ATOM     16  N   UNL     1       0.224  12.537  21.263  0.00  0.00    -0.228 NA
ATOM     17  H   UNL     1       2.295  10.940  19.155  0.00  0.00    +0.067 HD
ATOM     18  H   UNL     1       1.974   8.681  18.291  0.00  0.00    +0.052 HD
ATOM     19  H   UNL     1       3.299   8.755  19.527  0.00  0.00    +0.052 HD
ATOM     20  H   UNL     1       0.611   4.709  21.326  0.00  0.00    +0.063 HD
ATOM     21  H   UNL     1       1.941   3.055  19.997  0.00  0.00    +0.062 HD
ATOM     22  H   UNL     1       3.517   3.829  18.258  0.00  0.00    +0.062 HD
ENDROOT
BRANCH  15  23
ATOM     23  C   UNL     1      -1.319  11.661  22.955  0.00  0.00    +0.019 C 
ATOM     24  C   UNL     1      -1.705  13.061  23.379  0.00  0.00    -0.043 C 
ATOM     25  C   UNL     1      -2.682  12.220  22.614  0.00  0.00    -0.043 C 
ATOM     26  H   UNL     1      -1.288  10.919  23.748  0.00  0.00    +0.038 HD
ATOM     27  H   UNL     1      -1.885  13.231  24.435  0.00  0.00    +0.027 HD
ATOM     28  H   UNL     1      -1.232  13.896  22.874  0.00  0.00    +0.027 HD
ATOM     29  H   UNL     1      -2.887  12.496  21.585  0.00  0.00    +0.027 HD
ATOM     30  H   UNL     1      -3.539  11.824  23.146  0.00  0.00    +0.027 HD
ENDBRANCH  15  23
BRANCH   1  35
ATOM     31  N   UNL     1       2.745  14.285  20.075  0.00  0.00    -0.315 N 
ATOM     32  C   UNL     1       2.902  15.266  19.143  0.00  0.00    +0.120 A 
ATOM     33  N   UNL     1       2.016  15.116  18.189  0.00  0.00    -0.137 NA
ATOM     34  N   UNL     1       1.261  14.014  18.502  0.00  0.00    -0.128 NA
ATOM     35  C   UNL     1       1.696  13.503  19.645  0.00  0.00    +0.182 A 
ATOM     36  H   UNL     1       3.652  16.043  19.199  0.00  0.00    +0.105 HD
BRANCH  31  37
ATOM     37  C   UNL     1       3.546  14.137  21.262  0.00  0.00    +0.015 C 
ATOM     38  H   UNL     1       4.602  14.176  20.983  0.00  0.00    +0.046 HD
ATOM     39  H   UNL     1       3.329  14.957  21.952  0.00  0.00    +0.046 HD
ATOM     40  H   UNL     1       3.294  13.189  21.743  0.00  0.00    +0.046 HD
ENDBRANCH  31  37
ENDBRANCH   1  35
BRANCH  11  41
ATOM     41  C   UNL     1       4.075   6.432  17.502  0.00  0.00    +0.418 C 
ATOM     42  F   UNL     1       5.308   6.700  18.012  0.00  0.00    -0.166 F 
ATOM     43  F   UNL     1       4.272   5.509  16.522  0.00  0.00    -0.166 F 
ATOM     44  F   UNL     1       3.668   7.569  16.875  0.00  0.00    -0.166 F 
ENDBRANCH  11  41
TORSDOF 4
ENDMDL
MODEL 8
REMARK VINA RESULT:    -5.345      4.350      8.409
REMARK INTER + INTRA:          -6.918
REMARK INTER:                  -6.915
REMARK INTRA:                  -0.003
REMARK UNBOUND:                -0.480
REMARK  Name = 
REMARK  4 active torsions:
REMARK  status: ('A' for Active; 'I' for Inactive)
REMARK    1  A    between atoms: C_1  and  N_2
REMARK    2  A    between atoms: C_6  and  C_7
REMARK    3  A    between atoms: C_17  and  C_18
REMARK    4  A    between atoms: C_25  and  C_26
REMARK                            x       y       z     vdW  Elec       q    Type
REMARK                         _______ _______ _______ _____ _____    ______ ____
ROOT
ATOM      1  C   UNL     1       1.765  11.396  18.361  0.00  0.00    +0.113 A 
ATOM      2  C   UNL     1       2.623  10.333  18.174  0.00  0.00    +0.008 A 
ATOM      3  C   UNL     1       2.049   9.088  18.054  0.00  0.00    +0.132 A 
ATOM      4  N   UNL     1       2.853   7.941  17.861  0.00  0.00    -0.248 N 
ATOM      5  C   UNL     1       4.300   7.988  17.771  0.00  0.00    +0.048 C 
ATOM      6  C   UNL     1       4.678   6.556  17.569  0.00  0.00    -0.006 A 
ATOM      7  C   UNL     1       3.529   5.770  17.551  0.00  0.00    +0.042 A 
ATOM      8  C   UNL     1       3.567   4.399  17.382  0.00  0.00    -0.049 A 
ATOM      9  C   UNL     1       4.818   3.803  17.225  0.00  0.00    -0.060 A 
ATOM     10  C   UNL     1       5.990   4.583  17.241  0.00  0.00    -0.050 A 
ATOM     11  C   UNL     1       5.937   5.979  17.415  0.00  0.00    +0.060 A 
ATOM     12  C   UNL     1       2.361   6.642  17.737  0.00  0.00    +0.253 C 
ATOM     13  O   UNL     1       1.230   6.195  17.761  0.00  0.00    -0.270 OA
ATOM     14  N   UNL     1       0.720   8.936  18.117  0.00  0.00    -0.217 NA
ATOM     15  C   UNL     1      -0.061  10.013  18.305  0.00  0.00    +0.135 A 
ATOM     16  N   UNL     1       0.430  11.257  18.426  0.00  0.00    -0.228 NA
ATOM     17  H   UNL     1       3.690  10.503  18.128  0.00  0.00    +0.067 HD
ATOM     18  H   UNL     1       4.598   8.594  16.909  0.00  0.00    +0.052 HD
ATOM     19  H   UNL     1       4.718   8.374  18.705  0.00  0.00    +0.052 HD
ATOM     20  H   UNL     1       2.651   3.815  17.373  0.00  0.00    +0.063 HD
ATOM     21  H   UNL     1       4.888   2.725  17.088  0.00  0.00    +0.062 HD
ATOM     22  H   UNL     1       6.951   4.084  17.115  0.00  0.00    +0.062 HD
ENDROOT
BRANCH  15  23
ATOM     23  C   UNL     1      -1.554   9.818  18.373  0.00  0.00    +0.019 C 
ATOM     24  C   UNL     1      -2.482  10.991  18.156  0.00  0.00    -0.043 C 
ATOM     25  C   UNL     1      -2.393   9.913  17.119  0.00  0.00    -0.043 C 
ATOM     26  H   UNL     1      -1.875   9.091  19.114  0.00  0.00    +0.038 HD
ATOM     27  H   UNL     1      -3.373  11.045  18.772  0.00  0.00    +0.027 HD
ATOM     28  H   UNL     1      -2.041  11.958  17.938  0.00  0.00    +0.027 HD
ATOM     29  H   UNL     1      -1.902  10.153  16.182  0.00  0.00    +0.027 HD
ATOM     30  H   UNL     1      -3.231   9.233  17.019  0.00  0.00    +0.027 HD
ENDBRANCH  15  23
BRANCH   1  35
ATOM     31  N   UNL     1       2.184  13.590  19.590  0.00  0.00    -0.315 N 
ATOM     32  C   UNL     1       2.825  14.745  19.257  0.00  0.00    +0.120 A 
ATOM     33  N   UNL     1       3.307  14.649  18.042  0.00  0.00    -0.137 NA
ATOM     34  N   UNL     1       2.974  13.406  17.567  0.00  0.00    -0.128 NA
ATOM     35  C   UNL     1       2.292  12.755  18.499  0.00  0.00    +0.182 A 
ATOM     36  H   UNL     1       2.913  15.601  19.912  0.00  0.00    +0.105 HD
BRANCH  31  37
ATOM     37  C   UNL     1       1.535  13.338  20.849  0.00  0.00    +0.015 C 
ATOM     38  H   UNL     1       1.616  12.273  21.082  0.00  0.00    +0.046 HD
ATOM     39  H   UNL     1       2.031  13.914  21.636  0.00  0.00    +0.046 HD
ATOM     40  H   UNL     1       0.492  13.653  20.780  0.00  0.00    +0.046 HD
ENDBRANCH  31  37
ENDBRANCH   1  35
BRANCH  11  41
ATOM     41  C   UNL     1       7.183   6.823  17.433  0.00  0.00    +0.418 C 
ATOM     42  F   UNL     1       7.950   6.580  18.532  0.00  0.00    -0.166 F 
ATOM     43  F   UNL     1       7.983   6.577  16.361  0.00  0.00    -0.166 F 
ATOM     44  F   UNL     1       6.942   8.161  17.428  0.00  0.00    -0.166 F 
ENDBRANCH  11  41
TORSDOF 4
ENDMDL
MODEL 9
REMARK VINA RESULT:    -5.196      1.670      2.192
REMARK INTER + INTRA:          -6.739
REMARK INTER:                  -6.978
REMARK INTRA:                   0.240
REMARK UNBOUND:                -0.480
REMARK  Name = 
REMARK  4 active torsions:
REMARK  status: ('A' for Active; 'I' for Inactive)
REMARK    1  A    between atoms: C_1  and  N_2
REMARK    2  A    between atoms: C_6  and  C_7
REMARK    3  A    between atoms: C_17  and  C_18
REMARK    4  A    between atoms: C_25  and  C_26
REMARK                            x       y       z     vdW  Elec       q    Type
REMARK                         _______ _______ _______ _____ _____    ______ ____
ROOT
ATOM      1  C   UNL     1       2.372   5.943  18.770  0.00  0.00    +0.113 A 
ATOM      2  C   UNL     1       1.789   7.159  19.054  0.00  0.00    +0.008 A 
ATOM      3  C   UNL     1       2.349   8.268  18.460  0.00  0.00    +0.132 A 
ATOM      4  N   UNL     1       1.816   9.556  18.695  0.00  0.00    -0.248 N 
ATOM      5  C   UNL     1       0.669   9.800  19.549  0.00  0.00    +0.048 C 
ATOM      6  C   UNL     1       0.496  11.284  19.477  0.00  0.00    -0.006 A 
ATOM      7  C   UNL     1       1.474  11.825  18.647  0.00  0.00    +0.042 A 
ATOM      8  C   UNL     1       1.565  13.180  18.390  0.00  0.00    -0.049 A 
ATOM      9  C   UNL     1       0.630  14.016  18.997  0.00  0.00    -0.060 A 
ATOM     10  C   UNL     1      -0.366  13.485  19.839  0.00  0.00    -0.050 A 
ATOM     11  C   UNL     1      -0.448  12.103  20.094  0.00  0.00    +0.060 A 
ATOM     12  C   UNL     1       2.320  10.733  18.145  0.00  0.00    +0.253 C 
ATOM     13  O   UNL     1       3.255  10.946  17.396  0.00  0.00    -0.270 OA
ATOM     14  N   UNL     1       3.407   8.150  17.648  0.00  0.00    -0.217 NA
ATOM     15  C   UNL     1       3.931   6.936  17.416  0.00  0.00    +0.135 A 
ATOM     16  N   UNL     1       3.435   5.812  17.958  0.00  0.00    -0.228 NA
ATOM     17  H   UNL     1       0.934   7.207  19.714  0.00  0.00    +0.067 HD
ATOM     18  H   UNL     1      -0.210   9.286  19.146  0.00  0.00    +0.052 HD
ATOM     19  H   UNL     1       0.894   9.484  20.572  0.00  0.00    +0.052 HD
ATOM     20  H   UNL     1       2.341  13.570  17.738  0.00  0.00    +0.063 HD
ATOM     21  H   UNL     1       0.670  15.090  18.818  0.00  0.00    +0.062 HD
ATOM     22  H   UNL     1      -1.081  14.168  20.298  0.00  0.00    +0.062 HD
ENDROOT
BRANCH  15  23
ATOM     23  C   UNL     1       5.123   6.829  16.499  0.00  0.00    +0.019 C 
ATOM     24  C   UNL     1       6.523   6.901  17.066  0.00  0.00    -0.043 C 
ATOM     25  C   UNL     1       6.003   5.599  16.534  0.00  0.00    -0.043 C 
ATOM     26  H   UNL     1       4.982   7.293  15.528  0.00  0.00    +0.038 HD
ATOM     27  H   UNL     1       7.270   7.434  16.488  0.00  0.00    +0.027 HD
ATOM     28  H   UNL     1       6.636   7.015  18.138  0.00  0.00    +0.027 HD
ATOM     29  H   UNL     1       5.774   4.817  17.250  0.00  0.00    +0.027 HD
ATOM     30  H   UNL     1       6.403   5.237  15.594  0.00  0.00    +0.027 HD
ENDBRANCH  15  23
BRANCH   1  35
ATOM     31  N   UNL     1       1.836   3.451  18.808  0.00  0.00    -0.315 N 
ATOM     32  C   UNL     1       1.240   2.633  19.720  0.00  0.00    +0.120 A 
ATOM     33  N   UNL     1       0.891   3.326  20.775  0.00  0.00    -0.137 NA
ATOM     34  N   UNL     1       1.266   4.627  20.552  0.00  0.00    -0.128 NA
ATOM     35  C   UNL     1       1.840   4.713  19.361  0.00  0.00    +0.182 A 
ATOM     36  H   UNL     1       1.086   1.572  19.575  0.00  0.00    +0.105 HD
BRANCH  31  37
ATOM     37  C   UNL     1       2.347   3.031  17.530  0.00  0.00    +0.015 C 
ATOM     38  H   UNL     1       2.600   3.916  16.942  0.00  0.00    +0.046 HD
ATOM     39  H   UNL     1       3.250   2.432  17.679  0.00  0.00    +0.046 HD
ATOM     40  H   UNL     1       1.592   2.421  17.029  0.00  0.00    +0.046 HD
ENDBRANCH  31  37
ENDBRANCH   1  35
BRANCH  11  41
ATOM     41  C   UNL     1      -1.507  11.524  20.991  0.00  0.00    +0.418 C 
ATOM     42  F   UNL     1      -2.248  12.491  21.600  0.00  0.00    -0.166 F 
ATOM     43  F   UNL     1      -2.395  10.754  20.305  0.00  0.00    -0.166 F 
ATOM     44  F   UNL     1      -1.017  10.738  21.988  0.00  0.00    -0.166 F 
ENDBRANCH  11  41
TORSDOF 4
ENDMDL
MODEL 10
REMARK VINA RESULT:    -5.135      3.685      7.651
REMARK INTER + INTRA:          -6.665
REMARK INTER:                  -6.320
REMARK INTRA:                  -0.345
REMARK UNBOUND:                -0.480
REMARK  Name = 
REMARK  4 active torsions:
REMARK  status: ('A' for Active; 'I' for Inactive)
REMARK    1  A    between atoms: C_1  and  N_2
REMARK    2  A    between atoms: C_6  and  C_7
REMARK    3  A    between atoms: C_17  and  C_18
REMARK    4  A    between atoms: C_25  and  C_26
REMARK                            x       y       z     vdW  Elec       q    Type
REMARK                         _______ _______ _______ _____ _____    ______ ____
ROOT
ATOM      1  C   UNL     1       0.016  10.772  18.302  0.00  0.00    +0.113 A 
ATOM      2  C   UNL     1       0.526   9.493  18.232  0.00  0.00    +0.008 A 
ATOM      3  C   UNL     1       1.887   9.377  18.062  0.00  0.00    +0.132 A 
ATOM      4  N   UNL     1       2.496   8.104  17.979  0.00  0.00    -0.248 N 
ATOM      5  C   UNL     1       1.757   6.860  18.070  0.00  0.00    +0.048 C 
ATOM      6  C   UNL     1       2.820   5.817  17.931  0.00  0.00    -0.006 A 
ATOM      7  C   UNL     1       4.057   6.435  17.771  0.00  0.00    +0.042 A 
ATOM      8  C   UNL     1       5.231   5.722  17.617  0.00  0.00    -0.049 A 
ATOM      9  C   UNL     1       5.145   4.330  17.624  0.00  0.00    -0.060 A 
ATOM     10  C   UNL     1       3.902   3.689  17.784  0.00  0.00    -0.050 A 
ATOM     11  C   UNL     1       2.714   4.428  17.940  0.00  0.00    +0.060 A 
ATOM     12  C   UNL     1       3.862   7.891  17.799  0.00  0.00    +0.253 C 
ATOM     13  O   UNL     1       4.796   8.661  17.678  0.00  0.00    -0.270 OA
ATOM     14  N   UNL     1       2.662  10.466  17.972  0.00  0.00    -0.217 NA
ATOM     15  C   UNL     1       2.102  11.684  18.044  0.00  0.00    +0.135 A 
ATOM     16  N   UNL     1       0.782  11.871  18.212  0.00  0.00    -0.228 NA
ATOM     17  H   UNL     1      -0.137   8.642  18.310  0.00  0.00    +0.067 HD
ATOM     18  H   UNL     1       1.269   6.789  19.047  0.00  0.00    +0.052 HD
ATOM     19  H   UNL     1       1.037   6.794  17.249  0.00  0.00    +0.052 HD
ATOM     20  H   UNL     1       6.180   6.235  17.494  0.00  0.00    +0.063 HD
ATOM     21  H   UNL     1       6.049   3.734  17.506  0.00  0.00    +0.062 HD
ATOM     22  H   UNL     1       3.872   2.600  17.785  0.00  0.00    +0.062 HD
ENDROOT
BRANCH  15  23
ATOM     23  C   UNL     1       2.994  12.895  17.939  0.00  0.00    +0.019 C 
ATOM     24  C   UNL     1       2.393  14.282  17.964  0.00  0.00    -0.043 C 
ATOM     25  C   UNL     1       3.194  13.799  19.135  0.00  0.00    -0.043 C 
ATOM     26  H   UNL     1       3.851  12.762  17.286  0.00  0.00    +0.038 HD
ATOM     27  H   UNL     1       2.832  15.028  17.309  0.00  0.00    +0.027 HD
ATOM     28  H   UNL     1       1.318  14.373  18.072  0.00  0.00    +0.027 HD
ATOM     29  H   UNL     1       2.661  13.574  20.052  0.00  0.00    +0.027 HD
ATOM     30  H   UNL     1       4.180  14.224  19.287  0.00  0.00    +0.027 HD
ENDBRANCH  15  23
BRANCH   1  35
ATOM     31  N   UNL     1      -2.438  10.605  17.632  0.00  0.00    -0.315 N 
ATOM     32  C   UNL     1      -3.600  11.014  18.213  0.00  0.00    +0.120 A 
ATOM     33  N   UNL     1      -3.339  11.610  19.351  0.00  0.00    -0.137 NA
ATOM     34  N   UNL     1      -1.978  11.592  19.520  0.00  0.00    -0.128 NA
ATOM     35  C   UNL     1      -1.422  10.985  18.481  0.00  0.00    +0.182 A 
ATOM     36  H   UNL     1      -4.581  10.861  17.784  0.00  0.00    +0.105 HD
BRANCH  31  37
ATOM     37  C   UNL     1      -2.342   9.913  16.374  0.00  0.00    +0.015 C 
ATOM     38  H   UNL     1      -1.909   8.925  16.545  0.00  0.00    +0.046 HD
ATOM     39  H   UNL     1      -3.342   9.796  15.946  0.00  0.00    +0.046 HD
ATOM     40  H   UNL     1      -1.729  10.505  15.690  0.00  0.00    +0.046 HD
ENDBRANCH  31  37
ENDBRANCH   1  35
BRANCH  11  41
ATOM     41  C   UNL     1       1.379   3.755  18.112  0.00  0.00    +0.418 C 
ATOM     42  F   UNL     1       0.476   4.161  17.178  0.00  0.00    -0.166 F 
ATOM     43  F   UNL     1       1.466   2.404  17.980  0.00  0.00    -0.166 F 
ATOM     44  F   UNL     1       0.799   3.980  19.322  0.00  0.00    -0.166 F 
ENDBRANCH  11  41
TORSDOF 4
ENDMDL
MODEL 11
REMARK VINA RESULT:    -4.853      6.989      9.197
REMARK INTER + INTRA:          -6.326
REMARK INTER:                  -6.055
REMARK INTRA:                  -0.271
REMARK UNBOUND:                -0.480
REMARK  Name = 
REMARK  4 active torsions:
REMARK  status: ('A' for Active; 'I' for Inactive)
REMARK    1  A    between atoms: C_1  and  N_2
REMARK    2  A    between atoms: C_6  and  C_7
REMARK    3  A    between atoms: C_17  and  C_18
REMARK    4  A    between atoms: C_25  and  C_26
REMARK                            x       y       z     vdW  Elec       q    Type
REMARK                         _______ _______ _______ _____ _____    ______ ____
ROOT
ATOM      1  C   UNL     1      -2.909  12.074  18.888  0.00  0.00    +0.113 A 
ATOM      2  C   UNL     1      -1.610  12.525  18.985  0.00  0.00    +0.008 A 
ATOM      3  C   UNL     1      -1.221  13.035  20.203  0.00  0.00    +0.132 A 
ATOM      4  N   UNL     1       0.093  13.521  20.394  0.00  0.00    -0.248 N 
ATOM      5  C   UNL     1       1.103  13.515  19.353  0.00  0.00    +0.048 C 
ATOM      6  C   UNL     1       2.295  14.115  20.026  0.00  0.00    -0.006 A 
ATOM      7  C   UNL     1       1.972  14.434  21.343  0.00  0.00    +0.042 A 
ATOM      8  C   UNL     1       2.880  15.006  22.214  0.00  0.00    -0.049 A 
ATOM      9  C   UNL     1       4.161  15.266  21.732  0.00  0.00    -0.060 A 
ATOM     10  C   UNL     1       4.505  14.950  20.403  0.00  0.00    -0.050 A 
ATOM     11  C   UNL     1       3.571  14.367  19.526  0.00  0.00    +0.060 A 
ATOM     12  C   UNL     1       0.572  14.060  21.586  0.00  0.00    +0.253 C 
ATOM     13  O   UNL     1       0.044  14.240  22.668  0.00  0.00    -0.270 OA
ATOM     14  N   UNL     1      -2.076  13.080  21.233  0.00  0.00    -0.217 NA
ATOM     15  C   UNL     1      -3.330  12.628  21.071  0.00  0.00    +0.135 A 
ATOM     16  N   UNL     1      -3.777  12.115  19.913  0.00  0.00    -0.228 NA
ATOM     17  H   UNL     1      -0.953  12.469  18.128  0.00  0.00    +0.067 HD
ATOM     18  H   UNL     1       1.309  12.486  19.042  0.00  0.00    +0.052 HD
ATOM     19  H   UNL     1       0.776  14.137  18.514  0.00  0.00    +0.052 HD
ATOM     20  H   UNL     1       2.595  15.243  23.235  0.00  0.00    +0.063 HD
ATOM     21  H   UNL     1       4.904  15.716  22.389  0.00  0.00    +0.062 HD
ATOM     22  H   UNL     1       5.516  15.166  20.059  0.00  0.00    +0.062 HD
ENDROOT
BRANCH  15  23
ATOM     23  C   UNL     1      -4.276  12.690  22.244  0.00  0.00    +0.019 C 
ATOM     24  C   UNL     1      -3.900  13.476  23.479  0.00  0.00    -0.043 C 
ATOM     25  C   UNL     1      -4.989  13.980  22.581  0.00  0.00    -0.043 C 
ATOM     26  H   UNL     1      -4.830  11.772  22.419  0.00  0.00    +0.038 HD
ATOM     27  H   UNL     1      -4.175  13.058  24.441  0.00  0.00    +0.027 HD
ATOM     28  H   UNL     1      -2.949  13.998  23.484  0.00  0.00    +0.027 HD
ATOM     29  H   UNL     1      -4.782  14.859  21.981  0.00  0.00    +0.027 HD
ATOM     30  H   UNL     1      -6.012  13.914  22.934  0.00  0.00    +0.027 HD
ENDBRANCH  15  23
BRANCH   1  35
ATOM     31  N   UNL     1      -2.821  10.537  16.856  0.00  0.00    -0.315 N 
ATOM     32  C   UNL     1      -3.640  10.351  15.784  0.00  0.00    +0.120 A 
ATOM     33  N   UNL     1      -4.671  11.155  15.870  0.00  0.00    -0.137 NA
ATOM     34  N   UNL     1      -4.525  11.886  17.022  0.00  0.00    -0.128 NA
ATOM     35  C   UNL     1      -3.405  11.518  17.628  0.00  0.00    +0.182 A 
ATOM     36  H   UNL     1      -3.451   9.640  14.991  0.00  0.00    +0.105 HD
BRANCH  31  37
ATOM     37  C   UNL     1      -1.595   9.823  17.094  0.00  0.00    +0.015 C 
ATOM     38  H   UNL     1      -1.194   9.479  16.137  0.00  0.00    +0.046 HD
ATOM     39  H   UNL     1      -0.869  10.492  17.565  0.00  0.00    +0.046 HD
ATOM     40  H   UNL     1      -1.796   8.985  17.766  0.00  0.00    +0.046 HD
ENDBRANCH  31  37
ENDBRANCH   1  35
BRANCH  11  41
ATOM     41  C   UNL     1       3.926  14.025  18.104  0.00  0.00    +0.418 C 
ATOM     42  F   UNL     1       3.593  12.743  17.788  0.00  0.00    -0.166 F 
ATOM     43  F   UNL     1       3.267  14.810  17.209  0.00  0.00    -0.166 F 
ATOM     44  F   UNL     1       5.249  14.154  17.819  0.00  0.00    -0.166 F 
ENDBRANCH  11  41
TORSDOF 4
ENDMDL
