MODEL 1
REMARK VINA RESULT:   -10.839      0.000      0.000
REMARK INTER + INTRA:         -12.716
REMARK INTER:                 -11.657
REMARK INTRA:                  -1.059
REMARK UNBOUND:                 1.925
REMARK  Name = 
REMARK  6 active torsions:
REMARK  status: ('A' for Active; 'I' for Inactive)
REMARK    1  A    between atoms: C_2  and  C_4
REMARK    2  A    between atoms: C_10  and  C_11
REMARK    3  A    between atoms: C_11  and  N_12
REMARK    4  A    between atoms: N_15  and  C_16
REMARK    5  A    between atoms: C_18  and  N_19
REMARK    6  A    between atoms: C_20  and  C_22
REMARK                            x       y       z     vdW  Elec       q    Type
REMARK                         _______ _______ _______ _____ _____    ______ ____
ROOT
ATOM      1  C   UNL     1       0.734  10.271  18.951  0.00  0.00    +0.052 C 
ATOM      2  C   UNL     1      -0.734  10.269  18.481  0.00  0.00    -0.008 C 
ATOM      3  C   UNL     1      -1.291  11.671  18.796  0.00  0.00    +0.051 C 
ATOM      4  C   UNL     1      -0.048  12.508  18.661  0.00  0.00    -0.022 A 
ATOM      5  C   UNL     1       0.039  13.884  18.515  0.00  0.00    -0.056 A 
ATOM      6  C   UNL     1       1.308  14.465  18.446  0.00  0.00    -0.061 A 
ATOM      7  C   UNL     1       2.464  13.671  18.534  0.00  0.00    -0.061 A 
ATOM      8  C   UNL     1       2.368  12.287  18.691  0.00  0.00    -0.056 A 
ATOM      9  C   UNL     1       1.104  11.714  18.744  0.00  0.00    -0.022 A 
ATOM     10  H   UNL     1       0.794  10.028  20.019  0.00  0.00    +0.055 HD
ATOM     11  H   UNL     1      -1.308   9.456  18.937  0.00  0.00    +0.031 HD
ATOM     12  H   UNL     1      -0.769  10.112  17.393  0.00  0.00    +0.031 HD
ATOM     13  H   UNL     1      -2.057  11.959  18.066  0.00  0.00    +0.055 HD
ATOM     14  H   UNL     1      -0.855  14.499  18.457  0.00  0.00    +0.062 HD
ATOM     15  H   UNL     1       1.404  15.542  18.327  0.00  0.00    +0.062 HD
ATOM     16  H   UNL     1       3.445  14.142  18.485  0.00  0.00    +0.062 HD
ATOM     17  H   UNL     1       3.262  11.675  18.776  0.00  0.00    +0.062 HD
ENDROOT
BRANCH   1  21
ATOM     18  N   UNL     1       2.711   7.445  17.876  0.00  0.00    -0.295 N 
ATOM     19  C   UNL     1       2.070   8.239  18.790  0.00  0.00    +0.300 C 
ATOM     20  O   UNL     1       1.961   7.979  19.978  0.00  0.00    -0.253 OA
ATOM     21  N   UNL     1       1.564   9.362  18.197  0.00  0.00    -0.293 N 
ATOM     22  H   UNL     1       3.244   7.988  17.200  0.00  0.00    +0.151 HD
ATOM     23  H   UNL     1       1.388   9.284  17.205  0.00  0.00    +0.151 HD
BRANCH  18  24
ATOM     24  C   UNL     1       3.423   6.283  18.345  0.00  0.00    +0.039 C 
ATOM     25  H   UNL     1       4.030   6.567  19.213  0.00  0.00    +0.051 HD
ATOM     26  H   UNL     1       2.701   5.543  18.707  0.00  0.00    +0.051 HD
BRANCH  24  33
ATOM     27  C   UNL     1       4.600   4.305  17.203  0.00  0.00    +0.044 A 
ATOM     28  C   UNL     1       5.387   3.806  16.155  0.00  0.00    -0.014 A 
ATOM     29  C   UNL     1       5.858   4.669  15.174  0.00  0.00    +0.124 A 
ATOM     30  F   UNL     1       6.605   4.185  14.173  0.00  0.00    -0.205 F 
ATOM     31  C   UNL     1       5.578   6.024  15.222  0.00  0.00    -0.026 A 
ATOM     32  C   UNL     1       4.803   6.532  16.265  0.00  0.00    -0.054 A 
ATOM     33  C   UNL     1       4.291   5.683  17.264  0.00  0.00    -0.018 A 
ATOM     34  H   UNL     1       5.664   2.763  16.102  0.00  0.00    +0.065 HD
ATOM     35  H   UNL     1       5.968   6.681  14.455  0.00  0.00    +0.065 HD
ATOM     36  H   UNL     1       4.600   7.601  16.301  0.00  0.00    +0.062 HD
BRANCH  27  38
ATOM     37  N   UNL     1       5.035   3.093  19.265  0.00  0.00    -0.325 N 
ATOM     38  C   UNL     1       4.147   3.362  18.261  0.00  0.00    +0.242 C 
ATOM     39  O   UNL     1       3.038   2.841  18.238  0.00  0.00    -0.270 OA
ATOM     40  H   UNL     1       4.775   2.357  19.917  0.00  0.00    +0.145 HD
ATOM     41  H   UNL     1       6.016   3.330  19.202  0.00  0.00    +0.145 HD
ENDBRANCH  27  38
ENDBRANCH  24  33
ENDBRANCH  18  24
ENDBRANCH   1  21
BRANCH   3  42
ATOM     42  N   UNL     1      -1.831  11.775  20.137  0.00  0.00    -0.304 N 
ATOM     43  C   UNL     1      -3.024  12.423  20.369  0.00  0.00    +0.245 C 
ATOM     44  O   UNL     1      -3.685  12.938  19.473  0.00  0.00    -0.270 OA
ATOM     45  H   UNL     1      -1.226  11.523  20.905  0.00  0.00    +0.150 HD
BRANCH  43  46
ATOM     46  C   UNL     1      -3.484  12.514  21.785  0.00  0.00    +0.037 A 
ATOM     47  C   UNL     1      -4.776  12.932  22.142  0.00  0.00    -0.047 A 
ATOM     48  C   UNL     1      -5.146  12.990  23.490  0.00  0.00    -0.026 A 
ATOM     49  C   UNL     1      -4.227  12.644  24.475  0.00  0.00    +0.123 A 
ATOM     50  F   UNL     1      -4.588  12.700  25.764  0.00  0.00    -0.205 F 
ATOM     51  C   UNL     1      -2.939  12.246  24.142  0.00  0.00    -0.026 A 
ATOM     52  C   UNL     1      -2.566  12.183  22.796  0.00  0.00    -0.047 A 
ATOM     53  H   UNL     1      -5.502  13.241  21.396  0.00  0.00    +0.063 HD
ATOM     54  H   UNL     1      -6.140  13.312  23.779  0.00  0.00    +0.065 HD
ATOM     55  H   UNL     1      -2.233  11.991  24.927  0.00  0.00    +0.065 HD
ATOM     56  H   UNL     1      -1.555  11.875  22.536  0.00  0.00    +0.063 HD
ENDBRANCH  43  46
ENDBRANCH   3  42
TORSDOF 6
ENDMDL
MODEL 2
REMARK VINA RESULT:   -10.485      1.633      2.138
REMARK INTER + INTRA:         -12.237
REMARK INTER:                 -11.238
REMARK INTRA:                  -0.999
REMARK UNBOUND:                 1.925
REMARK  Name = 
REMARK  6 active torsions:
REMARK  status: ('A' for Active; 'I' for Inactive)
REMARK    1  A    between atoms: C_2  and  C_4
REMARK    2  A    between atoms: C_10  and  C_11
REMARK    3  A    between atoms: C_11  and  N_12
REMARK    4  A    between atoms: N_15  and  C_16
REMARK    5  A    between atoms: C_18  and  N_19
REMARK    6  A    between atoms: C_20  and  C_22
REMARK                            x       y       z     vdW  Elec       q    Type
REMARK                         _______ _______ _______ _____ _____    ______ ____
ROOT
ATOM      1  C   UNL     1       0.540  10.330  18.620  0.00  0.00    +0.052 C 
ATOM      2  C   UNL     1      -0.930  10.449  18.170  0.00  0.00    -0.008 C 
ATOM      3  C   UNL     1      -1.410  11.841  18.627  0.00  0.00    +0.051 C 
ATOM      4  C   UNL     1      -0.126  12.622  18.559  0.00  0.00    -0.022 A 
ATOM      5  C   UNL     1       0.032  14.000  18.546  0.00  0.00    -0.056 A 
ATOM      6  C   UNL     1       1.330  14.518  18.519  0.00  0.00    -0.061 A 
ATOM      7  C   UNL     1       2.443  13.661  18.515  0.00  0.00    -0.061 A 
ATOM      8  C   UNL     1       2.275  12.275  18.539  0.00  0.00    -0.056 A 
ATOM      9  C   UNL     1       0.983  11.765  18.550  0.00  0.00    -0.022 A 
ATOM     10  H   UNL     1       0.594   9.981  19.659  0.00  0.00    +0.055 HD
ATOM     11  H   UNL     1      -1.542   9.627  18.551  0.00  0.00    +0.031 HD
ATOM     12  H   UNL     1      -0.981  10.401  17.073  0.00  0.00    +0.031 HD
ATOM     13  H   UNL     1      -2.165  12.238  17.937  0.00  0.00    +0.055 HD
ATOM     14  H   UNL     1      -0.829  14.662  18.558  0.00  0.00    +0.062 HD
ATOM     15  H   UNL     1       1.481  15.595  18.504  0.00  0.00    +0.062 HD
ATOM     16  H   UNL     1       3.447  14.083  18.500  0.00  0.00    +0.062 HD
ATOM     17  H   UNL     1       3.137  11.612  18.553  0.00  0.00    +0.062 HD
ENDROOT
BRANCH   1  21
ATOM     18  N   UNL     1       2.704   7.727  17.361  0.00  0.00    -0.295 N 
ATOM     19  C   UNL     1       2.171   8.544  18.322  0.00  0.00    +0.300 C 
ATOM     20  O   UNL     1       2.422   8.467  19.515  0.00  0.00    -0.253 OA
ATOM     21  N   UNL     1       1.315   9.457  17.772  0.00  0.00    -0.293 N 
ATOM     22  H   UNL     1       2.927   8.231  16.506  0.00  0.00    +0.151 HD
ATOM     23  H   UNL     1       0.912   9.190  16.885  0.00  0.00    +0.151 HD
BRANCH  18  24
ATOM     24  C   UNL     1       3.731   6.789  17.740  0.00  0.00    +0.039 C 
ATOM     25  H   UNL     1       4.554   6.855  17.019  0.00  0.00    +0.051 HD
ATOM     26  H   UNL     1       4.149   7.088  18.708  0.00  0.00    +0.051 HD
BRANCH  24  33
ATOM     27  C   UNL     1       4.002   4.240  17.559  0.00  0.00    +0.044 A 
ATOM     28  C   UNL     1       3.454   2.954  17.674  0.00  0.00    -0.014 A 
ATOM     29  C   UNL     1       2.124   2.799  18.040  0.00  0.00    +0.124 A 
ATOM     30  F   UNL     1       1.609   1.568  18.152  0.00  0.00    -0.205 F 
ATOM     31  C   UNL     1       1.318   3.900  18.280  0.00  0.00    -0.026 A 
ATOM     32  C   UNL     1       1.850   5.183  18.161  0.00  0.00    -0.054 A 
ATOM     33  C   UNL     1       3.200   5.376  17.813  0.00  0.00    -0.018 A 
ATOM     34  H   UNL     1       4.037   2.070  17.455  0.00  0.00    +0.065 HD
ATOM     35  H   UNL     1       0.280   3.756  18.550  0.00  0.00    +0.065 HD
ATOM     36  H   UNL     1       1.204   6.042  18.338  0.00  0.00    +0.062 HD
BRANCH  27  38
ATOM     37  N   UNL     1       6.376   4.158  18.076  0.00  0.00    -0.325 N 
ATOM     38  C   UNL     1       5.418   4.372  17.124  0.00  0.00    +0.242 C 
ATOM     39  O   UNL     1       5.721   4.665  15.974  0.00  0.00    -0.270 OA
ATOM     40  H   UNL     1       7.334   4.369  17.812  0.00  0.00    +0.145 HD
ATOM     41  H   UNL     1       6.164   4.129  19.064  0.00  0.00    +0.145 HD
ENDBRANCH  27  38
ENDBRANCH  24  33
ENDBRANCH  18  24
ENDBRANCH   1  21
BRANCH   3  42
ATOM     42  N   UNL     1      -1.936  11.841  19.977  0.00  0.00    -0.304 N 
ATOM     43  C   UNL     1      -3.042  12.592  20.304  0.00  0.00    +0.245 C 
ATOM     44  O   UNL     1      -3.636  13.289  19.488  0.00  0.00    -0.270 OA
ATOM     45  H   UNL     1      -1.365  11.426  20.700  0.00  0.00    +0.150 HD
BRANCH  43  46
ATOM     46  C   UNL     1      -3.489  12.561  21.727  0.00  0.00    +0.037 A 
ATOM     47  C   UNL     1      -4.789  12.908  22.126  0.00  0.00    -0.047 A 
ATOM     48  C   UNL     1      -5.146  12.853  23.478  0.00  0.00    -0.026 A 
ATOM     49  C   UNL     1      -4.207  12.463  24.426  0.00  0.00    +0.123 A 
ATOM     50  F   UNL     1      -4.555  12.410  25.718  0.00  0.00    -0.205 F 
ATOM     51  C   UNL     1      -2.910  12.133  24.052  0.00  0.00    -0.026 A 
ATOM     52  C   UNL     1      -2.550  12.185  22.702  0.00  0.00    -0.047 A 
ATOM     53  H   UNL     1      -5.534  13.249  21.412  0.00  0.00    +0.063 HD
ATOM     54  H   UNL     1      -6.147  13.119  23.798  0.00  0.00    +0.065 HD
ATOM     55  H   UNL     1      -2.187  11.842  24.809  0.00  0.00    +0.065 HD
ATOM     56  H   UNL     1      -1.533  11.930  22.411  0.00  0.00    +0.063 HD
ENDBRANCH  43  46
ENDBRANCH   3  42
TORSDOF 6
ENDMDL
MODEL 3
REMARK VINA RESULT:   -10.300      1.136      1.164
REMARK INTER + INTRA:         -11.988
REMARK INTER:                 -10.980
REMARK INTRA:                  -1.008
REMARK UNBOUND:                 1.925
REMARK  Name = 
REMARK  6 active torsions:
REMARK  status: ('A' for Active; 'I' for Inactive)
REMARK    1  A    between atoms: C_2  and  C_4
REMARK    2  A    between atoms: C_10  and  C_11
REMARK    3  A    between atoms: C_11  and  N_12
REMARK    4  A    between atoms: N_15  and  C_16
REMARK    5  A    between atoms: C_18  and  N_19
REMARK    6  A    between atoms: C_20  and  C_22
REMARK                            x       y       z     vdW  Elec       q    Type
REMARK                         _______ _______ _______ _____ _____    ______ ____
ROOT
ATOM      1  C   UNL     1       0.970  10.844  19.087  0.00  0.00    +0.052 C 
ATOM      2  C   UNL     1      -0.539  10.972  18.792  0.00  0.00    -0.008 C 
ATOM      3  C   UNL     1      -0.907  12.445  19.059  0.00  0.00    +0.051 C 
ATOM      4  C   UNL     1       0.387  13.129  18.716  0.00  0.00    -0.022 A 
ATOM      5  C   UNL     1       0.594  14.475  18.453  0.00  0.00    -0.056 A 
ATOM      6  C   UNL     1       1.897  14.908  18.192  0.00  0.00    -0.061 A 
ATOM      7  C   UNL     1       2.969  13.999  18.207  0.00  0.00    -0.061 A 
ATOM      8  C   UNL     1       2.754  12.647  18.483  0.00  0.00    -0.056 A 
ATOM      9  C   UNL     1       1.455  12.220  18.726  0.00  0.00    -0.022 A 
ATOM     10  H   UNL     1       1.136  10.666  20.157  0.00  0.00    +0.055 HD
ATOM     11  H   UNL     1      -1.130  10.258  19.373  0.00  0.00    +0.031 HD
ATOM     12  H   UNL     1      -0.723  10.748  17.731  0.00  0.00    +0.031 HD
ATOM     13  H   UNL     1      -1.725  12.766  18.402  0.00  0.00    +0.055 HD
ATOM     14  H   UNL     1      -0.234  15.179  18.451  0.00  0.00    +0.062 HD
ATOM     15  H   UNL     1       2.086  15.957  17.979  0.00  0.00    +0.062 HD
ATOM     16  H   UNL     1       3.979  14.355  18.009  0.00  0.00    +0.062 HD
ATOM     17  H   UNL     1       3.585  11.948  18.511  0.00  0.00    +0.062 HD
ENDROOT
BRANCH   1  21
ATOM     18  N   UNL     1       2.318   7.693  17.944  0.00  0.00    -0.295 N 
ATOM     19  C   UNL     1       1.838   8.577  18.876  0.00  0.00    +0.300 C 
ATOM     20  O   UNL     1       1.641   8.307  20.050  0.00  0.00    -0.253 OA
ATOM     21  N   UNL     1       1.604   9.802  18.316  0.00  0.00    -0.293 N 
ATOM     22  H   UNL     1       2.974   8.129  17.301  0.00  0.00    +0.151 HD
ATOM     23  H   UNL     1       1.443   9.797  17.319  0.00  0.00    +0.151 HD
BRANCH  18  24
ATOM     24  C   UNL     1       2.748   6.389  18.383  0.00  0.00    +0.039 C 
ATOM     25  H   UNL     1       3.137   6.470  19.405  0.00  0.00    +0.051 HD
ATOM     26  H   UNL     1       1.877   5.726  18.441  0.00  0.00    +0.051 HD
BRANCH  24  33
ATOM     27  C   UNL     1       3.954   4.413  17.268  0.00  0.00    +0.044 A 
ATOM     28  C   UNL     1       4.923   3.936  16.374  0.00  0.00    -0.014 A 
ATOM     29  C   UNL     1       5.721   4.833  15.677  0.00  0.00    +0.124 A 
ATOM     30  F   UNL     1       6.641   4.370  14.821  0.00  0.00    -0.205 F 
ATOM     31  C   UNL     1       5.587   6.199  15.861  0.00  0.00    -0.026 A 
ATOM     32  C   UNL     1       4.632   6.684  16.754  0.00  0.00    -0.054 A 
ATOM     33  C   UNL     1       3.792   5.804  17.461  0.00  0.00    -0.018 A 
ATOM     34  H   UNL     1       5.088   2.877  16.232  0.00  0.00    +0.065 HD
ATOM     35  H   UNL     1       6.230   6.879  15.318  0.00  0.00    +0.065 HD
ATOM     36  H   UNL     1       4.546   7.759  16.903  0.00  0.00    +0.062 HD
BRANCH  27  38
ATOM     37  N   UNL     1       1.992   2.987  17.439  0.00  0.00    -0.325 N 
ATOM     38  C   UNL     1       3.144   3.425  18.031  0.00  0.00    +0.242 C 
ATOM     39  O   UNL     1       3.481   3.024  19.139  0.00  0.00    -0.270 OA
ATOM     40  H   UNL     1       1.379   2.411  18.009  0.00  0.00    +0.145 HD
ATOM     41  H   UNL     1       1.581   3.449  16.639  0.00  0.00    +0.145 HD
ENDBRANCH  27  38
ENDBRANCH  24  33
ENDBRANCH  18  24
ENDBRANCH   1  21
BRANCH   3  42
ATOM     42  N   UNL     1      -1.265  12.694  20.441  0.00  0.00    -0.304 N 
ATOM     43  C   UNL     1      -2.577  12.902  20.803  0.00  0.00    +0.245 C 
ATOM     44  O   UNL     1      -3.500  12.887  19.995  0.00  0.00    -0.270 OA
ATOM     45  H   UNL     1      -0.516  12.892  21.088  0.00  0.00    +0.150 HD
BRANCH  43  46
ATOM     46  C   UNL     1      -2.848  13.190  22.242  0.00  0.00    +0.037 A 
ATOM     47  C   UNL     1      -3.841  12.527  22.979  0.00  0.00    -0.047 A 
ATOM     48  C   UNL     1      -4.040  12.841  24.328  0.00  0.00    -0.026 A 
ATOM     49  C   UNL     1      -3.260  13.820  24.933  0.00  0.00    +0.123 A 
ATOM     50  F   UNL     1      -3.454  14.115  26.225  0.00  0.00    -0.205 F 
ATOM     51  C   UNL     1      -2.285  14.500  24.214  0.00  0.00    -0.026 A 
ATOM     52  C   UNL     1      -2.081  14.187  22.867  0.00  0.00    -0.047 A 
ATOM     53  H   UNL     1      -4.488  11.782  22.524  0.00  0.00    +0.063 HD
ATOM     54  H   UNL     1      -4.804  12.336  24.907  0.00  0.00    +0.065 HD
ATOM     55  H   UNL     1      -1.694  15.270  24.701  0.00  0.00    +0.065 HD
ATOM     56  H   UNL     1      -1.319  14.724  22.304  0.00  0.00    +0.063 HD
ENDBRANCH  43  46
ENDBRANCH   3  42
TORSDOF 6
ENDMDL
MODEL 4
REMARK VINA RESULT:   -10.041      3.345      4.818
REMARK INTER + INTRA:         -11.638
REMARK INTER:                 -10.759
REMARK INTRA:                  -0.880
REMARK UNBOUND:                 1.925
REMARK  Name = 
REMARK  6 active torsions:
REMARK  status: ('A' for Active; 'I' for Inactive)
REMARK    1  A    between atoms: C_2  and  C_4
REMARK    2  A    between atoms: C_10  and  C_11
REMARK    3  A    between atoms: C_11  and  N_12
REMARK    4  A    between atoms: N_15  and  C_16
REMARK    5  A    between atoms: C_18  and  N_19
REMARK    6  A    between atoms: C_20  and  C_22
REMARK                            x       y       z     vdW  Elec       q    Type
REMARK                         _______ _______ _______ _____ _____    ______ ____
ROOT
ATOM      1  C   UNL     1       1.575   8.086  19.614  0.00  0.00    +0.052 C 
ATOM      2  C   UNL     1       2.014   9.268  18.728  0.00  0.00    -0.008 C 
ATOM      3  C   UNL     1       0.921  10.346  18.872  0.00  0.00    +0.051 C 
ATOM      4  C   UNL     1       0.446  10.083  20.275  0.00  0.00    -0.022 A 
ATOM      5  C   UNL     1      -0.302  10.920  21.090  0.00  0.00    -0.056 A 
ATOM      6  C   UNL     1      -0.671  10.456  22.356  0.00  0.00    -0.061 A 
ATOM      7  C   UNL     1      -0.301   9.170  22.783  0.00  0.00    -0.061 A 
ATOM      8  C   UNL     1       0.443   8.330  21.951  0.00  0.00    -0.056 A 
ATOM      9  C   UNL     1       0.820   8.801  20.700  0.00  0.00    -0.022 A 
ATOM     10  H   UNL     1       0.889   7.430  19.064  0.00  0.00    +0.055 HD
ATOM     11  H   UNL     1       2.192   8.959  17.693  0.00  0.00    +0.031 HD
ATOM     12  H   UNL     1       2.963   9.675  19.106  0.00  0.00    +0.031 HD
ATOM     13  H   UNL     1       1.349  11.350  18.769  0.00  0.00    +0.055 HD
ATOM     14  H   UNL     1      -0.595  11.911  20.756  0.00  0.00    +0.062 HD
ATOM     15  H   UNL     1      -1.253  11.094  23.017  0.00  0.00    +0.062 HD
ATOM     16  H   UNL     1      -0.603   8.823  23.770  0.00  0.00    +0.062 HD
ATOM     17  H   UNL     1       0.715   7.328  22.275  0.00  0.00    +0.062 HD
ENDROOT
BRANCH   1  21
ATOM     18  N   UNL     1       4.167   5.612  20.070  0.00  0.00    -0.295 N 
ATOM     19  C   UNL     1       3.004   6.113  19.547  0.00  0.00    +0.300 C 
ATOM     20  O   UNL     1       2.336   5.561  18.687  0.00  0.00    -0.253 OA
ATOM     21  N   UNL     1       2.689   7.317  20.114  0.00  0.00    -0.293 N 
ATOM     22  H   UNL     1       4.243   5.776  21.071  0.00  0.00    +0.151 HD
ATOM     23  H   UNL     1       3.469   7.826  20.505  0.00  0.00    +0.151 HD
BRANCH  18  24
ATOM     24  C   UNL     1       4.584   4.286  19.688  0.00  0.00    +0.039 C 
ATOM     25  H   UNL     1       5.270   3.897  20.449  0.00  0.00    +0.051 HD
ATOM     26  H   UNL     1       3.713   3.621  19.695  0.00  0.00    +0.051 HD
BRANCH  24  33
ATOM     27  C   UNL     1       4.715   3.560  17.226  0.00  0.00    +0.044 A 
ATOM     28  C   UNL     1       5.357   3.617  15.980  0.00  0.00    -0.014 A 
ATOM     29  C   UNL     1       6.506   4.380  15.830  0.00  0.00    +0.124 A 
ATOM     30  F   UNL     1       7.111   4.433  14.636  0.00  0.00    -0.205 F 
ATOM     31  C   UNL     1       7.044   5.078  16.898  0.00  0.00    -0.026 A 
ATOM     32  C   UNL     1       6.419   5.022  18.143  0.00  0.00    -0.054 A 
ATOM     33  C   UNL     1       5.240   4.276  18.326  0.00  0.00    -0.018 A 
ATOM     34  H   UNL     1       4.994   3.055  15.132  0.00  0.00    +0.065 HD
ATOM     35  H   UNL     1       7.950   5.655  16.761  0.00  0.00    +0.065 HD
ATOM     36  H   UNL     1       6.858   5.562  18.980  0.00  0.00    +0.062 HD
BRANCH  27  38
ATOM     37  N   UNL     1       2.319   3.242  16.967  0.00  0.00    -0.325 N 
ATOM     38  C   UNL     1       3.510   2.699  17.365  0.00  0.00    +0.242 C 
ATOM     39  O   UNL     1       3.569   1.564  17.819  0.00  0.00    -0.270 OA
ATOM     40  H   UNL     1       1.482   2.704  17.176  0.00  0.00    +0.145 HD
ATOM     41  H   UNL     1       2.202   4.231  16.794  0.00  0.00    +0.145 HD
ENDBRANCH  27  38
ENDBRANCH  24  33
ENDBRANCH  18  24
ENDBRANCH   1  21
BRANCH   3  42
ATOM     42  N   UNL     1      -0.164  10.179  17.926  0.00  0.00    -0.304 N 
ATOM     43  C   UNL     1      -1.107  11.166  17.752  0.00  0.00    +0.245 C 
ATOM     44  O   UNL     1      -1.083  12.224  18.372  0.00  0.00    -0.270 OA
ATOM     45  H   UNL     1      -0.309   9.257  17.541  0.00  0.00    +0.150 HD
BRANCH  43  46
ATOM     46  C   UNL     1      -2.209  10.891  16.785  0.00  0.00    +0.037 A 
ATOM     47  C   UNL     1      -3.461  11.522  16.856  0.00  0.00    -0.047 A 
ATOM     48  C   UNL     1      -4.451  11.223  15.914  0.00  0.00    -0.026 A 
ATOM     49  C   UNL     1      -4.196  10.289  14.915  0.00  0.00    +0.123 A 
ATOM     50  F   UNL     1      -5.147  10.008  14.014  0.00  0.00    -0.205 F 
ATOM     51  C   UNL     1      -2.970   9.641  14.840  0.00  0.00    -0.026 A 
ATOM     52  C   UNL     1      -1.977   9.940  15.778  0.00  0.00    -0.047 A 
ATOM     53  H   UNL     1      -3.700  12.229  17.645  0.00  0.00    +0.063 HD
ATOM     54  H   UNL     1      -5.422  11.703  15.958  0.00  0.00    +0.065 HD
ATOM     55  H   UNL     1      -2.794   8.907  14.059  0.00  0.00    +0.065 HD
ATOM     56  H   UNL     1      -1.018   9.428  15.721  0.00  0.00    +0.063 HD
ENDBRANCH  43  46
ENDBRANCH   3  42
TORSDOF 6
ENDMDL
MODEL 5
REMARK VINA RESULT:    -9.889      2.029      2.683
REMARK INTER + INTRA:         -11.433
REMARK INTER:                 -10.339
REMARK INTRA:                  -1.094
REMARK UNBOUND:                 1.925
REMARK  Name = 
REMARK  6 active torsions:
REMARK  status: ('A' for Active; 'I' for Inactive)
REMARK    1  A    between atoms: C_2  and  C_4
REMARK    2  A    between atoms: C_10  and  C_11
REMARK    3  A    between atoms: C_11  and  N_12
REMARK    4  A    between atoms: N_15  and  C_16
REMARK    5  A    between atoms: C_18  and  N_19
REMARK    6  A    between atoms: C_20  and  C_22
REMARK                            x       y       z     vdW  Elec       q    Type
REMARK                         _______ _______ _______ _____ _____    ______ ____
ROOT
ATOM      1  C   UNL     1       0.628  10.156  19.389  0.00  0.00    +0.052 C 
ATOM      2  C   UNL     1      -0.897  10.135  19.164  0.00  0.00    -0.008 C 
ATOM      3  C   UNL     1      -1.371  11.597  19.288  0.00  0.00    +0.051 C 
ATOM      4  C   UNL     1      -0.154  12.334  18.801  0.00  0.00    -0.022 A 
ATOM      5  C   UNL     1      -0.069  13.653  18.382  0.00  0.00    -0.056 A 
ATOM      6  C   UNL     1       1.181  14.150  18.004  0.00  0.00    -0.061 A 
ATOM      7  C   UNL     1       2.323  13.333  18.060  0.00  0.00    -0.061 A 
ATOM      8  C   UNL     1       2.231  12.009  18.493  0.00  0.00    -0.056 A 
ATOM      9  C   UNL     1       0.983  11.515  18.853  0.00  0.00    -0.022 A 
ATOM     10  H   UNL     1       0.858  10.114  20.461  0.00  0.00    +0.055 HD
ATOM     11  H   UNL     1      -1.402   9.450  19.852  0.00  0.00    +0.031 HD
ATOM     12  H   UNL     1      -1.112   9.780  18.147  0.00  0.00    +0.031 HD
ATOM     13  H   UNL     1      -2.242  11.779  18.646  0.00  0.00    +0.055 HD
ATOM     14  H   UNL     1      -0.951  14.288  18.348  0.00  0.00    +0.062 HD
ATOM     15  H   UNL     1       1.274  15.180  17.667  0.00  0.00    +0.062 HD
ATOM     16  H   UNL     1       3.290  13.739  17.768  0.00  0.00    +0.062 HD
ATOM     17  H   UNL     1       3.117  11.382  18.552  0.00  0.00    +0.062 HD
ENDROOT
BRANCH   1  21
ATOM     18  N   UNL     1       2.439   7.134  18.591  0.00  0.00    -0.295 N 
ATOM     19  C   UNL     1       1.983   8.131  19.413  0.00  0.00    +0.300 C 
ATOM     20  O   UNL     1       2.153   8.164  20.622  0.00  0.00    -0.253 OA
ATOM     21  N   UNL     1       1.309   9.084  18.702  0.00  0.00    -0.293 N 
ATOM     22  H   UNL     1       2.784   7.493  17.704  0.00  0.00    +0.151 HD
ATOM     23  H   UNL     1       0.920   8.772  17.824  0.00  0.00    +0.151 HD
BRANCH  18  24
ATOM     24  C   UNL     1       3.289   6.111  19.147  0.00  0.00    +0.039 C 
ATOM     25  H   UNL     1       4.254   6.131  18.629  0.00  0.00    +0.051 HD
ATOM     26  H   UNL     1       3.501   6.353  20.195  0.00  0.00    +0.051 HD
BRANCH  24  33
ATOM     27  C   UNL     1       3.283   3.655  18.391  0.00  0.00    +0.044 A 
ATOM     28  C   UNL     1       2.657   2.401  18.356  0.00  0.00    -0.014 A 
ATOM     29  C   UNL     1       1.423   2.228  18.968  0.00  0.00    +0.124 A 
ATOM     30  F   UNL     1       0.832   1.027  18.936  0.00  0.00    -0.205 F 
ATOM     31  C   UNL     1       0.787   3.283  19.602  0.00  0.00    -0.026 A 
ATOM     32  C   UNL     1       1.397   4.537  19.635  0.00  0.00    -0.054 A 
ATOM     33  C   UNL     1       2.658   4.742  19.044  0.00  0.00    -0.018 A 
ATOM     34  H   UNL     1       3.099   1.562  17.838  0.00  0.00    +0.065 HD
ATOM     35  H   UNL     1      -0.182   3.129  20.060  0.00  0.00    +0.065 HD
ATOM     36  H   UNL     1       0.883   5.363  20.123  0.00  0.00    +0.062 HD
BRANCH  27  38
ATOM     37  N   UNL     1       5.714   3.635  18.440  0.00  0.00    -0.325 N 
ATOM     38  C   UNL     1       4.585   3.817  17.689  0.00  0.00    +0.242 C 
ATOM     39  O   UNL     1       4.653   4.107  16.501  0.00  0.00    -0.270 OA
ATOM     40  H   UNL     1       6.598   3.867  17.994  0.00  0.00    +0.145 HD
ATOM     41  H   UNL     1       5.697   3.610  19.451  0.00  0.00    +0.145 HD
ENDBRANCH  27  38
ENDBRANCH  24  33
ENDBRANCH  18  24
ENDBRANCH   1  21
BRANCH   3  42
ATOM     42  N   UNL     1      -1.684  11.974  20.652  0.00  0.00    -0.304 N 
ATOM     43  C   UNL     1      -2.706  12.856  20.923  0.00  0.00    +0.245 C 
ATOM     44  O   UNL     1      -3.398  13.361  20.045  0.00  0.00    -0.270 OA
ATOM     45  H   UNL     1      -1.022  11.719  21.370  0.00  0.00    +0.150 HD
BRANCH  43  46
ATOM     46  C   UNL     1      -2.932  13.217  22.353  0.00  0.00    +0.037 A 
ATOM     47  C   UNL     1      -3.979  12.681  23.119  0.00  0.00    -0.047 A 
ATOM     48  C   UNL     1      -4.132  13.058  24.458  0.00  0.00    -0.026 A 
ATOM     49  C   UNL     1      -3.251  13.972  25.024  0.00  0.00    +0.123 A 
ATOM     50  F   UNL     1      -3.401  14.327  26.307  0.00  0.00    -0.205 F 
ATOM     51  C   UNL     1      -2.220  14.527  24.277  0.00  0.00    -0.026 A 
ATOM     52  C   UNL     1      -2.062  14.151  22.940  0.00  0.00    -0.047 A 
ATOM     53  H   UNL     1      -4.703  11.991  22.694  0.00  0.00    +0.063 HD
ATOM     54  H   UNL     1      -4.937  12.651  25.060  0.00  0.00    +0.065 HD
ATOM     55  H   UNL     1      -1.549  15.249  24.734  0.00  0.00    +0.065 HD
ATOM     56  H   UNL     1      -1.256  14.590  22.354  0.00  0.00    +0.063 HD
ENDBRANCH  43  46
ENDBRANCH   3  42
TORSDOF 6
ENDMDL
MODEL 6
REMARK VINA RESULT:    -9.653      3.433      5.032
REMARK INTER + INTRA:         -11.113
REMARK INTER:                 -10.868
REMARK INTRA:                  -0.245
REMARK UNBOUND:                 1.925
REMARK  Name = 
REMARK  6 active torsions:
REMARK  status: ('A' for Active; 'I' for Inactive)
REMARK    1  A    between atoms: C_2  and  C_4
REMARK    2  A    between atoms: C_10  and  C_11
REMARK    3  A    between atoms: C_11  and  N_12
REMARK    4  A    between atoms: N_15  and  C_16
REMARK    5  A    between atoms: C_18  and  N_19
REMARK    6  A    between atoms: C_20  and  C_22
REMARK                            x       y       z     vdW  Elec       q    Type
REMARK                         _______ _______ _______ _____ _____    ______ ____
ROOT
ATOM      1  C   UNL     1       1.726   7.970  19.441  0.00  0.00    +0.052 C 
ATOM      2  C   UNL     1       2.119   9.204  18.604  0.00  0.00    -0.008 C 
ATOM      3  C   UNL     1       1.006  10.248  18.825  0.00  0.00    +0.051 C 
ATOM      4  C   UNL     1       0.568   9.906  20.222  0.00  0.00    -0.022 A 
ATOM      5  C   UNL     1      -0.179  10.684  21.094  0.00  0.00    -0.056 A 
ATOM      6  C   UNL     1      -0.509  10.151  22.343  0.00  0.00    -0.061 A 
ATOM      7  C   UNL     1      -0.102   8.854  22.698  0.00  0.00    -0.061 A 
ATOM      8  C   UNL     1       0.641   8.073  21.810  0.00  0.00    -0.056 A 
ATOM      9  C   UNL     1       0.980   8.614  20.577  0.00  0.00    -0.022 A 
ATOM     10  H   UNL     1       1.043   7.326  18.873  0.00  0.00    +0.055 HD
ATOM     11  H   UNL     1       2.280   8.950  17.552  0.00  0.00    +0.031 HD
ATOM     12  H   UNL     1       3.067   9.614  18.981  0.00  0.00    +0.031 HD
ATOM     13  H   UNL     1       1.409  11.266  18.762  0.00  0.00    +0.055 HD
ATOM     14  H   UNL     1      -0.502  11.684  20.816  0.00  0.00    +0.062 HD
ATOM     15  H   UNL     1      -1.091  10.742  23.047  0.00  0.00    +0.062 HD
ATOM     16  H   UNL     1      -0.374   8.452  23.673  0.00  0.00    +0.062 HD
ATOM     17  H   UNL     1       0.942   7.063  22.078  0.00  0.00    +0.062 HD
ENDROOT
BRANCH   1  21
ATOM     18  N   UNL     1       4.426   5.582  19.682  0.00  0.00    -0.295 N 
ATOM     19  C   UNL     1       3.248   6.083  19.193  0.00  0.00    +0.300 C 
ATOM     20  O   UNL     1       2.620   5.597  18.265  0.00  0.00    -0.253 OA
ATOM     21  N   UNL     1       2.868   7.204  19.878  0.00  0.00    -0.293 N 
ATOM     22  H   UNL     1       4.479   5.642  20.696  0.00  0.00    +0.151 HD
ATOM     23  H   UNL     1       3.617   7.703  20.336  0.00  0.00    +0.151 HD
BRANCH  18  24
ATOM     24  C   UNL     1       4.911   4.325  19.170  0.00  0.00    +0.039 C 
ATOM     25  H   UNL     1       5.611   3.894  19.894  0.00  0.00    +0.051 HD
ATOM     26  H   UNL     1       4.074   3.621  19.100  0.00  0.00    +0.051 HD
BRANCH  24  33
ATOM     27  C   UNL     1       6.787   5.188  17.641  0.00  0.00    +0.044 A 
ATOM     28  C   UNL     1       7.365   5.277  16.366  0.00  0.00    -0.014 A 
ATOM     29  C   UNL     1       6.742   4.672  15.282  0.00  0.00    +0.124 A 
ATOM     30  F   UNL     1       7.302   4.757  14.068  0.00  0.00    -0.205 F 
ATOM     31  C   UNL     1       5.545   3.994  15.435  0.00  0.00    -0.026 A 
ATOM     32  C   UNL     1       4.958   3.906  16.697  0.00  0.00    -0.054 A 
ATOM     33  C   UNL     1       5.573   4.488  17.821  0.00  0.00    -0.018 A 
ATOM     34  H   UNL     1       8.276   5.832  16.196  0.00  0.00    +0.065 HD
ATOM     35  H   UNL     1       5.070   3.542  14.573  0.00  0.00    +0.065 HD
ATOM     36  H   UNL     1       4.009   3.383  16.803  0.00  0.00    +0.062 HD
BRANCH  27  38
ATOM     37  N   UNL     1       7.998   7.111  18.507  0.00  0.00    -0.325 N 
ATOM     38  C   UNL     1       7.457   5.883  18.773  0.00  0.00    +0.242 C 
ATOM     39  O   UNL     1       7.533   5.385  19.890  0.00  0.00    -0.270 OA
ATOM     40  H   UNL     1       8.560   7.528  19.243  0.00  0.00    +0.145 HD
ATOM     41  H   UNL     1       8.141   7.449  17.565  0.00  0.00    +0.145 HD
ENDBRANCH  27  38
ENDBRANCH  24  33
ENDBRANCH  18  24
ENDBRANCH   1  21
BRANCH   3  42
ATOM     42  N   UNL     1      -0.096  10.102  17.895  0.00  0.00    -0.304 N 
ATOM     43  C   UNL     1      -1.036  11.098  17.752  0.00  0.00    +0.245 C 
ATOM     44  O   UNL     1      -0.995  12.145  18.389  0.00  0.00    -0.270 OA
ATOM     45  H   UNL     1      -0.254   9.187  17.498  0.00  0.00    +0.150 HD
BRANCH  43  46
ATOM     46  C   UNL     1      -2.156  10.844  16.800  0.00  0.00    +0.037 A 
ATOM     47  C   UNL     1      -3.399  11.490  16.895  0.00  0.00    -0.047 A 
ATOM     48  C   UNL     1      -4.407  11.211  15.966  0.00  0.00    -0.026 A 
ATOM     49  C   UNL     1      -4.179  10.282  14.956  0.00  0.00    +0.123 A 
ATOM     50  F   UNL     1      -5.147  10.020  14.068  0.00  0.00    -0.205 F 
ATOM     51  C   UNL     1      -2.962   9.619  14.858  0.00  0.00    -0.026 A 
ATOM     52  C   UNL     1      -1.951   9.898  15.782  0.00  0.00    -0.047 A 
ATOM     53  H   UNL     1      -3.617  12.194  17.694  0.00  0.00    +0.063 HD
ATOM     54  H   UNL     1      -5.371  11.703  16.029  0.00  0.00    +0.065 HD
ATOM     55  H   UNL     1      -2.807   8.889  14.069  0.00  0.00    +0.065 HD
ATOM     56  H   UNL     1      -1.000   9.375  15.707  0.00  0.00    +0.063 HD
ENDBRANCH  43  46
ENDBRANCH   3  42
TORSDOF 6
ENDMDL
MODEL 7
REMARK VINA RESULT:    -9.285      3.277      6.162
REMARK INTER + INTRA:         -10.616
REMARK INTER:                 -11.206
REMARK INTRA:                   0.590
REMARK UNBOUND:                 1.925
REMARK  Name = 
REMARK  6 active torsions:
REMARK  status: ('A' for Active; 'I' for Inactive)
REMARK    1  A    between atoms: C_2  and  C_4
REMARK    2  A    between atoms: C_10  and  C_11
REMARK    3  A    between atoms: C_11  and  N_12
REMARK    4  A    between atoms: N_15  and  C_16
REMARK    5  A    between atoms: C_18  and  N_19
REMARK    6  A    between atoms: C_20  and  C_22
REMARK                            x       y       z     vdW  Elec       q    Type
REMARK                         _______ _______ _______ _____ _____    ______ ____
ROOT
ATOM      1  C   UNL     1       2.111   5.298  18.407  0.00  0.00    +0.052 C 
ATOM      2  C   UNL     1       3.146   6.144  19.176  0.00  0.00    -0.008 C 
ATOM      3  C   UNL     1       2.799   5.995  20.671  0.00  0.00    +0.051 C 
ATOM      4  C   UNL     1       2.212   4.610  20.690  0.00  0.00    -0.022 A 
ATOM      5  C   UNL     1       2.006   3.789  21.789  0.00  0.00    -0.056 A 
ATOM      6  C   UNL     1       1.406   2.544  21.583  0.00  0.00    -0.061 A 
ATOM      7  C   UNL     1       1.012   2.144  20.295  0.00  0.00    -0.061 A 
ATOM      8  C   UNL     1       1.213   2.981  19.196  0.00  0.00    -0.056 A 
ATOM      9  C   UNL     1       1.825   4.210  19.404  0.00  0.00    -0.022 A 
ATOM     10  H   UNL     1       1.198   5.880  18.228  0.00  0.00    +0.055 HD
ATOM     11  H   UNL     1       3.162   7.182  18.831  0.00  0.00    +0.031 HD
ATOM     12  H   UNL     1       4.151   5.735  19.004  0.00  0.00    +0.031 HD
ATOM     13  H   UNL     1       3.704   6.063  21.288  0.00  0.00    +0.055 HD
ATOM     14  H   UNL     1       2.303   4.103  22.786  0.00  0.00    +0.062 HD
ATOM     15  H   UNL     1       1.237   1.879  22.428  0.00  0.00    +0.062 HD
ATOM     16  H   UNL     1       0.539   1.173  20.155  0.00  0.00    +0.062 HD
ATOM     17  H   UNL     1       0.893   2.678  18.202  0.00  0.00    +0.062 HD
ENDROOT
BRANCH   1  21
ATOM     18  N   UNL     1       4.063   3.636  15.862  0.00  0.00    -0.295 N 
ATOM     19  C   UNL     1       3.826   4.152  17.110  0.00  0.00    +0.300 C 
ATOM     20  O   UNL     1       4.587   4.049  18.059  0.00  0.00    -0.253 OA
ATOM     21  N   UNL     1       2.621   4.796  17.153  0.00  0.00    -0.293 N 
ATOM     22  H   UNL     1       3.756   4.260  15.121  0.00  0.00    +0.151 HD
ATOM     23  H   UNL     1       1.948   4.498  16.462  0.00  0.00    +0.151 HD
BRANCH  18  24
ATOM     24  C   UNL     1       5.347   3.038  15.593  0.00  0.00    +0.039 C 
ATOM     25  H   UNL     1       5.893   2.929  16.537  0.00  0.00    +0.051 HD
ATOM     26  H   UNL     1       5.195   2.021  15.211  0.00  0.00    +0.051 HD
BRANCH  24  33
ATOM     27  C   UNL     1       7.066   4.854  15.001  0.00  0.00    +0.044 A 
ATOM     28  C   UNL     1       7.802   5.555  14.035  0.00  0.00    -0.014 A 
ATOM     29  C   UNL     1       7.629   5.262  12.689  0.00  0.00    +0.124 A 
ATOM     30  F   UNL     1       8.338   5.932  11.771  0.00  0.00    -0.205 F 
ATOM     31  C   UNL     1       6.726   4.295  12.279  0.00  0.00    -0.026 A 
ATOM     32  C   UNL     1       5.983   3.597  13.231  0.00  0.00    -0.054 A 
ATOM     33  C   UNL     1       6.149   3.854  14.606  0.00  0.00    -0.018 A 
ATOM     34  H   UNL     1       8.486   6.345  14.308  0.00  0.00    +0.065 HD
ATOM     35  H   UNL     1       6.598   4.093  11.224  0.00  0.00    +0.065 HD
ATOM     36  H   UNL     1       5.266   2.850  12.899  0.00  0.00    +0.062 HD
BRANCH  27  38
ATOM     37  N   UNL     1       7.875   4.306  17.228  0.00  0.00    -0.325 N 
ATOM     38  C   UNL     1       7.243   5.222  16.432  0.00  0.00    +0.242 C 
ATOM     39  O   UNL     1       6.840   6.285  16.885  0.00  0.00    -0.270 OA
ATOM     40  H   UNL     1       7.885   4.501  18.225  0.00  0.00    +0.145 HD
ATOM     41  H   UNL     1       8.024   3.348  16.942  0.00  0.00    +0.145 HD
ENDBRANCH  27  38
ENDBRANCH  24  33
ENDBRANCH  18  24
ENDBRANCH   1  21
BRANCH   3  42
ATOM     42  N   UNL     1       1.826   6.968  21.124  0.00  0.00    -0.304 N 
ATOM     43  C   UNL     1       1.641   8.150  20.444  0.00  0.00    +0.245 C 
ATOM     44  O   UNL     1       2.274   8.443  19.435  0.00  0.00    -0.270 OA
ATOM     45  H   UNL     1       1.426   6.835  22.042  0.00  0.00    +0.150 HD
BRANCH  43  46
ATOM     46  C   UNL     1       0.644   9.109  21.005  0.00  0.00    +0.037 A 
ATOM     47  C   UNL     1      -0.031  10.054  20.218  0.00  0.00    -0.047 A 
ATOM     48  C   UNL     1      -0.958  10.922  20.807  0.00  0.00    -0.026 A 
ATOM     49  C   UNL     1      -1.200  10.852  22.174  0.00  0.00    +0.123 A 
ATOM     50  F   UNL     1      -2.090  11.684  22.732  0.00  0.00    -0.205 F 
ATOM     51  C   UNL     1      -0.527   9.936  22.972  0.00  0.00    -0.026 A 
ATOM     52  C   UNL     1       0.398   9.065  22.388  0.00  0.00    -0.047 A 
ATOM     53  H   UNL     1       0.162  10.155  19.154  0.00  0.00    +0.063 HD
ATOM     54  H   UNL     1      -1.486  11.657  20.210  0.00  0.00    +0.065 HD
ATOM     55  H   UNL     1      -0.721   9.904  24.040  0.00  0.00    +0.065 HD
ATOM     56  H   UNL     1       0.928   8.350  23.014  0.00  0.00    +0.063 HD
ENDBRANCH  43  46
ENDBRANCH   3  42
TORSDOF 6
ENDMDL
MODEL 8
REMARK VINA RESULT:    -9.275      1.490      1.789
REMARK INTER + INTRA:         -10.603
REMARK INTER:                  -9.484
REMARK INTRA:                  -1.118
REMARK UNBOUND:                 1.925
REMARK  Name = 
REMARK  6 active torsions:
REMARK  status: ('A' for Active; 'I' for Inactive)
REMARK    1  A    between atoms: C_2  and  C_4
REMARK    2  A    between atoms: C_10  and  C_11
REMARK    3  A    between atoms: C_11  and  N_12
REMARK    4  A    between atoms: N_15  and  C_16
REMARK    5  A    between atoms: C_18  and  N_19
REMARK    6  A    between atoms: C_20  and  C_22
REMARK                            x       y       z     vdW  Elec       q    Type
REMARK                         _______ _______ _______ _____ _____    ______ ____
ROOT
ATOM      1  C   UNL     1       1.207  10.090  18.696  0.00  0.00    +0.052 C 
ATOM      2  C   UNL     1      -0.244  10.011  18.181  0.00  0.00    -0.008 C 
ATOM      3  C   UNL     1      -0.882  11.383  18.477  0.00  0.00    +0.051 C 
ATOM      4  C   UNL     1       0.319  12.283  18.380  0.00  0.00    -0.022 A 
ATOM      5  C   UNL     1       0.340  13.662  18.235  0.00  0.00    -0.056 A 
ATOM      6  C   UNL     1       1.578  14.308  18.204  0.00  0.00    -0.061 A 
ATOM      7  C   UNL     1       2.771  13.575  18.328  0.00  0.00    -0.061 A 
ATOM      8  C   UNL     1       2.741  12.188  18.485  0.00  0.00    -0.056 A 
ATOM      9  C   UNL     1       1.508  11.549  18.499  0.00  0.00    -0.022 A 
ATOM     10  H   UNL     1       1.246   9.849  19.766  0.00  0.00    +0.055 HD
ATOM     11  H   UNL     1      -0.789   9.170  18.620  0.00  0.00    +0.031 HD
ATOM     12  H   UNL     1      -0.237   9.853  17.093  0.00  0.00    +0.031 HD
ATOM     13  H   UNL     1      -1.639  11.631  17.724  0.00  0.00    +0.055 HD
ATOM     14  H   UNL     1      -0.583  14.230  18.148  0.00  0.00    +0.062 HD
ATOM     15  H   UNL     1       1.622  15.389  18.087  0.00  0.00    +0.062 HD
ATOM     16  H   UNL     1       3.727  14.096  18.309  0.00  0.00    +0.062 HD
ATOM     17  H   UNL     1       3.663  11.623  18.597  0.00  0.00    +0.062 HD
ENDROOT
BRANCH   1  21
ATOM     18  N   UNL     1       3.321   7.348  17.664  0.00  0.00    -0.295 N 
ATOM     19  C   UNL     1       2.604   8.097  18.560  0.00  0.00    +0.300 C 
ATOM     20  O   UNL     1       2.428   7.798  19.731  0.00  0.00    -0.253 OA
ATOM     21  N   UNL     1       2.106   9.225  17.969  0.00  0.00    -0.293 N 
ATOM     22  H   UNL     1       3.880   7.924  17.039  0.00  0.00    +0.151 HD
ATOM     23  H   UNL     1       1.994   9.173  16.967  0.00  0.00    +0.151 HD
BRANCH  18  24
ATOM     24  C   UNL     1       4.033   6.190  18.143  0.00  0.00    +0.039 C 
ATOM     25  H   UNL     1       4.693   6.495  18.964  0.00  0.00    +0.051 HD
ATOM     26  H   UNL     1       3.316   5.482  18.576  0.00  0.00    +0.051 HD
BRANCH  24  33
ATOM     27  C   UNL     1       6.217   5.714  16.876  0.00  0.00    +0.044 A 
ATOM     28  C   UNL     1       6.900   5.043  15.851  0.00  0.00    -0.014 A 
ATOM     29  C   UNL     1       6.207   4.190  15.003  0.00  0.00    +0.124 A 
ATOM     30  F   UNL     1       6.866   3.549  14.029  0.00  0.00    -0.205 F 
ATOM     31  C   UNL     1       4.842   4.002  15.141  0.00  0.00    -0.026 A 
ATOM     32  C   UNL     1       4.151   4.670  16.151  0.00  0.00    -0.054 A 
ATOM     33  C   UNL     1       4.827   5.525  17.043  0.00  0.00    -0.018 A 
ATOM     34  H   UNL     1       7.957   5.193  15.683  0.00  0.00    +0.065 HD
ATOM     35  H   UNL     1       4.319   3.343  14.459  0.00  0.00    +0.065 HD
ATOM     36  H   UNL     1       3.076   4.526  16.242  0.00  0.00    +0.062 HD
BRANCH  27  38
ATOM     37  N   UNL     1       7.139   7.928  17.272  0.00  0.00    -0.325 N 
ATOM     38  C   UNL     1       6.981   6.653  17.741  0.00  0.00    +0.242 C 
ATOM     39  O   UNL     1       7.455   6.309  18.816  0.00  0.00    -0.270 OA
ATOM     40  H   UNL     1       7.763   8.532  17.800  0.00  0.00    +0.145 HD
ATOM     41  H   UNL     1       6.953   8.182  16.311  0.00  0.00    +0.145 HD
ENDBRANCH  27  38
ENDBRANCH  24  33
ENDBRANCH  18  24
ENDBRANCH   1  21
BRANCH   3  42
ATOM     42  N   UNL     1      -1.469  11.458  19.800  0.00  0.00    -0.304 N 
ATOM     43  C   UNL     1      -2.524  12.304  20.057  0.00  0.00    +0.245 C 
ATOM     44  O   UNL     1      -3.020  13.026  19.200  0.00  0.00    -0.270 OA
ATOM     45  H   UNL     1      -0.969  11.016  20.558  0.00  0.00    +0.150 HD
BRANCH  43  46
ATOM     46  C   UNL     1      -3.039  12.343  21.458  0.00  0.00    +0.037 A 
ATOM     47  C   UNL     1      -4.341  12.755  21.780  0.00  0.00    -0.047 A 
ATOM     48  C   UNL     1      -4.763  12.763  23.114  0.00  0.00    -0.026 A 
ATOM     49  C   UNL     1      -3.886  12.374  24.120  0.00  0.00    +0.123 A 
ATOM     50  F   UNL     1      -4.296  12.382  25.395  0.00  0.00    -0.205 F 
ATOM     51  C   UNL     1      -2.587  11.981  23.821  0.00  0.00    -0.026 A 
ATOM     52  C   UNL     1      -2.162  11.968  22.490  0.00  0.00    -0.047 A 
ATOM     53  H   UNL     1      -5.037  13.097  21.019  0.00  0.00    +0.063 HD
ATOM     54  H   UNL     1      -5.766  13.080  23.376  0.00  0.00    +0.065 HD
ATOM     55  H   UNL     1      -1.913  11.691  24.622  0.00  0.00    +0.065 HD
ATOM     56  H   UNL     1      -1.144  11.664  22.257  0.00  0.00    +0.063 HD
ENDBRANCH  43  46
ENDBRANCH   3  42
TORSDOF 6
ENDMDL
MODEL 9
REMARK VINA RESULT:    -9.224      1.961      2.318
REMARK INTER + INTRA:         -10.534
REMARK INTER:                  -9.509
REMARK INTRA:                  -1.025
REMARK UNBOUND:                 1.925
REMARK  Name = 
REMARK  6 active torsions:
REMARK  status: ('A' for Active; 'I' for Inactive)
REMARK    1  A    between atoms: C_2  and  C_4
REMARK    2  A    between atoms: C_10  and  C_11
REMARK    3  A    between atoms: C_11  and  N_12
REMARK    4  A    between atoms: N_15  and  C_16
REMARK    5  A    between atoms: C_18  and  N_19
REMARK    6  A    between atoms: C_20  and  C_22
REMARK                            x       y       z     vdW  Elec       q    Type
REMARK                         _______ _______ _______ _____ _____    ______ ____
ROOT
ATOM      1  C   UNL     1       0.727  10.167  19.865  0.00  0.00    +0.052 C 
ATOM      2  C   UNL     1      -0.796  10.129  19.628  0.00  0.00    -0.008 C 
ATOM      3  C   UNL     1      -1.248  11.597  19.488  0.00  0.00    +0.051 C 
ATOM      4  C   UNL     1      -0.013  12.220  18.897  0.00  0.00    -0.022 A 
ATOM      5  C   UNL     1       0.098  13.445  18.255  0.00  0.00    -0.056 A 
ATOM      6  C   UNL     1       1.360  13.850  17.812  0.00  0.00    -0.061 A 
ATOM      7  C   UNL     1       2.487  13.038  18.025  0.00  0.00    -0.061 A 
ATOM      8  C   UNL     1       2.368  11.812  18.681  0.00  0.00    -0.056 A 
ATOM      9  C   UNL     1       1.109  11.407  19.105  0.00  0.00    -0.022 A 
ATOM     10  H   UNL     1       0.944  10.309  20.930  0.00  0.00    +0.055 HD
ATOM     11  H   UNL     1      -1.319   9.582  20.418  0.00  0.00    +0.031 HD
ATOM     12  H   UNL     1      -1.006   9.605  18.685  0.00  0.00    +0.031 HD
ATOM     13  H   UNL     1      -2.108  11.677  18.813  0.00  0.00    +0.055 HD
ATOM     14  H   UNL     1      -0.773  14.076  18.099  0.00  0.00    +0.062 HD
ATOM     15  H   UNL     1       1.473  14.804  17.302  0.00  0.00    +0.062 HD
ATOM     16  H   UNL     1       3.464  13.374  17.679  0.00  0.00    +0.062 HD
ATOM     17  H   UNL     1       3.243  11.192  18.860  0.00  0.00    +0.062 HD
ENDROOT
BRANCH   1  21
ATOM     18  N   UNL     1       2.208   6.885  19.577  0.00  0.00    -0.295 N 
ATOM     19  C   UNL     1       1.704   7.968  20.249  0.00  0.00    +0.300 C 
ATOM     20  O   UNL     1       1.547   8.022  21.458  0.00  0.00    -0.253 OA
ATOM     21  N   UNL     1       1.396   8.982  19.385  0.00  0.00    -0.293 N 
ATOM     22  H   UNL     1       2.828   7.156  18.817  0.00  0.00    +0.151 HD
ATOM     23  H   UNL     1       1.215   8.697  18.433  0.00  0.00    +0.151 HD
BRANCH  18  24
ATOM     24  C   UNL     1       2.713   5.771  20.339  0.00  0.00    +0.039 C 
ATOM     25  H   UNL     1       3.560   6.112  20.946  0.00  0.00    +0.051 HD
ATOM     26  H   UNL     1       1.944   5.444  21.048  0.00  0.00    +0.051 HD
BRANCH  24  33
ATOM     27  C   UNL     1       2.697   3.293  19.659  0.00  0.00    +0.044 A 
ATOM     28  C   UNL     1       3.092   2.278  18.776  0.00  0.00    -0.014 A 
ATOM     29  C   UNL     1       3.903   2.583  17.691  0.00  0.00    +0.124 A 
ATOM     30  F   UNL     1       4.273   1.610  16.849  0.00  0.00    -0.205 F 
ATOM     31  C   UNL     1       4.345   3.877  17.473  0.00  0.00    -0.026 A 
ATOM     32  C   UNL     1       3.965   4.893  18.350  0.00  0.00    -0.054 A 
ATOM     33  C   UNL     1       3.126   4.623  19.448  0.00  0.00    -0.018 A 
ATOM     34  H   UNL     1       2.804   1.248  18.933  0.00  0.00    +0.065 HD
ATOM     35  H   UNL     1       4.988   4.090  16.629  0.00  0.00    +0.065 HD
ATOM     36  H   UNL     1       4.330   5.904  18.178  0.00  0.00    +0.062 HD
BRANCH  27  38
ATOM     37  N   UNL     1       0.507   2.949  20.659  0.00  0.00    -0.325 N 
ATOM     38  C   UNL     1       1.863   2.925  20.836  0.00  0.00    +0.242 C 
ATOM     39  O   UNL     1       2.357   2.621  21.914  0.00  0.00    -0.270 OA
ATOM     40  H   UNL     1      -0.061   2.820  21.491  0.00  0.00    +0.145 HD
ATOM     41  H   UNL     1       0.070   3.396  19.863  0.00  0.00    +0.145 HD
ENDBRANCH  27  38
ENDBRANCH  24  33
ENDBRANCH  18  24
ENDBRANCH   1  21
BRANCH   3  42
ATOM     42  N   UNL     1      -1.569  12.211  20.761  0.00  0.00    -0.304 N 
ATOM     43  C   UNL     1      -2.776  12.844  20.955  0.00  0.00    +0.245 C 
ATOM     44  O   UNL     1      -3.633  12.921  20.081  0.00  0.00    -0.270 OA
ATOM     45  H   UNL     1      -0.819  12.320  21.429  0.00  0.00    +0.150 HD
BRANCH  43  46
ATOM     46  C   UNL     1      -3.004  13.481  22.285  0.00  0.00    +0.037 A 
ATOM     47  C   UNL     1      -4.280  13.635  22.848  0.00  0.00    -0.047 A 
ATOM     48  C   UNL     1      -4.425  14.238  24.102  0.00  0.00    -0.026 A 
ATOM     49  C   UNL     1      -3.302  14.693  24.785  0.00  0.00    +0.123 A 
ATOM     50  F   UNL     1      -3.446  15.267  25.986  0.00  0.00    -0.205 F 
ATOM     51  C   UNL     1      -2.033  14.565  24.235  0.00  0.00    -0.026 A 
ATOM     52  C   UNL     1      -1.884  13.962  22.984  0.00  0.00    -0.047 A 
ATOM     53  H   UNL     1      -5.178  13.321  22.323  0.00  0.00    +0.063 HD
ATOM     54  H   UNL     1      -5.405  14.364  24.547  0.00  0.00    +0.065 HD
ATOM     55  H   UNL     1      -1.169  14.937  24.779  0.00  0.00    +0.065 HD
ATOM     56  H   UNL     1      -0.889  13.866  22.552  0.00  0.00    +0.063 HD
ENDBRANCH  43  46
ENDBRANCH   3  42
TORSDOF 6
ENDMDL
MODEL 10
REMARK VINA RESULT:    -9.215      1.906      2.181
REMARK INTER + INTRA:         -10.522
REMARK INTER:                  -9.361
REMARK INTRA:                  -1.161
REMARK UNBOUND:                 1.925
REMARK  Name = 
REMARK  6 active torsions:
REMARK  status: ('A' for Active; 'I' for Inactive)
REMARK    1  A    between atoms: C_2  and  C_4
REMARK    2  A    between atoms: C_10  and  C_11
REMARK    3  A    between atoms: C_11  and  N_12
REMARK    4  A    between atoms: N_15  and  C_16
REMARK    5  A    between atoms: C_18  and  N_19
REMARK    6  A    between atoms: C_20  and  C_22
REMARK                            x       y       z     vdW  Elec       q    Type
REMARK                         _______ _______ _______ _____ _____    ______ ____
ROOT
ATOM      1  C   UNL     1       1.210  10.334  18.778  0.00  0.00    +0.052 C 
ATOM      2  C   UNL     1      -0.250  10.270  18.288  0.00  0.00    -0.008 C 
ATOM      3  C   UNL     1      -0.865  11.653  18.582  0.00  0.00    +0.051 C 
ATOM      4  C   UNL     1       0.346  12.536  18.456  0.00  0.00    -0.022 A 
ATOM      5  C   UNL     1       0.382  13.913  18.298  0.00  0.00    -0.056 A 
ATOM      6  C   UNL     1       1.628  14.543  18.241  0.00  0.00    -0.061 A 
ATOM      7  C   UNL     1       2.813  13.795  18.352  0.00  0.00    -0.061 A 
ATOM      8  C   UNL     1       2.768  12.410  18.522  0.00  0.00    -0.056 A 
ATOM      9  C   UNL     1       1.527  11.788  18.562  0.00  0.00    -0.022 A 
ATOM     10  H   UNL     1       1.264  10.103  19.849  0.00  0.00    +0.055 HD
ATOM     11  H   UNL     1      -0.798   9.440  18.743  0.00  0.00    +0.031 HD
ATOM     12  H   UNL     1      -0.263  10.102  17.201  0.00  0.00    +0.031 HD
ATOM     13  H   UNL     1      -1.631  11.904  17.838  0.00  0.00    +0.055 HD
ATOM     14  H   UNL     1      -0.535  14.492  18.221  0.00  0.00    +0.062 HD
ATOM     15  H   UNL     1       1.684  15.621  18.113  0.00  0.00    +0.062 HD
ATOM     16  H   UNL     1       3.775  14.303  18.313  0.00  0.00    +0.062 HD
ATOM     17  H   UNL     1       3.684  11.834  18.625  0.00  0.00    +0.062 HD
ENDROOT
BRANCH   1  21
ATOM     18  N   UNL     1       2.926   7.438  17.468  0.00  0.00    -0.295 N 
ATOM     19  C   UNL     1       2.147   8.123  18.364  0.00  0.00    +0.300 C 
ATOM     20  O   UNL     1       1.580   7.616  19.319  0.00  0.00    -0.253 OA
ATOM     21  N   UNL     1       2.085   9.451  18.045  0.00  0.00    -0.293 N 
ATOM     22  H   UNL     1       3.749   7.967  17.188  0.00  0.00    +0.151 HD
ATOM     23  H   UNL     1       2.263   9.670  17.075  0.00  0.00    +0.151 HD
BRANCH  18  24
ATOM     24  C   UNL     1       3.215   6.048  17.722  0.00  0.00    +0.039 C 
ATOM     25  H   UNL     1       2.607   5.710  18.569  0.00  0.00    +0.051 HD
ATOM     26  H   UNL     1       2.893   5.453  16.859  0.00  0.00    +0.051 HD
BRANCH  24  33
ATOM     27  C   UNL     1       5.665   5.832  16.980  0.00  0.00    +0.044 A 
ATOM     28  C   UNL     1       7.017   5.645  17.307  0.00  0.00    -0.014 A 
ATOM     29  C   UNL     1       7.387   5.454  18.631  0.00  0.00    +0.124 A 
ATOM     30  F   UNL     1       8.680   5.281  18.936  0.00  0.00    -0.205 F 
ATOM     31  C   UNL     1       6.439   5.428  19.640  0.00  0.00    -0.026 A 
ATOM     32  C   UNL     1       5.092   5.604  19.326  0.00  0.00    -0.054 A 
ATOM     33  C   UNL     1       4.683   5.822  17.997  0.00  0.00    -0.018 A 
ATOM     34  H   UNL     1       7.783   5.617  16.546  0.00  0.00    +0.065 HD
ATOM     35  H   UNL     1       6.749   5.263  20.664  0.00  0.00    +0.065 HD
ATOM     36  H   UNL     1       4.353   5.568  20.125  0.00  0.00    +0.062 HD
BRANCH  27  38
ATOM     37  N   UNL     1       5.406   4.878  14.759  0.00  0.00    -0.325 N 
ATOM     38  C   UNL     1       5.297   5.991  15.548  0.00  0.00    +0.242 C 
ATOM     39  O   UNL     1       4.921   7.061  15.087  0.00  0.00    -0.270 OA
ATOM     40  H   UNL     1       5.275   5.015  13.760  0.00  0.00    +0.145 HD
ATOM     41  H   UNL     1       5.908   4.051  15.051  0.00  0.00    +0.145 HD
ENDBRANCH  27  38
ENDBRANCH  24  33
ENDBRANCH  18  24
ENDBRANCH   1  21
BRANCH   3  42
ATOM     42  N   UNL     1      -1.429  11.747  19.913  0.00  0.00    -0.304 N 
ATOM     43  C   UNL     1      -2.682  12.281  20.113  0.00  0.00    +0.245 C 
ATOM     44  O   UNL     1      -3.380  12.698  19.195  0.00  0.00    -0.270 OA
ATOM     45  H   UNL     1      -0.810  11.583  20.695  0.00  0.00    +0.150 HD
BRANCH  43  46
ATOM     46  C   UNL     1      -3.165  12.374  21.522  0.00  0.00    +0.037 A 
ATOM     47  C   UNL     1      -4.471  12.766  21.856  0.00  0.00    -0.047 A 
ATOM     48  C   UNL     1      -4.862  12.828  23.198  0.00  0.00    -0.026 A 
ATOM     49  C   UNL     1      -3.951  12.511  24.199  0.00  0.00    +0.123 A 
ATOM     50  F   UNL     1      -4.332  12.570  25.482  0.00  0.00    -0.205 F 
ATOM     51  C   UNL     1      -2.650  12.139  23.888  0.00  0.00    -0.026 A 
ATOM     52  C   UNL     1      -2.255  12.073  22.549  0.00  0.00    -0.047 A 
ATOM     53  H   UNL     1      -5.193  13.053  21.097  0.00  0.00    +0.063 HD
ATOM     54  H   UNL     1      -5.867  13.130  23.469  0.00  0.00    +0.065 HD
ATOM     55  H   UNL     1      -1.949  11.906  24.686  0.00  0.00    +0.065 HD
ATOM     56  H   UNL     1      -1.234  11.786  22.307  0.00  0.00    +0.063 HD
ENDBRANCH  43  46
ENDBRANCH   3  42
TORSDOF 6
ENDMDL
MODEL 11
REMARK VINA RESULT:    -8.389      3.323      6.399
REMARK INTER + INTRA:          -9.406
REMARK INTER:                 -10.273
REMARK INTRA:                   0.867
REMARK UNBOUND:                 1.925
REMARK  Name = 
REMARK  6 active torsions:
REMARK  status: ('A' for Active; 'I' for Inactive)
REMARK    1  A    between atoms: C_2  and  C_4
REMARK    2  A    between atoms: C_10  and  C_11
REMARK    3  A    between atoms: C_11  and  N_12
REMARK    4  A    between atoms: N_15  and  C_16
REMARK    5  A    between atoms: C_18  and  N_19
REMARK    6  A    between atoms: C_20  and  C_22
REMARK                            x       y       z     vdW  Elec       q    Type
REMARK                         _______ _______ _______ _____ _____    ______ ____
ROOT
ATOM      1  C   UNL     1       2.274   5.399  18.142  0.00  0.00    +0.052 C 
ATOM      2  C   UNL     1       3.319   6.172  18.972  0.00  0.00    -0.008 C 
ATOM      3  C   UNL     1       2.946   5.947  20.451  0.00  0.00    +0.051 C 
ATOM      4  C   UNL     1       2.323   4.580  20.384  0.00  0.00    -0.022 A 
ATOM      5  C   UNL     1       2.079   3.704  21.431  0.00  0.00    -0.056 A 
ATOM      6  C   UNL     1       1.450   2.489  21.147  0.00  0.00    -0.061 A 
ATOM      7  C   UNL     1       1.065   2.173  19.833  0.00  0.00    -0.061 A 
ATOM      8  C   UNL     1       1.305   3.065  18.786  0.00  0.00    -0.056 A 
ATOM      9  C   UNL     1       1.945   4.264  19.071  0.00  0.00    -0.022 A 
ATOM     10  H   UNL     1       1.380   6.014  17.984  0.00  0.00    +0.055 HD
ATOM     11  H   UNL     1       3.368   7.227  18.687  0.00  0.00    +0.031 HD
ATOM     12  H   UNL     1       4.316   5.747  18.791  0.00  0.00    +0.031 HD
ATOM     13  H   UNL     1       3.842   5.956  21.084  0.00  0.00    +0.055 HD
ATOM     14  H   UNL     1       2.369   3.953  22.449  0.00  0.00    +0.062 HD
ATOM     15  H   UNL     1       1.251   1.782  21.949  0.00  0.00    +0.062 HD
ATOM     16  H   UNL     1       0.569   1.224  19.631  0.00  0.00    +0.062 HD
ATOM     17  H   UNL     1       0.993   2.827  17.772  0.00  0.00    +0.062 HD
ENDROOT
BRANCH   1  21
ATOM     18  N   UNL     1       4.187   3.786  15.536  0.00  0.00    -0.295 N 
ATOM     19  C   UNL     1       3.944   4.224  16.811  0.00  0.00    +0.300 C 
ATOM     20  O   UNL     1       4.660   3.990  17.773  0.00  0.00    -0.253 OA
ATOM     21  N   UNL     1       2.790   4.954  16.869  0.00  0.00    -0.293 N 
ATOM     22  H   UNL     1       3.954   4.488  14.836  0.00  0.00    +0.151 HD
ATOM     23  H   UNL     1       2.122   4.764  16.136  0.00  0.00    +0.151 HD
BRANCH  18  24
ATOM     24  C   UNL     1       5.431   3.112  15.259  0.00  0.00    +0.039 C 
ATOM     25  H   UNL     1       5.909   2.847  16.209  0.00  0.00    +0.051 HD
ATOM     26  H   UNL     1       5.219   2.165  14.750  0.00  0.00    +0.051 HD
BRANCH  24  33
ATOM     27  C   UNL     1       6.361   3.923  13.005  0.00  0.00    +0.044 A 
ATOM     28  C   UNL     1       7.223   4.761  12.283  0.00  0.00    -0.014 A 
ATOM     29  C   UNL     1       8.066   5.633  12.959  0.00  0.00    +0.124 A 
ATOM     30  F   UNL     1       8.883   6.434  12.263  0.00  0.00    -0.205 F 
ATOM     31  C   UNL     1       8.084   5.678  14.343  0.00  0.00    -0.026 A 
ATOM     32  C   UNL     1       7.237   4.843  15.071  0.00  0.00    -0.054 A 
ATOM     33  C   UNL     1       6.354   3.963  14.418  0.00  0.00    -0.018 A 
ATOM     34  H   UNL     1       7.271   4.728  11.204  0.00  0.00    +0.065 HD
ATOM     35  H   UNL     1       8.759   6.355  14.849  0.00  0.00    +0.065 HD
ATOM     36  H   UNL     1       7.269   4.876  16.159  0.00  0.00    +0.062 HD
BRANCH  27  38
ATOM     37  N   UNL     1       6.093   1.810  11.832  0.00  0.00    -0.325 N 
ATOM     38  C   UNL     1       5.502   2.970  12.252  0.00  0.00    +0.242 C 
ATOM     39  O   UNL     1       4.325   3.207  12.009  0.00  0.00    -0.270 OA
ATOM     40  H   UNL     1       5.544   1.219  11.214  0.00  0.00    +0.145 HD
ATOM     41  H   UNL     1       7.096   1.681  11.827  0.00  0.00    +0.145 HD
ENDBRANCH  27  38
ENDBRANCH  24  33
ENDBRANCH  18  24
ENDBRANCH   1  21
BRANCH   3  42
ATOM     42  N   UNL     1       1.991   6.919  20.945  0.00  0.00    -0.304 N 
ATOM     43  C   UNL     1       1.766   8.095  20.267  0.00  0.00    +0.245 C 
ATOM     44  O   UNL     1       2.347   8.383  19.226  0.00  0.00    -0.270 OA
ATOM     45  H   UNL     1       1.639   6.791  21.883  0.00  0.00    +0.150 HD
BRANCH  43  46
ATOM     46  C   UNL     1       0.794   9.053  20.871  0.00  0.00    +0.037 A 
ATOM     47  C   UNL     1       0.167  10.069  20.133  0.00  0.00    -0.047 A 
ATOM     48  C   UNL     1      -0.740  10.932  20.760  0.00  0.00    -0.026 A 
ATOM     49  C   UNL     1      -1.008  10.787  22.116  0.00  0.00    +0.123 A 
ATOM     50  F   UNL     1      -1.879  11.614  22.710  0.00  0.00    -0.205 F 
ATOM     51  C   UNL     1      -0.383   9.799  22.866  0.00  0.00    -0.026 A 
ATOM     52  C   UNL     1       0.521   8.933  22.244  0.00  0.00    -0.047 A 
ATOM     53  H   UNL     1       0.383  10.228  19.081  0.00  0.00    +0.063 HD
ATOM     54  H   UNL     1      -1.230  11.721  20.201  0.00  0.00    +0.065 HD
ATOM     55  H   UNL     1      -0.597   9.709  23.927  0.00  0.00    +0.065 HD
ATOM     56  H   UNL     1       1.014   8.162  22.833  0.00  0.00    +0.063 HD
ENDBRANCH  43  46
ENDBRANCH   3  42
TORSDOF 6
ENDMDL
MODEL 12
REMARK VINA RESULT:    -8.232      4.270      9.000
REMARK INTER + INTRA:          -9.194
REMARK INTER:                  -9.783
REMARK INTRA:                   0.588
REMARK UNBOUND:                 1.925
REMARK  Name = 
REMARK  6 active torsions:
REMARK  status: ('A' for Active; 'I' for Inactive)
REMARK    1  A    between atoms: C_2  and  C_4
REMARK    2  A    between atoms: C_10  and  C_11
REMARK    3  A    between atoms: C_11  and  N_12
REMARK    4  A    between atoms: N_15  and  C_16
REMARK    5  A    between atoms: C_18  and  N_19
REMARK    6  A    between atoms: C_20  and  C_22
REMARK                            x       y       z     vdW  Elec       q    Type
REMARK                         _______ _______ _______ _____ _____    ______ ____
ROOT
ATOM      1  C   UNL     1       0.926  10.896  19.749  0.00  0.00    +0.052 C 
ATOM      2  C   UNL     1       1.924  10.404  18.682  0.00  0.00    -0.008 C 
ATOM      3  C   UNL     1       1.145   9.424  17.782  0.00  0.00    +0.051 C 
ATOM      4  C   UNL     1      -0.243   9.995  17.873  0.00  0.00    -0.022 A 
ATOM      5  C   UNL     1      -1.323   9.746  17.038  0.00  0.00    -0.056 A 
ATOM      6  C   UNL     1      -2.544  10.359  17.331  0.00  0.00    -0.061 A 
ATOM      7  C   UNL     1      -2.673  11.198  18.450  0.00  0.00    -0.061 A 
ATOM      8  C   UNL     1      -1.584  11.436  19.292  0.00  0.00    -0.056 A 
ATOM      9  C   UNL     1      -0.369  10.836  18.987  0.00  0.00    -0.022 A 
ATOM     10  H   UNL     1       0.888  10.193  20.590  0.00  0.00    +0.055 HD
ATOM     11  H   UNL     1       2.821   9.969  19.131  0.00  0.00    +0.031 HD
ATOM     12  H   UNL     1       2.255  11.256  18.071  0.00  0.00    +0.031 HD
ATOM     13  H   UNL     1       1.529   9.449  16.755  0.00  0.00    +0.055 HD
ATOM     14  H   UNL     1      -1.225   9.089  16.177  0.00  0.00    +0.062 HD
ATOM     15  H   UNL     1      -3.405  10.183  16.689  0.00  0.00    +0.062 HD
ATOM     16  H   UNL     1      -3.634  11.662  18.667  0.00  0.00    +0.062 HD
ATOM     17  H   UNL     1      -1.689  12.072  20.167  0.00  0.00    +0.062 HD
ENDROOT
BRANCH   1  21
ATOM     18  N   UNL     1       2.112  14.293  20.073  0.00  0.00    -0.295 N 
ATOM     19  C   UNL     1       2.056  13.042  19.516  0.00  0.00    +0.300 C 
ATOM     20  O   UNL     1       2.657  12.706  18.507  0.00  0.00    -0.253 OA
ATOM     21  N   UNL     1       1.234  12.220  20.235  0.00  0.00    -0.293 N 
ATOM     22  H   UNL     1       2.132  14.262  21.090  0.00  0.00    +0.151 HD
ATOM     23  H   UNL     1       0.532  12.689  20.788  0.00  0.00    +0.151 HD
BRANCH  18  24
ATOM     24  C   UNL     1       3.035  15.256  19.526  0.00  0.00    +0.039 C 
ATOM     25  H   UNL     1       3.122  15.088  18.446  0.00  0.00    +0.051 HD
ATOM     26  H   UNL     1       2.615  16.261  19.645  0.00  0.00    +0.051 HD
BRANCH  24  33
ATOM     27  C   UNL     1       5.596  15.058  19.460  0.00  0.00    +0.044 A 
ATOM     28  C   UNL     1       6.824  15.015  20.135  0.00  0.00    -0.014 A 
ATOM     29  C   UNL     1       6.853  15.089  21.521  0.00  0.00    +0.124 A 
ATOM     30  F   UNL     1       8.030  15.052  22.160  0.00  0.00    -0.205 F 
ATOM     31  C   UNL     1       5.682  15.188  22.254  0.00  0.00    -0.026 A 
ATOM     32  C   UNL     1       4.455  15.223  21.594  0.00  0.00    -0.054 A 
ATOM     33  C   UNL     1       4.390  15.172  20.188  0.00  0.00    -0.018 A 
ATOM     34  H   UNL     1       7.757  14.897  19.604  0.00  0.00    +0.065 HD
ATOM     35  H   UNL     1       5.728  15.229  23.335  0.00  0.00    +0.065 HD
ATOM     36  H   UNL     1       3.540  15.286  22.180  0.00  0.00    +0.062 HD
BRANCH  27  38
ATOM     37  N   UNL     1       6.747  14.469  17.400  0.00  0.00    -0.325 N 
ATOM     38  C   UNL     1       5.597  14.934  17.977  0.00  0.00    +0.242 C 
ATOM     39  O   UNL     1       4.624  15.236  17.297  0.00  0.00    -0.270 OA
ATOM     40  H   UNL     1       6.791  14.502  16.386  0.00  0.00    +0.145 HD
ATOM     41  H   UNL     1       7.624  14.417  17.901  0.00  0.00    +0.145 HD
ENDBRANCH  27  38
ENDBRANCH  24  33
ENDBRANCH  18  24
ENDBRANCH   1  21
BRANCH   3  42
ATOM     42  N   UNL     1       1.169   8.063  18.278  0.00  0.00    -0.304 N 
ATOM     43  C   UNL     1       2.310   7.298  18.186  0.00  0.00    +0.245 C 
ATOM     44  O   UNL     1       3.352   7.716  17.690  0.00  0.00    -0.270 OA
ATOM     45  H   UNL     1       0.286   7.639  18.521  0.00  0.00    +0.150 HD
BRANCH  43  46
ATOM     46  C   UNL     1       2.232   5.895  18.688  0.00  0.00    +0.037 A 
ATOM     47  C   UNL     1       2.036   4.792  17.842  0.00  0.00    -0.047 A 
ATOM     48  C   UNL     1       1.976   3.501  18.377  0.00  0.00    -0.026 A 
ATOM     49  C   UNL     1       2.100   3.314  19.750  0.00  0.00    +0.123 A 
ATOM     50  F   UNL     1       2.044   2.075  20.256  0.00  0.00    -0.205 F 
ATOM     51  C   UNL     1       2.275   4.395  20.604  0.00  0.00    -0.026 A 
ATOM     52  C   UNL     1       2.338   5.687  20.073  0.00  0.00    -0.047 A 
ATOM     53  H   UNL     1       1.902   4.911  16.771  0.00  0.00    +0.063 HD
ATOM     54  H   UNL     1       1.825   2.641  17.735  0.00  0.00    +0.065 HD
ATOM     55  H   UNL     1       2.358   4.230  21.674  0.00  0.00    +0.065 HD
ATOM     56  H   UNL     1       2.472   6.533  20.744  0.00  0.00    +0.063 HD
ENDBRANCH  43  46
ENDBRANCH   3  42
TORSDOF 6
ENDMDL
MODEL 13
REMARK VINA RESULT:    -8.222      4.328      8.792
REMARK INTER + INTRA:          -9.181
REMARK INTER:                  -8.452
REMARK INTRA:                  -0.728
REMARK UNBOUND:                 1.925
REMARK  Name = 
REMARK  6 active torsions:
REMARK  status: ('A' for Active; 'I' for Inactive)
REMARK    1  A    between atoms: C_2  and  C_4
REMARK    2  A    between atoms: C_10  and  C_11
REMARK    3  A    between atoms: C_11  and  N_12
REMARK    4  A    between atoms: N_15  and  C_16
REMARK    5  A    between atoms: C_18  and  N_19
REMARK    6  A    between atoms: C_20  and  C_22
REMARK                            x       y       z     vdW  Elec       q    Type
REMARK                         _______ _______ _______ _____ _____    ______ ____
ROOT
ATOM      1  C   UNL     1       1.045  11.443  19.397  0.00  0.00    +0.052 C 
ATOM      2  C   UNL     1       1.946  10.769  18.343  0.00  0.00    -0.008 C 
ATOM      3  C   UNL     1       1.135   9.588  17.774  0.00  0.00    +0.051 C 
ATOM      4  C   UNL     1      -0.268  10.113  17.912  0.00  0.00    -0.022 A 
ATOM      5  C   UNL     1      -1.416   9.647  17.289  0.00  0.00    -0.056 A 
ATOM      6  C   UNL     1      -2.633  10.262  17.594  0.00  0.00    -0.061 A 
ATOM      7  C   UNL     1      -2.688  11.319  18.518  0.00  0.00    -0.061 A 
ATOM      8  C   UNL     1      -1.529  11.775  19.149  0.00  0.00    -0.056 A 
ATOM      9  C   UNL     1      -0.320  11.171  18.831  0.00  0.00    -0.022 A 
ATOM     10  H   UNL     1       1.147  10.939  20.366  0.00  0.00    +0.055 HD
ATOM     11  H   UNL     1       2.914  10.477  18.760  0.00  0.00    +0.031 HD
ATOM     12  H   UNL     1       2.152  11.480  17.530  0.00  0.00    +0.031 HD
ATOM     13  H   UNL     1       1.400   9.404  16.725  0.00  0.00    +0.055 HD
ATOM     14  H   UNL     1      -1.373   8.823  16.581  0.00  0.00    +0.062 HD
ATOM     15  H   UNL     1      -3.547   9.919  17.115  0.00  0.00    +0.062 HD
ATOM     16  H   UNL     1      -3.647  11.782  18.748  0.00  0.00    +0.062 HD
ATOM     17  H   UNL     1      -1.575  12.582  19.877  0.00  0.00    +0.062 HD
ENDROOT
BRANCH   1  21
ATOM     18  N   UNL     1       2.486  14.625  20.322  0.00  0.00    -0.295 N 
ATOM     19  C   UNL     1       2.283  13.273  20.426  0.00  0.00    +0.300 C 
ATOM     20  O   UNL     1       2.885  12.539  21.194  0.00  0.00    -0.253 OA
ATOM     21  N   UNL     1       1.322  12.852  19.550  0.00  0.00    -0.293 N 
ATOM     22  H   UNL     1       1.617  15.135  20.185  0.00  0.00    +0.151 HD
ATOM     23  H   UNL     1       1.182  13.444  18.745  0.00  0.00    +0.151 HD
BRANCH  18  24
ATOM     24  C   UNL     1       3.369  15.267  21.262  0.00  0.00    +0.039 C 
ATOM     25  H   UNL     1       3.142  16.339  21.286  0.00  0.00    +0.051 HD
ATOM     26  H   UNL     1       3.157  14.889  22.269  0.00  0.00    +0.051 HD
BRANCH  24  33
ATOM     27  C   UNL     1       5.778  14.594  21.854  0.00  0.00    +0.044 A 
ATOM     28  C   UNL     1       7.104  14.372  21.457  0.00  0.00    -0.014 A 
ATOM     29  C   UNL     1       7.475  14.587  20.137  0.00  0.00    +0.124 A 
ATOM     30  F   UNL     1       8.743  14.368  19.764  0.00  0.00    -0.205 F 
ATOM     31  C   UNL     1       6.557  15.035  19.202  0.00  0.00    -0.026 A 
ATOM     32  C   UNL     1       5.237  15.267  19.587  0.00  0.00    -0.054 A 
ATOM     33  C   UNL     1       4.821  15.038  20.913  0.00  0.00    -0.018 A 
ATOM     34  H   UNL     1       7.861  14.062  22.163  0.00  0.00    +0.065 HD
ATOM     35  H   UNL     1       6.872  15.210  18.181  0.00  0.00    +0.065 HD
ATOM     36  H   UNL     1       4.527  15.633  18.848  0.00  0.00    +0.062 HD
BRANCH  27  38
ATOM     37  N   UNL     1       5.764  13.193  23.842  0.00  0.00    -0.325 N 
ATOM     38  C   UNL     1       5.422  14.395  23.285  0.00  0.00    +0.242 C 
ATOM     39  O   UNL     1       4.847  15.256  23.939  0.00  0.00    -0.270 OA
ATOM     40  H   UNL     1       5.413  13.010  24.777  0.00  0.00    +0.145 HD
ATOM     41  H   UNL     1       6.039  12.395  23.285  0.00  0.00    +0.145 HD
ENDBRANCH  27  38
ENDBRANCH  24  33
ENDBRANCH  18  24
ENDBRANCH   1  21
BRANCH   3  42
ATOM     42  N   UNL     1       1.302   8.369  18.540  0.00  0.00    -0.304 N 
ATOM     43  C   UNL     1       2.340   7.506  18.275  0.00  0.00    +0.245 C 
ATOM     44  O   UNL     1       3.169   7.714  17.395  0.00  0.00    -0.270 OA
ATOM     45  H   UNL     1       0.539   8.087  19.139  0.00  0.00    +0.150 HD
BRANCH  43  46
ATOM     46  C   UNL     1       2.410   6.256  19.088  0.00  0.00    +0.037 A 
ATOM     47  C   UNL     1       1.960   6.184  20.416  0.00  0.00    -0.047 A 
ATOM     48  C   UNL     1       2.050   4.980  21.121  0.00  0.00    -0.026 A 
ATOM     49  C   UNL     1       2.597   3.858  20.509  0.00  0.00    +0.123 A 
ATOM     50  F   UNL     1       2.679   2.707  21.189  0.00  0.00    -0.205 F 
ATOM     51  C   UNL     1       3.065   3.915  19.202  0.00  0.00    -0.026 A 
ATOM     52  C   UNL     1       2.974   5.116  18.492  0.00  0.00    -0.047 A 
ATOM     53  H   UNL     1       1.560   7.053  20.931  0.00  0.00    +0.063 HD
ATOM     54  H   UNL     1       1.706   4.911  22.147  0.00  0.00    +0.065 HD
ATOM     55  H   UNL     1       3.499   3.031  18.745  0.00  0.00    +0.065 HD
ATOM     56  H   UNL     1       3.345   5.161  17.470  0.00  0.00    +0.063 HD
ENDBRANCH  43  46
ENDBRANCH   3  42
TORSDOF 6
ENDMDL
MODEL 14
REMARK VINA RESULT:    -8.175      2.903     10.866
REMARK INTER + INTRA:          -9.117
REMARK INTER:                 -10.302
REMARK INTRA:                   1.185
REMARK UNBOUND:                 1.925
REMARK  Name = 
REMARK  6 active torsions:
REMARK  status: ('A' for Active; 'I' for Inactive)
REMARK    1  A    between atoms: C_2  and  C_4
REMARK    2  A    between atoms: C_10  and  C_11
REMARK    3  A    between atoms: C_11  and  N_12
REMARK    4  A    between atoms: N_15  and  C_16
REMARK    5  A    between atoms: C_18  and  N_19
REMARK    6  A    between atoms: C_20  and  C_22
REMARK                            x       y       z     vdW  Elec       q    Type
REMARK                         _______ _______ _______ _____ _____    ______ ____
ROOT
ATOM      1  C   UNL     1       2.247   5.980  19.883  0.00  0.00    +0.052 C 
ATOM      2  C   UNL     1       1.549   5.875  18.512  0.00  0.00    -0.008 C 
ATOM      3  C   UNL     1       1.834   4.453  17.991  0.00  0.00    +0.051 C 
ATOM      4  C   UNL     1       1.936   3.690  19.283  0.00  0.00    -0.022 A 
ATOM      5  C   UNL     1       1.867   2.318  19.469  0.00  0.00    -0.056 A 
ATOM      6  C   UNL     1       2.027   1.814  20.763  0.00  0.00    -0.061 A 
ATOM      7  C   UNL     1       2.263   2.681  21.844  0.00  0.00    -0.061 A 
ATOM      8  C   UNL     1       2.341   4.061  21.646  0.00  0.00    -0.056 A 
ATOM      9  C   UNL     1       2.166   4.557  20.361  0.00  0.00    -0.022 A 
ATOM     10  H   UNL     1       3.299   6.264  19.756  0.00  0.00    +0.055 HD
ATOM     11  H   UNL     1       1.871   6.666  17.828  0.00  0.00    +0.031 HD
ATOM     12  H   UNL     1       0.464   5.991  18.645  0.00  0.00    +0.031 HD
ATOM     13  H   UNL     1       1.004   4.092  17.370  0.00  0.00    +0.055 HD
ATOM     14  H   UNL     1       1.694   1.647  18.631  0.00  0.00    +0.062 HD
ATOM     15  H   UNL     1       1.973   0.742  20.937  0.00  0.00    +0.062 HD
ATOM     16  H   UNL     1       2.392   2.270  22.844  0.00  0.00    +0.062 HD
ATOM     17  H   UNL     1       2.540   4.730  22.480  0.00  0.00    +0.062 HD
ENDROOT
BRANCH   1  21
ATOM     18  N   UNL     1       0.777   8.932  21.358  0.00  0.00    -0.295 N 
ATOM     19  C   UNL     1       1.553   8.243  20.463  0.00  0.00    +0.300 C 
ATOM     20  O   UNL     1       2.129   8.748  19.512  0.00  0.00    -0.253 OA
ATOM     21  N   UNL     1       1.595   6.912  20.772  0.00  0.00    -0.293 N 
ATOM     22  H   UNL     1       0.902   8.601  22.312  0.00  0.00    +0.151 HD
ATOM     23  H   UNL     1       0.816   6.570  21.316  0.00  0.00    +0.151 HD
BRANCH  18  24
ATOM     24  C   UNL     1       0.726  10.370  21.268  0.00  0.00    +0.039 C 
ATOM     25  H   UNL     1       0.735  10.788  22.281  0.00  0.00    +0.051 HD
ATOM     26  H   UNL     1       1.639  10.730  20.781  0.00  0.00    +0.051 HD
BRANCH  24  33
ATOM     27  C   UNL     1      -1.457  11.710  21.067  0.00  0.00    +0.044 A 
ATOM     28  C   UNL     1      -2.551  12.133  20.298  0.00  0.00    -0.014 A 
ATOM     29  C   UNL     1      -2.683  11.697  18.986  0.00  0.00    +0.124 A 
ATOM     30  F   UNL     1      -3.728  12.109  18.256  0.00  0.00    -0.205 F 
ATOM     31  C   UNL     1      -1.757  10.834  18.425  0.00  0.00    -0.026 A 
ATOM     32  C   UNL     1      -0.670  10.400  19.183  0.00  0.00    -0.054 A 
ATOM     33  C   UNL     1      -0.493  10.840  20.509  0.00  0.00    -0.018 A 
ATOM     34  H   UNL     1      -3.318  12.773  20.710  0.00  0.00    +0.065 HD
ATOM     35  H   UNL     1      -1.888  10.496  17.405  0.00  0.00    +0.065 HD
ATOM     36  H   UNL     1       0.044   9.710  18.738  0.00  0.00    +0.062 HD
BRANCH  27  38
ATOM     37  N   UNL     1      -0.744  13.357  22.707  0.00  0.00    -0.325 N 
ATOM     38  C   UNL     1      -1.368  12.161  22.482  0.00  0.00    +0.242 C 
ATOM     39  O   UNL     1      -1.821  11.499  23.406  0.00  0.00    -0.270 OA
ATOM     40  H   UNL     1      -0.573  13.605  23.677  0.00  0.00    +0.145 HD
ATOM     41  H   UNL     1      -0.178  13.816  22.005  0.00  0.00    +0.145 HD
ENDBRANCH  27  38
ENDBRANCH  24  33
ENDBRANCH  18  24
ENDBRANCH   1  21
BRANCH   3  42
ATOM     42  N   UNL     1       3.074   4.363  17.246  0.00  0.00    -0.304 N 
ATOM     43  C   UNL     1       3.851   5.478  17.033  0.00  0.00    +0.245 C 
ATOM     44  O   UNL     1       3.547   6.590  17.453  0.00  0.00    -0.270 OA
ATOM     45  H   UNL     1       3.253   3.508  16.740  0.00  0.00    +0.150 HD
BRANCH  43  46
ATOM     46  C   UNL     1       5.092   5.299  16.223  0.00  0.00    +0.037 A 
ATOM     47  C   UNL     1       6.319   5.887  16.567  0.00  0.00    -0.047 A 
ATOM     48  C   UNL     1       7.446   5.674  15.766  0.00  0.00    -0.026 A 
ATOM     49  C   UNL     1       7.345   4.888  14.624  0.00  0.00    +0.123 A 
ATOM     50  F   UNL     1       8.429   4.686  13.862  0.00  0.00    -0.205 F 
ATOM     51  C   UNL     1       6.135   4.313  14.258  0.00  0.00    -0.026 A 
ATOM     52  C   UNL     1       5.007   4.520  15.057  0.00  0.00    -0.047 A 
ATOM     53  H   UNL     1       6.419   6.534  17.434  0.00  0.00    +0.063 HD
ATOM     54  H   UNL     1       8.399   6.124  16.020  0.00  0.00    +0.065 HD
ATOM     55  H   UNL     1       6.074   3.711  13.356  0.00  0.00    +0.065 HD
ATOM     56  H   UNL     1       4.058   4.073  14.767  0.00  0.00    +0.063 HD
ENDBRANCH  43  46
ENDBRANCH   3  42
TORSDOF 6
ENDMDL
MODEL 15
REMARK VINA RESULT:    -8.127      2.331     11.008
REMARK INTER + INTRA:          -9.052
REMARK INTER:                 -10.447
REMARK INTRA:                   1.395
REMARK UNBOUND:                 1.925
REMARK  Name = 
REMARK  6 active torsions:
REMARK  status: ('A' for Active; 'I' for Inactive)
REMARK    1  A    between atoms: C_2  and  C_4
REMARK    2  A    between atoms: C_10  and  C_11
REMARK    3  A    between atoms: C_11  and  N_12
REMARK    4  A    between atoms: N_15  and  C_16
REMARK    5  A    between atoms: C_18  and  N_19
REMARK    6  A    between atoms: C_20  and  C_22
REMARK                            x       y       z     vdW  Elec       q    Type
REMARK                         _______ _______ _______ _____ _____    ______ ____
ROOT
ATOM      1  C   UNL     1       2.244   6.235  19.743  0.00  0.00    +0.052 C 
ATOM      2  C   UNL     1       1.483   6.097  18.409  0.00  0.00    -0.008 C 
ATOM      3  C   UNL     1       1.691   4.642  17.943  0.00  0.00    +0.051 C 
ATOM      4  C   UNL     1       1.820   3.935  19.264  0.00  0.00    -0.022 A 
ATOM      5  C   UNL     1       1.707   2.576  19.517  0.00  0.00    -0.056 A 
ATOM      6  C   UNL     1       1.904   2.126  20.825  0.00  0.00    -0.061 A 
ATOM      7  C   UNL     1       2.219   3.030  21.853  0.00  0.00    -0.061 A 
ATOM      8  C   UNL     1       2.342   4.395  21.589  0.00  0.00    -0.056 A 
ATOM      9  C   UNL     1       2.129   4.840  20.290  0.00  0.00    -0.022 A 
ATOM     10  H   UNL     1       3.300   6.470  19.558  0.00  0.00    +0.055 HD
ATOM     11  H   UNL     1       1.805   6.842  17.676  0.00  0.00    +0.031 HD
ATOM     12  H   UNL     1       0.411   6.262  18.581  0.00  0.00    +0.031 HD
ATOM     13  H   UNL     1       0.822   4.288  17.375  0.00  0.00    +0.055 HD
ATOM     14  H   UNL     1       1.472   1.876  18.720  0.00  0.00    +0.062 HD
ATOM     15  H   UNL     1       1.816   1.065  21.051  0.00  0.00    +0.062 HD
ATOM     16  H   UNL     1       2.376   2.660  22.866  0.00  0.00    +0.062 HD
ATOM     17  H   UNL     1       2.602   5.093  22.381  0.00  0.00    +0.062 HD
ENDROOT
BRANCH   1  21
ATOM     18  N   UNL     1       0.901   9.293  21.120  0.00  0.00    -0.295 N 
ATOM     19  C   UNL     1       1.600   8.537  20.215  0.00  0.00    +0.300 C 
ATOM     20  O   UNL     1       2.096   8.970  19.186  0.00  0.00    -0.253 OA
ATOM     21  N   UNL     1       1.668   7.232  20.614  0.00  0.00    -0.293 N 
ATOM     22  H   UNL     1       1.103   9.030  22.081  0.00  0.00    +0.151 HD
ATOM     23  H   UNL     1       0.936   6.934  21.242  0.00  0.00    +0.151 HD
BRANCH  18  24
ATOM     24  C   UNL     1       0.842  10.721  20.932  0.00  0.00    +0.039 C 
ATOM     25  H   UNL     1       1.652  11.187  21.504  0.00  0.00    +0.051 HD
ATOM     26  H   UNL     1       1.041  10.952  19.879  0.00  0.00    +0.051 HD
BRANCH  24  33
ATOM     27  C   UNL     1      -1.442  11.782  20.421  0.00  0.00    +0.044 A 
ATOM     28  C   UNL     1      -2.679  12.266  20.870  0.00  0.00    -0.014 A 
ATOM     29  C   UNL     1      -2.975  12.252  22.226  0.00  0.00    +0.124 A 
ATOM     30  F   UNL     1      -4.161  12.711  22.648  0.00  0.00    -0.205 F 
ATOM     31  C   UNL     1      -2.058  11.783  23.151  0.00  0.00    -0.026 A 
ATOM     32  C   UNL     1      -0.821  11.307  22.717  0.00  0.00    -0.054 A 
ATOM     33  C   UNL     1      -0.497  11.286  21.347  0.00  0.00    -0.018 A 
ATOM     34  H   UNL     1      -3.407  12.679  20.186  0.00  0.00    +0.065 HD
ATOM     35  H   UNL     1      -2.304  11.795  24.205  0.00  0.00    +0.065 HD
ATOM     36  H   UNL     1      -0.102  10.954  23.453  0.00  0.00    +0.062 HD
BRANCH  27  38
ATOM     37  N   UNL     1      -1.010  13.099  18.423  0.00  0.00    -0.325 N 
ATOM     38  C   UNL     1      -1.140  11.850  18.965  0.00  0.00    +0.242 C 
ATOM     39  O   UNL     1      -1.018  10.844  18.278  0.00  0.00    -0.270 OA
ATOM     40  H   UNL     1      -0.927  13.148  17.411  0.00  0.00    +0.145 HD
ATOM     41  H   UNL     1      -1.311  13.936  18.905  0.00  0.00    +0.145 HD
ENDBRANCH  27  38
ENDBRANCH  24  33
ENDBRANCH  18  24
ENDBRANCH   1  21
BRANCH   3  42
ATOM     42  N   UNL     1       2.893   4.469  17.153  0.00  0.00    -0.304 N 
ATOM     43  C   UNL     1       3.808   5.490  17.027  0.00  0.00    +0.245 C 
ATOM     44  O   UNL     1       3.663   6.581  17.567  0.00  0.00    -0.270 OA
ATOM     45  H   UNL     1       2.947   3.655  16.557  0.00  0.00    +0.150 HD
BRANCH  43  46
ATOM     46  C   UNL     1       4.997   5.234  16.162  0.00  0.00    +0.037 A 
ATOM     47  C   UNL     1       4.994   4.296  15.119  0.00  0.00    -0.047 A 
ATOM     48  C   UNL     1       6.142   4.108  14.342  0.00  0.00    -0.026 A 
ATOM     49  C   UNL     1       7.289   4.846  14.613  0.00  0.00    +0.123 A 
ATOM     50  F   UNL     1       8.385   4.664  13.864  0.00  0.00    -0.205 F 
ATOM     51  C   UNL     1       7.316   5.766  15.653  0.00  0.00    -0.026 A 
ATOM     52  C   UNL     1       6.171   5.958  16.430  0.00  0.00    -0.047 A 
ATOM     53  H   UNL     1       4.124   3.681  14.906  0.00  0.00    +0.063 HD
ATOM     54  H   UNL     1       6.152   3.386  13.533  0.00  0.00    +0.065 HD
ATOM     55  H   UNL     1       8.226   6.324  15.856  0.00  0.00    +0.065 HD
ATOM     56  H   UNL     1       6.195   6.676  17.248  0.00  0.00    +0.063 HD
ENDBRANCH  43  46
ENDBRANCH   3  42
TORSDOF 6
ENDMDL
MODEL 16
REMARK VINA RESULT:    -7.916      2.248     10.577
REMARK INTER + INTRA:          -8.768
REMARK INTER:                  -8.601
REMARK INTRA:                  -0.166
REMARK UNBOUND:                 1.925
REMARK  Name = 
REMARK  6 active torsions:
REMARK  status: ('A' for Active; 'I' for Inactive)
REMARK    1  A    between atoms: C_2  and  C_4
REMARK    2  A    between atoms: C_10  and  C_11
REMARK    3  A    between atoms: C_11  and  N_12
REMARK    4  A    between atoms: N_15  and  C_16
REMARK    5  A    between atoms: C_18  and  N_19
REMARK    6  A    between atoms: C_20  and  C_22
REMARK                            x       y       z     vdW  Elec       q    Type
REMARK                         _______ _______ _______ _____ _____    ______ ____
ROOT
ATOM      1  C   UNL     1       1.561  11.346  20.005  0.00  0.00    +0.052 C 
ATOM      2  C   UNL     1       1.233  10.779  18.610  0.00  0.00    -0.008 C 
ATOM      3  C   UNL     1       1.145   9.249  18.776  0.00  0.00    +0.051 C 
ATOM      4  C   UNL     1       0.660   9.144  20.196  0.00  0.00    -0.022 A 
ATOM      5  C   UNL     1       0.092   8.045  20.823  0.00  0.00    -0.056 A 
ATOM      6  C   UNL     1      -0.254   8.155  22.172  0.00  0.00    -0.061 A 
ATOM      7  C   UNL     1      -0.018   9.348  22.876  0.00  0.00    -0.061 A 
ATOM      8  C   UNL     1       0.565  10.446  22.241  0.00  0.00    -0.056 A 
ATOM      9  C   UNL     1       0.891  10.337  20.895  0.00  0.00    -0.022 A 
ATOM     10  H   UNL     1       2.644  11.328  20.180  0.00  0.00    +0.055 HD
ATOM     11  H   UNL     1       1.961  11.097  17.858  0.00  0.00    +0.031 HD
ATOM     12  H   UNL     1       0.253  11.155  18.284  0.00  0.00    +0.031 HD
ATOM     13  H   UNL     1       0.425   8.821  18.068  0.00  0.00    +0.055 HD
ATOM     14  H   UNL     1      -0.082   7.119  20.280  0.00  0.00    +0.062 HD
ATOM     15  H   UNL     1      -0.705   7.309  22.686  0.00  0.00    +0.062 HD
ATOM     16  H   UNL     1      -0.287   9.414  23.929  0.00  0.00    +0.062 HD
ATOM     17  H   UNL     1       0.762  11.364  22.790  0.00  0.00    +0.062 HD
ENDROOT
BRANCH   1  21
ATOM     18  N   UNL     1      -0.552  14.223  20.561  0.00  0.00    -0.295 N 
ATOM     19  C   UNL     1      -0.287  12.918  20.238  0.00  0.00    +0.300 C 
ATOM     20  O   UNL     1      -1.139  12.071  20.021  0.00  0.00    -0.253 OA
ATOM     21  N   UNL     1       1.060  12.687  20.195  0.00  0.00    -0.293 N 
ATOM     22  H   UNL     1       0.095  14.870  20.116  0.00  0.00    +0.151 HD
ATOM     23  H   UNL     1       1.625  13.323  20.740  0.00  0.00    +0.151 HD
BRANCH  18  24
ATOM     24  C   UNL     1      -1.917  14.683  20.522  0.00  0.00    +0.039 C 
ATOM     25  H   UNL     1      -1.923  15.779  20.547  0.00  0.00    +0.051 HD
ATOM     26  H   UNL     1      -2.363  14.399  19.562  0.00  0.00    +0.051 HD
BRANCH  24  33
ATOM     27  C   UNL     1      -3.938  13.411  21.472  0.00  0.00    +0.044 A 
ATOM     28  C   UNL     1      -4.630  12.889  22.575  0.00  0.00    -0.014 A 
ATOM     29  C   UNL     1      -4.124  13.067  23.855  0.00  0.00    +0.124 A 
ATOM     30  F   UNL     1      -4.787  12.562  24.903  0.00  0.00    -0.205 F 
ATOM     31  C   UNL     1      -2.950  13.771  24.067  0.00  0.00    -0.026 A 
ATOM     32  C   UNL     1      -2.258  14.302  22.978  0.00  0.00    -0.054 A 
ATOM     33  C   UNL     1      -2.731  14.121  21.665  0.00  0.00    -0.018 A 
ATOM     34  H   UNL     1      -5.570  12.369  22.458  0.00  0.00    +0.065 HD
ATOM     35  H   UNL     1      -2.582  13.911  25.075  0.00  0.00    +0.065 HD
ATOM     36  H   UNL     1      -1.345  14.866  23.157  0.00  0.00    +0.062 HD
BRANCH  27  38
ATOM     37  N   UNL     1      -5.147  14.332  19.574  0.00  0.00    -0.325 N 
ATOM     38  C   UNL     1      -4.528  13.239  20.118  0.00  0.00    +0.242 C 
ATOM     39  O   UNL     1      -4.475  12.175  19.514  0.00  0.00    -0.270 OA
ATOM     40  H   UNL     1      -5.656  14.181  18.708  0.00  0.00    +0.145 HD
ATOM     41  H   UNL     1      -5.394  15.145  20.121  0.00  0.00    +0.145 HD
ENDBRANCH  27  38
ENDBRANCH  24  33
ENDBRANCH  18  24
ENDBRANCH   1  21
BRANCH   3  42
ATOM     42  N   UNL     1       2.427   8.590  18.625  0.00  0.00    -0.304 N 
ATOM     43  C   UNL     1       2.505   7.297  18.161  0.00  0.00    +0.245 C 
ATOM     44  O   UNL     1       1.516   6.640  17.854  0.00  0.00    -0.270 OA
ATOM     45  H   UNL     1       3.232   9.037  19.038  0.00  0.00    +0.150 HD
BRANCH  43  46
ATOM     46  C   UNL     1       3.865   6.687  18.074  0.00  0.00    +0.037 A 
ATOM     47  C   UNL     1       4.778   7.001  17.056  0.00  0.00    -0.047 A 
ATOM     48  C   UNL     1       6.039   6.396  17.035  0.00  0.00    -0.026 A 
ATOM     49  C   UNL     1       6.382   5.475  18.019  0.00  0.00    +0.123 A 
ATOM     50  F   UNL     1       7.592   4.901  17.995  0.00  0.00    -0.205 F 
ATOM     51  C   UNL     1       5.484   5.138  19.024  0.00  0.00    -0.026 A 
ATOM     52  C   UNL     1       4.224   5.742  19.050  0.00  0.00    -0.047 A 
ATOM     53  H   UNL     1       4.525   7.690  16.255  0.00  0.00    +0.063 HD
ATOM     54  H   UNL     1       6.753   6.630  16.253  0.00  0.00    +0.065 HD
ATOM     55  H   UNL     1       5.766   4.408  19.777  0.00  0.00    +0.065 HD
ATOM     56  H   UNL     1       3.520   5.474  19.836  0.00  0.00    +0.063 HD
ENDBRANCH  43  46
ENDBRANCH   3  42
TORSDOF 6
ENDMDL
