MODEL 1
REMARK VINA RESULT:    -9.878      0.000      0.000
REMARK INTER + INTRA:         -11.304
REMARK INTER:                 -10.945
REMARK INTRA:                  -0.359
REMARK UNBOUND:                 3.194
REMARK  Name = 
REMARK  9 active torsions:
REMARK  status: ('A' for Active; 'I' for Inactive)
REMARK    1  A    between atoms: C_1  and  C_2
REMARK    2  A    between atoms: C_2  and  C_3
REMARK    3  A    between atoms: C_2  and  C_10
REMARK    4  A    between atoms: C_3  and  C_4
REMARK    5  A    between atoms: N_8  and  C_9
REMARK    6  A    between atoms: N_16  and  C_17
REMARK    7  A    between atoms: C_24  and  N_26
REMARK    8  A    between atoms: C_31  and  C_38
REMARK    9  A    between atoms: C_33  and  C_34
REMARK                            x       y       z     vdW  Elec       q    Type
REMARK                         _______ _______ _______ _____ _____    ______ ____
ROOT
ATOM      1  C   UNL     1       1.598   5.731  20.531  0.00  0.00    -0.038 A 
ATOM      2  C   UNL     1       2.463   5.855  19.435  0.00  0.00    -0.018 A 
ATOM      3  C   UNL     1       2.631   7.086  18.821  0.00  0.00    +0.128 A 
ATOM      4  N   UNL     1       3.489   7.312  17.741  0.00  0.00    -0.254 N 
ATOM      5  C   UNL     1       4.226   6.404  17.032  0.00  0.00    +0.305 C 
ATOM      6  O   UNL     1       4.218   5.190  17.178  0.00  0.00    -0.252 OA
ATOM      7  N   UNL     1       5.042   7.030  16.110  0.00  0.00    -0.296 N 
ATOM      8  N   UNL     1       2.004   8.202  19.244  0.00  0.00    -0.217 NA
ATOM      9  C   UNL     1       1.189   8.112  20.322  0.00  0.00    +0.130 A 
ATOM     10  C   UNL     1       0.969   6.901  20.975  0.00  0.00    -0.018 A 
ATOM     11  H   UNL     1       3.013   4.992  19.084  0.00  0.00    +0.065 HD
ATOM     12  H   UNL     1       3.520   8.280  17.473  0.00  0.00    +0.158 HD
ATOM     13  H   UNL     1       4.804   7.977  15.851  0.00  0.00    +0.151 HD
ATOM     14  H   UNL     1       0.288   6.867  21.815  0.00  0.00    +0.065 HD
ENDROOT
BRANCH   7  15
ATOM     15  C   UNL     1       5.857   6.273  15.171  0.00  0.00    +0.025 C 
ATOM     16  C   UNL     1       5.030   5.160  14.525  0.00  0.00    -0.034 C 
ATOM     17  C   UNL     1       5.832   4.391  13.475  0.00  0.00    -0.051 C 
ATOM     18  C   UNL     1       7.328   4.300  13.784  0.00  0.00    -0.053 C 
ATOM     19  C   UNL     1       7.603   4.392  15.278  0.00  0.00    -0.051 C 
ATOM     20  C   UNL     1       7.111   5.716  15.867  0.00  0.00    -0.034 C 
ATOM     21  H   UNL     1       6.178   6.962  14.378  0.00  0.00    +0.050 HD
ATOM     22  H   UNL     1       4.124   5.573  14.059  0.00  0.00    +0.028 HD
ATOM     23  H   UNL     1       4.682   4.461  15.298  0.00  0.00    +0.028 HD
ATOM     24  H   UNL     1       5.710   4.864  12.493  0.00  0.00    +0.027 HD
ATOM     25  H   UNL     1       5.409   3.383  13.381  0.00  0.00    +0.027 HD
ATOM     26  H   UNL     1       7.731   3.365  13.378  0.00  0.00    +0.027 HD
ATOM     27  H   UNL     1       7.853   5.117  13.269  0.00  0.00    +0.027 HD
ATOM     28  H   UNL     1       7.100   3.563  15.790  0.00  0.00    +0.027 HD
ATOM     29  H   UNL     1       8.674   4.278  15.476  0.00  0.00    +0.027 HD
ATOM     30  H   UNL     1       6.939   5.576  16.941  0.00  0.00    +0.028 HD
ATOM     31  H   UNL     1       7.909   6.466  15.792  0.00  0.00    +0.028 HD
ENDBRANCH   7  15
BRANCH   9  32
ATOM     32  N   UNL     1       0.582   9.307  20.752  0.00  0.00    -0.248 N 
ATOM     33  C   UNL     1       0.519  10.446  19.854  0.00  0.00    +0.048 C 
ATOM     34  C   UNL     1      -0.202  11.474  20.667  0.00  0.00    -0.006 A 
ATOM     35  C   UNL     1      -0.488  10.957  21.924  0.00  0.00    +0.043 A 
ATOM     36  C   UNL     1      -1.146  11.685  22.899  0.00  0.00    -0.046 A 
ATOM     37  C   UNL     1      -1.543  13.002  22.607  0.00  0.00    -0.043 A 
ATOM     38  C   UNL     1      -1.255  13.524  21.324  0.00  0.00    -0.046 A 
ATOM     39  C   UNL     1      -0.583  12.770  20.336  0.00  0.00    +0.060 A 
ATOM     40  C   UNL     1       0.028   9.582  21.994  0.00  0.00    +0.253 C 
ATOM     41  O   UNL     1      -0.038   8.913  23.009  0.00  0.00    -0.270 OA
ATOM     42  H   UNL     1      -0.049  10.180  18.957  0.00  0.00    +0.052 HD
ATOM     43  H   UNL     1       1.530  10.783  19.611  0.00  0.00    +0.052 HD
ATOM     44  H   UNL     1      -1.343  11.225  23.865  0.00  0.00    +0.063 HD
ATOM     45  H   UNL     1      -1.560  14.537  21.073  0.00  0.00    +0.063 HD
BRANCH  37  46
ATOM     46  C   UNL     1      -2.266  13.801  23.686  0.00  0.00    -0.016 C 
ATOM     47  C   UNL     1      -2.712  15.202  23.228  0.00  0.00    -0.046 C 
ATOM     48  C   UNL     1      -4.098  15.266  22.587  0.00  0.00    -0.053 C 
ATOM     49  C   UNL     1      -5.146  14.547  23.426  0.00  0.00    -0.053 C 
ATOM     50  C   UNL     1      -4.752  13.104  23.710  0.00  0.00    -0.053 C 
ATOM     51  C   UNL     1      -3.387  13.012  24.384  0.00  0.00    -0.046 C 
ATOM     52  H   UNL     1      -1.512  13.984  24.466  0.00  0.00    +0.035 HD
ATOM     53  H   UNL     1      -2.732  15.851  24.113  0.00  0.00    +0.027 HD
ATOM     54  H   UNL     1      -1.974  15.645  22.549  0.00  0.00    +0.027 HD
ATOM     55  H   UNL     1      -4.071  14.841  21.581  0.00  0.00    +0.027 HD
ATOM     56  H   UNL     1      -4.387  16.318  22.464  0.00  0.00    +0.027 HD
ATOM     57  H   UNL     1      -6.110  14.571  22.906  0.00  0.00    +0.027 HD
ATOM     58  H   UNL     1      -5.284  15.082  24.373  0.00  0.00    +0.027 HD
ATOM     59  H   UNL     1      -5.506  12.645  24.361  0.00  0.00    +0.027 HD
ATOM     60  H   UNL     1      -4.760  12.525  22.781  0.00  0.00    +0.027 HD
ATOM     61  H   UNL     1      -3.497  13.416  25.400  0.00  0.00    +0.027 HD
ATOM     62  H   UNL     1      -3.104  11.958  24.502  0.00  0.00    +0.027 HD
ENDBRANCH  37  46
BRANCH  39  63
ATOM     63  C   UNL     1      -0.291  13.338  18.974  0.00  0.00    +0.418 C 
ATOM     64  F   UNL     1      -0.971  12.690  17.987  0.00  0.00    -0.166 F 
ATOM     65  F   UNL     1      -0.647  14.648  18.870  0.00  0.00    -0.166 F 
ATOM     66  F   UNL     1       1.022  13.278  18.622  0.00  0.00    -0.166 F 
ENDBRANCH  39  63
ENDBRANCH   9  32
BRANCH   1  67
ATOM     67  C   UNL     1       1.443   4.380  21.234  0.00  0.00    -0.012 C 
ATOM     68  H   UNL     1       0.700   4.572  22.024  0.00  0.00    +0.035 HD
BRANCH  67  69
ATOM     69  C   UNL     1       2.728   3.924  21.950  0.00  0.00    -0.058 C 
ATOM     70  H   UNL     1       3.357   3.319  21.284  0.00  0.00    +0.024 HD
ATOM     71  H   UNL     1       3.319   4.779  22.297  0.00  0.00    +0.024 HD
ATOM     72  H   UNL     1       2.509   3.300  22.822  0.00  0.00    +0.024 HD
ENDBRANCH  67  69
BRANCH  67  73
ATOM     73  C   UNL     1       0.849   3.203  20.413  0.00  0.00    +0.014 C 
ATOM     74  H   UNL     1       0.531   2.432  21.127  0.00  0.00    +0.035 HD
ATOM     75  H   UNL     1      -0.071   3.504  19.899  0.00  0.00    +0.035 HD
BRANCH  73  76
ATOM     76  C   UNL     1       1.795   2.603  19.422  0.00  0.00    +0.134 A 
ATOM     77  N   UNL     1       2.703   1.678  19.660  0.00  0.00    -0.135 NA
ATOM     78  N   UNL     1       3.351   1.392  18.484  0.00  0.00    -0.138 NA
ATOM     79  C   UNL     1       2.830   2.152  17.550  0.00  0.00    +0.120 A 
ATOM     80  N   UNL     1       1.858   2.933  18.091  0.00  0.00    -0.320 N 
ATOM     81  H   UNL     1       3.118   2.167  16.508  0.00  0.00    +0.105 HD
BRANCH  80  82
ATOM     82  C   UNL     1       1.068   3.906  17.387  0.00  0.00    +0.014 C 
ATOM     83  H   UNL     1       1.739   4.605  16.883  0.00  0.00    +0.046 HD
ATOM     84  H   UNL     1       0.440   4.450  18.097  0.00  0.00    +0.046 HD
ATOM     85  H   UNL     1       0.437   3.382  16.664  0.00  0.00    +0.046 HD
ENDBRANCH  80  82
ENDBRANCH  73  76
ENDBRANCH  67  73
ENDBRANCH   1  67
TORSDOF 9
ENDMDL
MODEL 2
REMARK VINA RESULT:    -9.455      1.281      1.753
REMARK INTER + INTRA:         -10.682
REMARK INTER:                 -10.605
REMARK INTRA:                  -0.078
REMARK UNBOUND:                 3.194
REMARK  Name = 
REMARK  9 active torsions:
REMARK  status: ('A' for Active; 'I' for Inactive)
REMARK    1  A    between atoms: C_1  and  C_2
REMARK    2  A    between atoms: C_2  and  C_3
REMARK    3  A    between atoms: C_2  and  C_10
REMARK    4  A    between atoms: C_3  and  C_4
REMARK    5  A    between atoms: N_8  and  C_9
REMARK    6  A    between atoms: N_16  and  C_17
REMARK    7  A    between atoms: C_24  and  N_26
REMARK    8  A    between atoms: C_31  and  C_38
REMARK    9  A    between atoms: C_33  and  C_34
REMARK                            x       y       z     vdW  Elec       q    Type
REMARK                         _______ _______ _______ _____ _____    ______ ____
ROOT
ATOM      1  C   UNL     1       1.860   5.507  20.041  0.00  0.00    -0.038 A 
ATOM      2  C   UNL     1       2.758   5.450  18.966  0.00  0.00    -0.018 A 
ATOM      3  C   UNL     1       3.068   6.601  18.259  0.00  0.00    +0.128 A 
ATOM      4  N   UNL     1       3.969   6.646  17.192  0.00  0.00    -0.254 N 
ATOM      5  C   UNL     1       4.623   5.611  16.582  0.00  0.00    +0.305 C 
ATOM      6  O   UNL     1       4.485   4.420  16.827  0.00  0.00    -0.252 OA
ATOM      7  N   UNL     1       5.520   6.070  15.639  0.00  0.00    -0.296 N 
ATOM      8  N   UNL     1       2.551   7.807  18.570  0.00  0.00    -0.217 NA
ATOM      9  C   UNL     1       1.707   7.891  19.626  0.00  0.00    +0.130 A 
ATOM     10  C   UNL     1       1.348   6.769  20.369  0.00  0.00    -0.018 A 
ATOM     11  H   UNL     1       3.223   4.509  18.705  0.00  0.00    +0.065 HD
ATOM     12  H   UNL     1       4.107   7.579  16.846  0.00  0.00    +0.158 HD
ATOM     13  H   UNL     1       5.389   7.010  15.296  0.00  0.00    +0.151 HD
ATOM     14  H   UNL     1       0.648   6.876  21.187  0.00  0.00    +0.065 HD
ENDROOT
BRANCH   7  15
ATOM     15  C   UNL     1       6.273   5.157  14.790  0.00  0.00    +0.025 C 
ATOM     16  C   UNL     1       7.105   5.939  13.773  0.00  0.00    -0.034 C 
ATOM     17  C   UNL     1       7.967   5.015  12.911  0.00  0.00    -0.051 C 
ATOM     18  C   UNL     1       7.339   3.643  12.656  0.00  0.00    -0.053 C 
ATOM     19  C   UNL     1       5.819   3.695  12.726  0.00  0.00    -0.051 C 
ATOM     20  C   UNL     1       5.328   4.155  14.100  0.00  0.00    -0.034 C 
ATOM     21  H   UNL     1       6.962   4.595  15.434  0.00  0.00    +0.050 HD
ATOM     22  H   UNL     1       7.750   6.668  14.281  0.00  0.00    +0.028 HD
ATOM     23  H   UNL     1       6.440   6.524  13.121  0.00  0.00    +0.028 HD
ATOM     24  H   UNL     1       8.943   4.865  13.389  0.00  0.00    +0.027 HD
ATOM     25  H   UNL     1       8.170   5.515  11.957  0.00  0.00    +0.027 HD
ATOM     26  H   UNL     1       7.664   3.267  11.679  0.00  0.00    +0.027 HD
ATOM     27  H   UNL     1       7.711   2.930  13.406  0.00  0.00    +0.027 HD
ATOM     28  H   UNL     1       5.446   4.387  11.961  0.00  0.00    +0.027 HD
ATOM     29  H   UNL     1       5.393   2.713  12.494  0.00  0.00    +0.027 HD
ATOM     30  H   UNL     1       4.321   4.574  13.987  0.00  0.00    +0.028 HD
ATOM     31  H   UNL     1       5.212   3.283  14.756  0.00  0.00    +0.028 HD
ENDBRANCH   7  15
BRANCH   9  32
ATOM     32  N   UNL     1       1.219   9.174  19.937  0.00  0.00    -0.248 N 
ATOM     33  C   UNL     1       1.791  10.340  19.288  0.00  0.00    +0.048 C 
ATOM     34  C   UNL     1       0.998  11.469  19.866  0.00  0.00    -0.006 A 
ATOM     35  C   UNL     1       0.083  10.972  20.785  0.00  0.00    +0.043 A 
ATOM     36  C   UNL     1      -0.787  11.787  21.488  0.00  0.00    -0.046 A 
ATOM     37  C   UNL     1      -0.743  13.174  21.263  0.00  0.00    -0.043 A 
ATOM     38  C   UNL     1       0.187  13.676  20.324  0.00  0.00    -0.046 A 
ATOM     39  C   UNL     1       1.069  12.834  19.611  0.00  0.00    +0.060 A 
ATOM     40  C   UNL     1       0.231   9.511  20.852  0.00  0.00    +0.253 C 
ATOM     41  O   UNL     1      -0.414   8.826  21.624  0.00  0.00    -0.270 OA
ATOM     42  H   UNL     1       1.648  10.269  18.205  0.00  0.00    +0.052 HD
ATOM     43  H   UNL     1       2.848  10.432  19.553  0.00  0.00    +0.052 HD
ATOM     44  H   UNL     1      -1.483  11.339  22.194  0.00  0.00    +0.063 HD
ATOM     45  H   UNL     1       0.232  14.745  20.128  0.00  0.00    +0.063 HD
BRANCH  37  46
ATOM     46  C   UNL     1      -1.703  14.069  22.043  0.00  0.00    -0.016 C 
ATOM     47  C   UNL     1      -2.966  14.459  21.255  0.00  0.00    -0.046 C 
ATOM     48  C   UNL     1      -4.140  13.490  21.387  0.00  0.00    -0.053 C 
ATOM     49  C   UNL     1      -4.425  13.135  22.840  0.00  0.00    -0.053 C 
ATOM     50  C   UNL     1      -3.191  12.583  23.541  0.00  0.00    -0.053 C 
ATOM     51  C   UNL     1      -2.013  13.548  23.457  0.00  0.00    -0.046 C 
ATOM     52  H   UNL     1      -1.159  15.013  22.195  0.00  0.00    +0.035 HD
ATOM     53  H   UNL     1      -3.305  15.433  21.631  0.00  0.00    +0.027 HD
ATOM     54  H   UNL     1      -2.735  14.611  20.194  0.00  0.00    +0.027 HD
ATOM     55  H   UNL     1      -3.948  12.579  20.813  0.00  0.00    +0.027 HD
ATOM     56  H   UNL     1      -5.034  13.946  20.941  0.00  0.00    +0.027 HD
ATOM     57  H   UNL     1      -5.236  12.399  22.886  0.00  0.00    +0.027 HD
ATOM     58  H   UNL     1      -4.777  14.028  23.371  0.00  0.00    +0.027 HD
ATOM     59  H   UNL     1      -3.427  12.395  24.596  0.00  0.00    +0.027 HD
ATOM     60  H   UNL     1      -2.922  11.612  23.113  0.00  0.00    +0.027 HD
ATOM     61  H   UNL     1      -2.256  14.415  24.087  0.00  0.00    +0.027 HD
ATOM     62  H   UNL     1      -1.124  13.083  23.903  0.00  0.00    +0.027 HD
ENDBRANCH  37  46
BRANCH  39  63
ATOM     63  C   UNL     1       2.048  13.385  18.610  0.00  0.00    +0.418 C 
ATOM     64  F   UNL     1       1.760  14.669  18.259  0.00  0.00    -0.166 F 
ATOM     65  F   UNL     1       3.322  13.408  19.087  0.00  0.00    -0.166 F 
ATOM     66  F   UNL     1       2.096  12.682  17.445  0.00  0.00    -0.166 F 
ENDBRANCH  39  63
ENDBRANCH   9  32
BRANCH   1  67
ATOM     67  C   UNL     1       1.549   4.243  20.847  0.00  0.00    -0.012 C 
ATOM     68  H   UNL     1       0.552   4.436  21.274  0.00  0.00    +0.035 HD
BRANCH  67  69
ATOM     69  C   UNL     1       2.501   4.043  22.042  0.00  0.00    -0.058 C 
ATOM     70  H   UNL     1       3.532   3.886  21.703  0.00  0.00    +0.024 HD
ATOM     71  H   UNL     1       2.488   4.909  22.714  0.00  0.00    +0.024 HD
ATOM     72  H   UNL     1       2.231   3.163  22.634  0.00  0.00    +0.024 HD
ENDBRANCH  67  69
BRANCH  67  73
ATOM     73  C   UNL     1       1.393   2.910  20.066  0.00  0.00    +0.014 C 
ATOM     74  H   UNL     1       0.811   2.227  20.698  0.00  0.00    +0.035 HD
ATOM     75  H   UNL     1       0.782   3.049  19.168  0.00  0.00    +0.035 HD
BRANCH  73  76
ATOM     76  C   UNL     1       2.685   2.260  19.690  0.00  0.00    +0.134 A 
ATOM     77  N   UNL     1       3.680   1.956  20.501  0.00  0.00    -0.135 NA
ATOM     78  N   UNL     1       4.673   1.359  19.765  0.00  0.00    -0.138 NA
ATOM     79  C   UNL     1       4.270   1.315  18.517  0.00  0.00    +0.120 A 
ATOM     80  N   UNL     1       3.035   1.875  18.420  0.00  0.00    -0.320 N 
ATOM     81  H   UNL     1       4.823   0.903  17.684  0.00  0.00    +0.105 HD
BRANCH  80  82
ATOM     82  C   UNL     1       2.269   2.023  17.212  0.00  0.00    +0.014 C 
ATOM     83  H   UNL     1       2.945   1.965  16.357  0.00  0.00    +0.046 HD
ATOM     84  H   UNL     1       1.767   2.994  17.215  0.00  0.00    +0.046 HD
ATOM     85  H   UNL     1       1.524   1.224  17.175  0.00  0.00    +0.046 HD
ENDBRANCH  80  82
ENDBRANCH  73  76
ENDBRANCH  67  73
ENDBRANCH   1  67
TORSDOF 9
ENDMDL
MODEL 3
REMARK VINA RESULT:    -9.245      3.537     11.161
REMARK INTER + INTRA:         -10.375
REMARK INTER:                 -10.317
REMARK INTRA:                  -0.058
REMARK UNBOUND:                 3.194
REMARK  Name = 
REMARK  9 active torsions:
REMARK  status: ('A' for Active; 'I' for Inactive)
REMARK    1  A    between atoms: C_1  and  C_2
REMARK    2  A    between atoms: C_2  and  C_3
REMARK    3  A    between atoms: C_2  and  C_10
REMARK    4  A    between atoms: C_3  and  C_4
REMARK    5  A    between atoms: N_8  and  C_9
REMARK    6  A    between atoms: N_16  and  C_17
REMARK    7  A    between atoms: C_24  and  N_26
REMARK    8  A    between atoms: C_31  and  C_38
REMARK    9  A    between atoms: C_33  and  C_34
REMARK                            x       y       z     vdW  Elec       q    Type
REMARK                         _______ _______ _______ _____ _____    ______ ____
ROOT
ATOM      1  C   UNL     1       1.737  12.428  18.682  0.00  0.00    -0.038 A 
ATOM      2  C   UNL     1       0.617  12.533  19.518  0.00  0.00    -0.018 A 
ATOM      3  C   UNL     1       0.031  11.390  20.040  0.00  0.00    +0.128 A 
ATOM      4  N   UNL     1      -1.069  11.397  20.901  0.00  0.00    -0.254 N 
ATOM      5  C   UNL     1      -1.827  12.460  21.311  0.00  0.00    +0.305 C 
ATOM      6  O   UNL     1      -1.713  13.619  20.936  0.00  0.00    -0.252 OA
ATOM      7  N   UNL     1      -2.756  12.079  22.257  0.00  0.00    -0.296 N 
ATOM      8  N   UNL     1       0.505  10.152  19.793  0.00  0.00    -0.217 NA
ATOM      9  C   UNL     1       1.606  10.030  19.014  0.00  0.00    +0.130 A 
ATOM     10  C   UNL     1       2.233  11.139  18.451  0.00  0.00    -0.018 A 
ATOM     11  H   UNL     1       0.225  13.509  19.771  0.00  0.00    +0.065 HD
ATOM     12  H   UNL     1      -1.312  10.475  21.220  0.00  0.00    +0.158 HD
ATOM     13  H   UNL     1      -2.982  11.096  22.313  0.00  0.00    +0.151 HD
ATOM     14  H   UNL     1       3.093  10.995  17.810  0.00  0.00    +0.065 HD
ENDROOT
BRANCH   7  15
ATOM     15  C   UNL     1      -3.743  13.013  22.781  0.00  0.00    +0.025 C 
ATOM     16  C   UNL     1      -4.058  14.092  21.744  0.00  0.00    -0.034 C 
ATOM     17  C   UNL     1      -5.147  15.049  22.230  0.00  0.00    -0.051 C 
ATOM     18  C   UNL     1      -5.147  15.267  23.745  0.00  0.00    -0.053 C 
ATOM     19  C   UNL     1      -3.766  15.049  24.347  0.00  0.00    -0.051 C 
ATOM     20  C   UNL     1      -3.258  13.626  24.107  0.00  0.00    -0.034 C 
ATOM     21  H   UNL     1      -4.664  12.449  22.976  0.00  0.00    +0.050 HD
ATOM     22  H   UNL     1      -4.373  13.635  20.795  0.00  0.00    +0.028 HD
ATOM     23  H   UNL     1      -3.147  14.665  21.517  0.00  0.00    +0.028 HD
ATOM     24  H   UNL     1      -6.133  14.671  21.935  0.00  0.00    +0.027 HD
ATOM     25  H   UNL     1      -5.024  16.009  21.715  0.00  0.00    +0.027 HD
ATOM     26  H   UNL     1      -5.507  16.278  23.970  0.00  0.00    +0.027 HD
ATOM     27  H   UNL     1      -5.858  14.570  24.210  0.00  0.00    +0.027 HD
ATOM     28  H   UNL     1      -3.061  15.761  23.902  0.00  0.00    +0.027 HD
ATOM     29  H   UNL     1      -3.782  15.257  25.422  0.00  0.00    +0.027 HD
ATOM     30  H   UNL     1      -2.163  13.634  24.163  0.00  0.00    +0.028 HD
ATOM     31  H   UNL     1      -3.591  12.978  24.928  0.00  0.00    +0.028 HD
ENDBRANCH   7  15
BRANCH   9  32
ATOM     32  N   UNL     1       2.088   8.723  18.810  0.00  0.00    -0.248 N 
ATOM     33  C   UNL     1       3.063   8.469  17.765  0.00  0.00    +0.048 C 
ATOM     34  C   UNL     1       3.320   7.001  17.894  0.00  0.00    -0.006 A 
ATOM     35  C   UNL     1       2.528   6.479  18.909  0.00  0.00    +0.043 A 
ATOM     36  C   UNL     1       2.547   5.139  19.255  0.00  0.00    -0.046 A 
ATOM     37  C   UNL     1       3.400   4.271  18.551  0.00  0.00    -0.043 A 
ATOM     38  C   UNL     1       4.209   4.807  17.523  0.00  0.00    -0.046 A 
ATOM     39  C   UNL     1       4.182   6.178  17.179  0.00  0.00    +0.060 A 
ATOM     40  C   UNL     1       1.724   7.566  19.485  0.00  0.00    +0.253 C 
ATOM     41  O   UNL     1       0.898   7.373  20.358  0.00  0.00    -0.270 OA
ATOM     42  H   UNL     1       3.971   9.049  17.955  0.00  0.00    +0.052 HD
ATOM     43  H   UNL     1       2.629   8.702  16.789  0.00  0.00    +0.052 HD
ATOM     44  H   UNL     1       1.904   4.788  20.060  0.00  0.00    +0.063 HD
ATOM     45  H   UNL     1       4.883   4.156  16.971  0.00  0.00    +0.063 HD
BRANCH  37  46
ATOM     46  C   UNL     1       3.414   2.794  18.935  0.00  0.00    -0.016 C 
ATOM     47  C   UNL     1       4.032   2.517  20.317  0.00  0.00    -0.046 C 
ATOM     48  C   UNL     1       3.054   2.567  21.490  0.00  0.00    -0.053 C 
ATOM     49  C   UNL     1       1.800   1.747  21.219  0.00  0.00    -0.053 C 
ATOM     50  C   UNL     1       1.113   2.172  19.927  0.00  0.00    -0.053 C 
ATOM     51  C   UNL     1       2.058   2.096  18.733  0.00  0.00    -0.046 C 
ATOM     52  H   UNL     1       4.097   2.315  18.217  0.00  0.00    +0.035 HD
ATOM     53  H   UNL     1       4.462   1.507  20.294  0.00  0.00    +0.027 HD
ATOM     54  H   UNL     1       4.873   3.194  20.513  0.00  0.00    +0.027 HD
ATOM     55  H   UNL     1       2.781   3.602  21.713  0.00  0.00    +0.027 HD
ATOM     56  H   UNL     1       3.553   2.184  22.390  0.00  0.00    +0.027 HD
ATOM     57  H   UNL     1       1.104   1.853  22.059  0.00  0.00    +0.027 HD
ATOM     58  H   UNL     1       2.065   0.685  21.159  0.00  0.00    +0.027 HD
ATOM     59  H   UNL     1       0.251   1.520  19.745  0.00  0.00    +0.027 HD
ATOM     60  H   UNL     1       0.711   3.184  20.034  0.00  0.00    +0.027 HD
ATOM     61  H   UNL     1       2.256   1.032  18.539  0.00  0.00    +0.027 HD
ATOM     62  H   UNL     1       1.553   2.483  17.838  0.00  0.00    +0.027 HD
ENDBRANCH  37  46
BRANCH  39  63
ATOM     63  C   UNL     1       5.054   6.733  16.086  0.00  0.00    +0.418 C 
ATOM     64  F   UNL     1       4.336   7.407  15.145  0.00  0.00    -0.166 F 
ATOM     65  F   UNL     1       5.974   7.621  16.555  0.00  0.00    -0.166 F 
ATOM     66  F   UNL     1       5.759   5.786  15.410  0.00  0.00    -0.166 F 
ENDBRANCH  39  63
ENDBRANCH   9  32
BRANCH   1  67
ATOM     67  C   UNL     1       2.407  13.693  18.139  0.00  0.00    -0.012 C 
ATOM     68  H   UNL     1       1.879  13.891  17.192  0.00  0.00    +0.035 HD
BRANCH  67  69
ATOM     69  C   UNL     1       3.888  13.478  17.772  0.00  0.00    -0.058 C 
ATOM     70  H   UNL     1       4.381  12.816  18.494  0.00  0.00    +0.024 HD
ATOM     71  H   UNL     1       3.994  13.036  16.774  0.00  0.00    +0.024 HD
ATOM     72  H   UNL     1       4.449  14.417  17.777  0.00  0.00    +0.024 HD
ENDBRANCH  67  69
BRANCH  67  73
ATOM     73  C   UNL     1       2.250  15.002  18.959  0.00  0.00    +0.014 C 
ATOM     74  H   UNL     1       2.502  15.838  18.293  0.00  0.00    +0.035 HD
ATOM     75  H   UNL     1       1.204  15.171  19.236  0.00  0.00    +0.035 HD
BRANCH  73  76
ATOM     76  C   UNL     1       3.104  15.069  20.184  0.00  0.00    +0.134 A 
ATOM     77  N   UNL     1       4.422  15.071  20.227  0.00  0.00    -0.135 NA
ATOM     78  N   UNL     1       4.813  15.157  21.541  0.00  0.00    -0.138 NA
ATOM     79  C   UNL     1       3.727  15.200  22.276  0.00  0.00    +0.120 A 
ATOM     80  N   UNL     1       2.633  15.139  21.471  0.00  0.00    -0.320 N 
ATOM     81  H   UNL     1       3.692  15.271  23.354  0.00  0.00    +0.105 HD
BRANCH  80  82
ATOM     82  C   UNL     1       1.263  15.145  21.909  0.00  0.00    +0.014 C 
ATOM     83  H   UNL     1       1.127  15.959  22.625  0.00  0.00    +0.046 HD
ATOM     84  H   UNL     1       1.029  14.192  22.391  0.00  0.00    +0.046 HD
ATOM     85  H   UNL     1       0.622  15.284  21.035  0.00  0.00    +0.046 HD
ENDBRANCH  80  82
ENDBRANCH  73  76
ENDBRANCH  67  73
ENDBRANCH   1  67
TORSDOF 9
ENDMDL
MODEL 4
REMARK VINA RESULT:    -9.004      1.186      1.729
REMARK INTER + INTRA:         -10.021
REMARK INTER:                 -10.659
REMARK INTRA:                   0.638
REMARK UNBOUND:                 3.194
REMARK  Name = 
REMARK  9 active torsions:
REMARK  status: ('A' for Active; 'I' for Inactive)
REMARK    1  A    between atoms: C_1  and  C_2
REMARK    2  A    between atoms: C_2  and  C_3
REMARK    3  A    between atoms: C_2  and  C_10
REMARK    4  A    between atoms: C_3  and  C_4
REMARK    5  A    between atoms: N_8  and  C_9
REMARK    6  A    between atoms: N_16  and  C_17
REMARK    7  A    between atoms: C_24  and  N_26
REMARK    8  A    between atoms: C_31  and  C_38
REMARK    9  A    between atoms: C_33  and  C_34
REMARK                            x       y       z     vdW  Elec       q    Type
REMARK                         _______ _______ _______ _____ _____    ______ ____
ROOT
ATOM      1  C   UNL     1       1.925   5.350  20.384  0.00  0.00    -0.038 A 
ATOM      2  C   UNL     1       2.783   5.323  19.276  0.00  0.00    -0.018 A 
ATOM      3  C   UNL     1       2.951   6.459  18.500  0.00  0.00    +0.128 A 
ATOM      4  N   UNL     1       3.802   6.533  17.395  0.00  0.00    -0.254 N 
ATOM      5  C   UNL     1       4.532   5.536  16.810  0.00  0.00    +0.305 C 
ATOM      6  O   UNL     1       4.522   4.352  17.119  0.00  0.00    -0.252 OA
ATOM      7  N   UNL     1       5.343   6.028  15.807  0.00  0.00    -0.296 N 
ATOM      8  N   UNL     1       2.329   7.624  18.772  0.00  0.00    -0.217 NA
ATOM      9  C   UNL     1       1.521   7.683  19.858  0.00  0.00    +0.130 A 
ATOM     10  C   UNL     1       1.303   6.572  20.670  0.00  0.00    -0.018 A 
ATOM     11  H   UNL     1       3.328   4.418  19.042  0.00  0.00    +0.065 HD
ATOM     12  H   UNL     1       3.834   7.456  16.997  0.00  0.00    +0.158 HD
ATOM     13  H   UNL     1       5.106   6.932  15.424  0.00  0.00    +0.151 HD
ATOM     14  H   UNL     1       0.626   6.655  21.511  0.00  0.00    +0.065 HD
ENDROOT
BRANCH   7  15
ATOM     15  C   UNL     1       6.150   5.148  14.973  0.00  0.00    +0.025 C 
ATOM     16  C   UNL     1       7.017   5.968  14.016  0.00  0.00    -0.034 C 
ATOM     17  C   UNL     1       7.934   5.079  13.175  0.00  0.00    -0.051 C 
ATOM     18  C   UNL     1       7.341   3.705  12.857  0.00  0.00    -0.053 C 
ATOM     19  C   UNL     1       5.819   3.733  12.855  0.00  0.00    -0.051 C 
ATOM     20  C   UNL     1       5.256   4.151  14.215  0.00  0.00    -0.034 C 
ATOM     21  H   UNL     1       6.817   4.581  15.636  0.00  0.00    +0.050 HD
ATOM     22  H   UNL     1       7.625   6.694  14.573  0.00  0.00    +0.028 HD
ATOM     23  H   UNL     1       6.374   6.559  13.348  0.00  0.00    +0.028 HD
ATOM     24  H   UNL     1       8.889   4.932  13.696  0.00  0.00    +0.027 HD
ATOM     25  H   UNL     1       8.174   5.606  12.245  0.00  0.00    +0.027 HD
ATOM     26  H   UNL     1       7.718   3.358  11.888  0.00  0.00    +0.027 HD
ATOM     27  H   UNL     1       7.688   2.979  13.606  0.00  0.00    +0.027 HD
ATOM     28  H   UNL     1       5.471   4.438  12.091  0.00  0.00    +0.027 HD
ATOM     29  H   UNL     1       5.420   2.751  12.579  0.00  0.00    +0.027 HD
ATOM     30  H   UNL     1       4.249   4.557  14.063  0.00  0.00    +0.028 HD
ATOM     31  H   UNL     1       5.123   3.261  14.843  0.00  0.00    +0.028 HD
ENDBRANCH   7  15
BRANCH   9  32
ATOM     32  N   UNL     1       0.921   8.927  20.126  0.00  0.00    -0.248 N 
ATOM     33  C   UNL     1       0.165   9.602  19.086  0.00  0.00    +0.048 C 
ATOM     34  C   UNL     1      -0.310  10.845  19.769  0.00  0.00    -0.006 A 
ATOM     35  C   UNL     1       0.169  10.872  21.072  0.00  0.00    +0.043 A 
ATOM     36  C   UNL     1      -0.104  11.909  21.947  0.00  0.00    -0.046 A 
ATOM     37  C   UNL     1      -0.898  12.979  21.498  0.00  0.00    -0.043 A 
ATOM     38  C   UNL     1      -1.388  12.946  20.173  0.00  0.00    -0.046 A 
ATOM     39  C   UNL     1      -1.104  11.881  19.289  0.00  0.00    +0.060 A 
ATOM     40  C   UNL     1       0.973   9.662  21.302  0.00  0.00    +0.253 C 
ATOM     41  O   UNL     1       1.560   9.460  22.349  0.00  0.00    -0.270 OA
ATOM     42  H   UNL     1      -0.675   8.975  18.772  0.00  0.00    +0.052 HD
ATOM     43  H   UNL     1       0.824   9.847  18.248  0.00  0.00    +0.052 HD
ATOM     44  H   UNL     1       0.299  11.873  22.957  0.00  0.00    +0.063 HD
ATOM     45  H   UNL     1      -2.012  13.759  19.807  0.00  0.00    +0.063 HD
BRANCH  37  46
ATOM     46  C   UNL     1      -1.194  14.121  22.466  0.00  0.00    -0.016 C 
ATOM     47  C   UNL     1      -2.059  15.241  21.859  0.00  0.00    -0.046 C 
ATOM     48  C   UNL     1      -3.568  15.046  22.002  0.00  0.00    -0.053 C 
ATOM     49  C   UNL     1      -3.963  14.689  23.428  0.00  0.00    -0.053 C 
ATOM     50  C   UNL     1      -3.213  13.464  23.934  0.00  0.00    -0.053 C 
ATOM     51  C   UNL     1      -1.702  13.646  23.838  0.00  0.00    -0.046 C 
ATOM     52  H   UNL     1      -0.219  14.592  22.666  0.00  0.00    +0.035 HD
ATOM     53  H   UNL     1      -1.801  16.176  22.373  0.00  0.00    +0.027 HD
ATOM     54  H   UNL     1      -1.809  15.400  20.804  0.00  0.00    +0.027 HD
ATOM     55  H   UNL     1      -3.918  14.272  21.314  0.00  0.00    +0.027 HD
ATOM     56  H   UNL     1      -4.078  15.971  21.702  0.00  0.00    +0.027 HD
ATOM     57  H   UNL     1      -5.043  14.507  23.474  0.00  0.00    +0.027 HD
ATOM     58  H   UNL     1      -3.757  15.541  24.088  0.00  0.00    +0.027 HD
ATOM     59  H   UNL     1      -3.487  13.279  24.980  0.00  0.00    +0.027 HD
ATOM     60  H   UNL     1      -3.529  12.577  23.376  0.00  0.00    +0.027 HD
ATOM     61  H   UNL     1      -1.416  14.403  24.581  0.00  0.00    +0.027 HD
ATOM     62  H   UNL     1      -1.200  12.716  24.136  0.00  0.00    +0.027 HD
ENDBRANCH  37  46
BRANCH  39  63
ATOM     63  C   UNL     1      -1.640  11.858  17.883  0.00  0.00    +0.418 C 
ATOM     64  F   UNL     1      -2.981  12.092  17.838  0.00  0.00    -0.166 F 
ATOM     65  F   UNL     1      -1.071  12.811  17.095  0.00  0.00    -0.166 F 
ATOM     66  F   UNL     1      -1.446  10.675  17.240  0.00  0.00    -0.166 F 
ENDBRANCH  39  63
ENDBRANCH   9  32
BRANCH   1  67
ATOM     67  C   UNL     1       1.771   4.107  21.264  0.00  0.00    -0.012 C 
ATOM     68  H   UNL     1       0.988   4.385  21.987  0.00  0.00    +0.035 HD
BRANCH  67  69
ATOM     69  C   UNL     1       3.033   3.796  22.092  0.00  0.00    -0.058 C 
ATOM     70  H   UNL     1       2.823   3.851  23.167  0.00  0.00    +0.024 HD
ATOM     71  H   UNL     1       3.423   2.797  21.868  0.00  0.00    +0.024 HD
ATOM     72  H   UNL     1       3.835   4.514  21.895  0.00  0.00    +0.024 HD
ENDBRANCH  67  69
BRANCH  67  73
ATOM     73  C   UNL     1       1.245   2.809  20.594  0.00  0.00    +0.014 C 
ATOM     74  H   UNL     1       1.323   2.003  21.334  0.00  0.00    +0.035 HD
ATOM     75  H   UNL     1       0.174   2.884  20.374  0.00  0.00    +0.035 HD
BRANCH  73  76
ATOM     76  C   UNL     1       1.978   2.416  19.351  0.00  0.00    +0.134 A 
ATOM     77  N   UNL     1       1.514   2.452  18.118  0.00  0.00    -0.135 NA
ATOM     78  N   UNL     1       2.505   2.023  17.269  0.00  0.00    -0.138 NA
ATOM     79  C   UNL     1       3.553   1.728  18.000  0.00  0.00    +0.120 A 
ATOM     80  N   UNL     1       3.268   1.949  19.311  0.00  0.00    -0.320 N 
ATOM     81  H   UNL     1       4.503   1.362  17.633  0.00  0.00    +0.105 HD
BRANCH  80  82
ATOM     82  C   UNL     1       4.161   1.728  20.417  0.00  0.00    +0.014 C 
ATOM     83  H   UNL     1       3.648   1.120  21.165  0.00  0.00    +0.046 HD
ATOM     84  H   UNL     1       4.442   2.689  20.856  0.00  0.00    +0.046 HD
ATOM     85  H   UNL     1       5.053   1.218  20.044  0.00  0.00    +0.046 HD
ENDBRANCH  80  82
ENDBRANCH  73  76
ENDBRANCH  67  73
ENDBRANCH   1  67
TORSDOF 9
ENDMDL
MODEL 5
REMARK VINA RESULT:    -8.866      3.789     11.187
REMARK INTER + INTRA:          -9.818
REMARK INTER:                  -8.999
REMARK INTRA:                  -0.819
REMARK UNBOUND:                 3.194
REMARK  Name = 
REMARK  9 active torsions:
REMARK  status: ('A' for Active; 'I' for Inactive)
REMARK    1  A    between atoms: C_1  and  C_2
REMARK    2  A    between atoms: C_2  and  C_3
REMARK    3  A    between atoms: C_2  and  C_10
REMARK    4  A    between atoms: C_3  and  C_4
REMARK    5  A    between atoms: N_8  and  C_9
REMARK    6  A    between atoms: N_16  and  C_17
REMARK    7  A    between atoms: C_24  and  N_26
REMARK    8  A    between atoms: C_31  and  C_38
REMARK    9  A    between atoms: C_33  and  C_34
REMARK                            x       y       z     vdW  Elec       q    Type
REMARK                         _______ _______ _______ _____ _____    ______ ____
ROOT
ATOM      1  C   UNL     1       2.332  12.582  18.533  0.00  0.00    -0.038 A 
ATOM      2  C   UNL     1       1.251  12.783  19.404  0.00  0.00    -0.018 A 
ATOM      3  C   UNL     1       0.576  11.694  19.934  0.00  0.00    +0.128 A 
ATOM      4  N   UNL     1      -0.493  11.795  20.827  0.00  0.00    -0.254 N 
ATOM      5  C   UNL     1      -1.135  12.919  21.267  0.00  0.00    +0.305 C 
ATOM      6  O   UNL     1      -0.924  14.067  20.898  0.00  0.00    -0.252 OA
ATOM      7  N   UNL     1      -2.069  12.617  22.238  0.00  0.00    -0.296 N 
ATOM      8  N   UNL     1       0.925  10.420  19.662  0.00  0.00    -0.217 NA
ATOM      9  C   UNL     1       1.986  10.203  18.850  0.00  0.00    +0.130 A 
ATOM     10  C   UNL     1       2.698  11.255  18.277  0.00  0.00    -0.018 A 
ATOM     11  H   UNL     1       0.960  13.788  19.676  0.00  0.00    +0.065 HD
ATOM     12  H   UNL     1      -0.812  10.896  21.145  0.00  0.00    +0.158 HD
ATOM     13  H   UNL     1      -2.384  11.659  22.293  0.00  0.00    +0.151 HD
ATOM     14  H   UNL     1       3.522  11.037  17.610  0.00  0.00    +0.065 HD
ENDROOT
BRANCH   7  15
ATOM     15  C   UNL     1      -2.948  13.634  22.798  0.00  0.00    +0.025 C 
ATOM     16  C   UNL     1      -2.393  14.143  24.129  0.00  0.00    -0.034 C 
ATOM     17  C   UNL     1      -3.251  15.267  24.712  0.00  0.00    -0.051 C 
ATOM     18  C   UNL     1      -4.738  15.148  24.374  0.00  0.00    -0.053 C 
ATOM     19  C   UNL     1      -5.147  13.703  24.124  0.00  0.00    -0.051 C 
ATOM     20  C   UNL     1      -4.379  13.089  22.952  0.00  0.00    -0.034 C 
ATOM     21  H   UNL     1      -2.972  14.477  22.095  0.00  0.00    +0.050 HD
ATOM     22  H   UNL     1      -1.361  14.500  24.006  0.00  0.00    +0.028 HD
ATOM     23  H   UNL     1      -2.343  13.315  24.851  0.00  0.00    +0.028 HD
ATOM     24  H   UNL     1      -2.890  16.237  24.347  0.00  0.00    +0.027 HD
ATOM     25  H   UNL     1      -3.115  15.282  25.800  0.00  0.00    +0.027 HD
ATOM     26  H   UNL     1      -5.335  15.579  25.187  0.00  0.00    +0.027 HD
ATOM     27  H   UNL     1      -4.954  15.745  23.477  0.00  0.00    +0.027 HD
ATOM     28  H   UNL     1      -4.956  13.112  25.028  0.00  0.00    +0.027 HD
ATOM     29  H   UNL     1      -6.224  13.639  23.931  0.00  0.00    +0.027 HD
ATOM     30  H   UNL     1      -4.377  11.999  23.071  0.00  0.00    +0.028 HD
ATOM     31  H   UNL     1      -4.923  13.282  22.019  0.00  0.00    +0.028 HD
ENDBRANCH   7  15
BRANCH   9  32
ATOM     32  N   UNL     1       2.337   8.859  18.622  0.00  0.00    -0.248 N 
ATOM     33  C   UNL     1       3.298   8.531  17.584  0.00  0.00    +0.048 C 
ATOM     34  C   UNL     1       3.404   7.042  17.682  0.00  0.00    -0.006 A 
ATOM     35  C   UNL     1       2.547   6.580  18.673  0.00  0.00    +0.043 A 
ATOM     36  C   UNL     1       2.425   5.238  18.987  0.00  0.00    -0.046 A 
ATOM     37  C   UNL     1       3.198   4.305  18.275  0.00  0.00    -0.043 A 
ATOM     38  C   UNL     1       4.072   4.779  17.270  0.00  0.00    -0.046 A 
ATOM     39  C   UNL     1       4.190   6.152  16.959  0.00  0.00    +0.060 A 
ATOM     40  C   UNL     1       1.848   7.730  19.264  0.00  0.00    +0.253 C 
ATOM     41  O   UNL     1       0.993   7.602  20.121  0.00  0.00    -0.270 OA
ATOM     42  H   UNL     1       4.257   9.013  17.800  0.00  0.00    +0.052 HD
ATOM     43  H   UNL     1       2.905   8.829  16.608  0.00  0.00    +0.052 HD
ATOM     44  H   UNL     1       1.738   4.936  19.775  0.00  0.00    +0.063 HD
ATOM     45  H   UNL     1       4.686   4.076  16.712  0.00  0.00    +0.063 HD
BRANCH  37  46
ATOM     46  C   UNL     1       3.057   2.825  18.623  0.00  0.00    -0.016 C 
ATOM     47  C   UNL     1       3.967   2.370  19.779  0.00  0.00    -0.046 C 
ATOM     48  C   UNL     1       3.364   2.512  21.176  0.00  0.00    -0.053 C 
ATOM     49  C   UNL     1       1.960   1.927  21.251  0.00  0.00    -0.053 C 
ATOM     50  C   UNL     1       1.036   2.533  20.203  0.00  0.00    -0.053 C 
ATOM     51  C   UNL     1       1.597   2.373  18.794  0.00  0.00    -0.046 C 
ATOM     52  H   UNL     1       3.426   2.283  17.740  0.00  0.00    +0.035 HD
ATOM     53  H   UNL     1       4.191   1.306  19.627  0.00  0.00    +0.027 HD
ATOM     54  H   UNL     1       4.933   2.887  19.743  0.00  0.00    +0.027 HD
ATOM     55  H   UNL     1       3.346   3.563  21.477  0.00  0.00    +0.027 HD
ATOM     56  H   UNL     1       4.012   2.000  21.899  0.00  0.00    +0.027 HD
ATOM     57  H   UNL     1       1.546   2.097  22.252  0.00  0.00    +0.027 HD
ATOM     58  H   UNL     1       2.010   0.841  21.109  0.00  0.00    +0.027 HD
ATOM     59  H   UNL     1       0.056   2.044  20.259  0.00  0.00    +0.027 HD
ATOM     60  H   UNL     1       0.860   3.590  20.428  0.00  0.00    +0.027 HD
ATOM     61  H   UNL     1       1.546   1.305  18.542  0.00  0.00    +0.027 HD
ATOM     62  H   UNL     1       0.945   2.889  18.077  0.00  0.00    +0.027 HD
ENDBRANCH  37  46
BRANCH  39  63
ATOM     63  C   UNL     1       5.130   6.641  15.891  0.00  0.00    +0.418 C 
ATOM     64  F   UNL     1       6.143   7.396  16.401  0.00  0.00    -0.166 F 
ATOM     65  F   UNL     1       5.731   5.620  15.221  0.00  0.00    -0.166 F 
ATOM     66  F   UNL     1       4.532   7.413  14.942  0.00  0.00    -0.166 F 
ENDBRANCH  39  63
ENDBRANCH   9  32
BRANCH   1  67
ATOM     67  C   UNL     1       3.102  13.784  17.980  0.00  0.00    -0.012 C 
ATOM     68  H   UNL     1       2.507  14.107  17.111  0.00  0.00    +0.035 HD
BRANCH  67  69
ATOM     69  C   UNL     1       4.494  13.408  17.437  0.00  0.00    -0.058 C 
ATOM     70  H   UNL     1       4.444  12.505  16.817  0.00  0.00    +0.024 HD
ATOM     71  H   UNL     1       4.920  14.217  16.834  0.00  0.00    +0.024 HD
ATOM     72  H   UNL     1       5.200  13.192  18.245  0.00  0.00    +0.024 HD
ENDBRANCH  67  69
BRANCH  67  73
ATOM     73  C   UNL     1       3.207  15.048  18.876  0.00  0.00    +0.014 C 
ATOM     74  H   UNL     1       3.747  15.812  18.302  0.00  0.00    +0.035 HD
ATOM     75  H   UNL     1       2.219  15.484  19.061  0.00  0.00    +0.035 HD
BRANCH  73  76
ATOM     76  C   UNL     1       3.902  14.823  20.181  0.00  0.00    +0.134 A 
ATOM     77  N   UNL     1       3.338  14.501  21.328  0.00  0.00    -0.135 NA
ATOM     78  N   UNL     1       4.323  14.374  22.276  0.00  0.00    -0.138 NA
ATOM     79  C   UNL     1       5.470  14.627  21.691  0.00  0.00    +0.120 A 
ATOM     80  N   UNL     1       5.256  14.922  20.381  0.00  0.00    -0.320 N 
ATOM     81  H   UNL     1       6.443  14.609  22.164  0.00  0.00    +0.105 HD
BRANCH  80  82
ATOM     82  C   UNL     1       6.266  15.267  19.418  0.00  0.00    +0.014 C 
ATOM     83  H   UNL     1       6.160  14.615  18.548  0.00  0.00    +0.046 HD
ATOM     84  H   UNL     1       7.256  15.127  19.861  0.00  0.00    +0.046 HD
ATOM     85  H   UNL     1       6.133  16.315  19.138  0.00  0.00    +0.046 HD
ENDBRANCH  80  82
ENDBRANCH  73  76
ENDBRANCH  67  73
ENDBRANCH   1  67
TORSDOF 9
ENDMDL
MODEL 6
REMARK VINA RESULT:    -8.650      3.619     11.599
REMARK INTER + INTRA:          -9.502
REMARK INTER:                  -9.567
REMARK INTRA:                   0.065
REMARK UNBOUND:                 3.194
REMARK  Name = 
REMARK  9 active torsions:
REMARK  status: ('A' for Active; 'I' for Inactive)
REMARK    1  A    between atoms: C_1  and  C_2
REMARK    2  A    between atoms: C_2  and  C_3
REMARK    3  A    between atoms: C_2  and  C_10
REMARK    4  A    between atoms: C_3  and  C_4
REMARK    5  A    between atoms: N_8  and  C_9
REMARK    6  A    between atoms: N_16  and  C_17
REMARK    7  A    between atoms: C_24  and  N_26
REMARK    8  A    between atoms: C_31  and  C_38
REMARK    9  A    between atoms: C_33  and  C_34
REMARK                            x       y       z     vdW  Elec       q    Type
REMARK                         _______ _______ _______ _____ _____    ______ ____
ROOT
ATOM      1  C   UNL     1       1.463  12.549  18.722  0.00  0.00    -0.038 A 
ATOM      2  C   UNL     1       0.458  12.628  19.696  0.00  0.00    -0.018 A 
ATOM      3  C   UNL     1      -0.004  11.475  20.311  0.00  0.00    +0.128 A 
ATOM      4  N   UNL     1      -0.983  11.457  21.307  0.00  0.00    -0.254 N 
ATOM      5  C   UNL     1      -1.728  12.496  21.792  0.00  0.00    +0.305 C 
ATOM      6  O   UNL     1      -1.716  13.650  21.384  0.00  0.00    -0.252 OA
ATOM      7  N   UNL     1      -2.510  12.101  22.858  0.00  0.00    -0.296 N 
ATOM      8  N   UNL     1       0.489  10.252  20.027  0.00  0.00    -0.217 NA
ATOM      9  C   UNL     1       1.484  10.156  19.114  0.00  0.00    +0.130 A 
ATOM     10  C   UNL     1       1.983  11.277  18.453  0.00  0.00    -0.018 A 
ATOM     11  H   UNL     1       0.059  13.593  19.979  0.00  0.00    +0.065 HD
ATOM     12  H   UNL     1      -1.141  10.534  21.673  0.00  0.00    +0.158 HD
ATOM     13  H   UNL     1      -2.682  11.111  22.962  0.00  0.00    +0.151 HD
ATOM     14  H   UNL     1       2.758  11.153  17.709  0.00  0.00    +0.065 HD
ENDROOT
BRANCH   7  15
ATOM     15  C   UNL     1      -3.461  13.005  23.488  0.00  0.00    +0.025 C 
ATOM     16  C   UNL     1      -4.086  13.932  22.444  0.00  0.00    -0.034 C 
ATOM     17  C   UNL     1      -5.146  14.848  23.058  0.00  0.00    -0.051 C 
ATOM     18  C   UNL     1      -4.865  15.233  24.511  0.00  0.00    -0.053 C 
ATOM     19  C   UNL     1      -3.376  15.196  24.828  0.00  0.00    -0.051 C 
ATOM     20  C   UNL     1      -2.785  13.801  24.620  0.00  0.00    -0.034 C 
ATOM     21  H   UNL     1      -4.262  12.395  23.925  0.00  0.00    +0.050 HD
ATOM     22  H   UNL     1      -4.536  13.348  21.630  0.00  0.00    +0.028 HD
ATOM     23  H   UNL     1      -3.302  14.548  21.979  0.00  0.00    +0.028 HD
ATOM     24  H   UNL     1      -6.129  14.360  23.013  0.00  0.00    +0.027 HD
ATOM     25  H   UNL     1      -5.228  15.751  22.441  0.00  0.00    +0.027 HD
ATOM     26  H   UNL     1      -5.273  16.231  24.712  0.00  0.00    +0.027 HD
ATOM     27  H   UNL     1      -5.393  14.538  25.179  0.00  0.00    +0.027 HD
ATOM     28  H   UNL     1      -2.851  15.908  24.179  0.00  0.00    +0.027 HD
ATOM     29  H   UNL     1      -3.197  15.521  25.858  0.00  0.00    +0.027 HD
ATOM     30  H   UNL     1      -1.707  13.902  24.444  0.00  0.00    +0.028 HD
ATOM     31  H   UNL     1      -2.878  13.223  25.549  0.00  0.00    +0.028 HD
ENDBRANCH   7  15
BRANCH   9  32
ATOM     32  N   UNL     1       1.994   8.866  18.874  0.00  0.00    -0.248 N 
ATOM     33  C   UNL     1       1.576   7.759  19.715  0.00  0.00    +0.048 C 
ATOM     34  C   UNL     1       2.310   6.595  19.127  0.00  0.00    -0.006 A 
ATOM     35  C   UNL     1       3.095   7.029  18.066  0.00  0.00    +0.043 A 
ATOM     36  C   UNL     1       3.895   6.172  17.331  0.00  0.00    -0.046 A 
ATOM     37  C   UNL     1       3.915   4.808  17.670  0.00  0.00    -0.043 A 
ATOM     38  C   UNL     1       3.110   4.369  18.747  0.00  0.00    -0.046 A 
ATOM     39  C   UNL     1       2.297   5.253  19.491  0.00  0.00    +0.060 A 
ATOM     40  C   UNL     1       2.915   8.480  17.911  0.00  0.00    +0.253 C 
ATOM     41  O   UNL     1       3.534   9.128  17.087  0.00  0.00    -0.270 OA
ATOM     42  H   UNL     1       0.492   7.623  19.639  0.00  0.00    +0.052 HD
ATOM     43  H   UNL     1       1.892   7.936  20.746  0.00  0.00    +0.052 HD
ATOM     44  H   UNL     1       4.487   6.571  16.510  0.00  0.00    +0.063 HD
ATOM     45  H   UNL     1       3.104   3.317  19.022  0.00  0.00    +0.063 HD
BRANCH  37  46
ATOM     46  C   UNL     1       4.800   3.868  16.858  0.00  0.00    -0.016 C 
ATOM     47  C   UNL     1       4.777   4.146  15.344  0.00  0.00    -0.046 C 
ATOM     48  C   UNL     1       5.809   5.159  14.852  0.00  0.00    -0.053 C 
ATOM     49  C   UNL     1       7.203   4.854  15.383  0.00  0.00    -0.053 C 
ATOM     50  C   UNL     1       7.222   4.762  16.904  0.00  0.00    -0.053 C 
ATOM     51  C   UNL     1       6.226   3.731  17.421  0.00  0.00    -0.046 C 
ATOM     52  H   UNL     1       4.347   2.872  16.972  0.00  0.00    +0.035 HD
ATOM     53  H   UNL     1       4.979   3.198  14.828  0.00  0.00    +0.027 HD
ATOM     54  H   UNL     1       3.776   4.456  15.019  0.00  0.00    +0.027 HD
ATOM     55  H   UNL     1       5.515   6.172  15.139  0.00  0.00    +0.027 HD
ATOM     56  H   UNL     1       5.827   5.149  13.754  0.00  0.00    +0.027 HD
ATOM     57  H   UNL     1       7.900   5.632  15.052  0.00  0.00    +0.027 HD
ATOM     58  H   UNL     1       7.557   3.908  14.956  0.00  0.00    +0.027 HD
ATOM     59  H   UNL     1       8.230   4.487  17.237  0.00  0.00    +0.027 HD
ATOM     60  H   UNL     1       7.017   5.745  17.339  0.00  0.00    +0.027 HD
ATOM     61  H   UNL     1       6.604   2.739  17.134  0.00  0.00    +0.027 HD
ATOM     62  H   UNL     1       6.212   3.749  18.518  0.00  0.00    +0.027 HD
ENDBRANCH  37  46
BRANCH  39  63
ATOM     63  C   UNL     1       1.441   4.769  20.630  0.00  0.00    +0.418 C 
ATOM     64  F   UNL     1       2.171   4.516  21.752  0.00  0.00    -0.166 F 
ATOM     65  F   UNL     1       0.500   5.681  20.997  0.00  0.00    -0.166 F 
ATOM     66  F   UNL     1       0.764   3.620  20.359  0.00  0.00    -0.166 F 
ENDBRANCH  39  63
ENDBRANCH   9  32
BRANCH   1  67
ATOM     67  C   UNL     1       2.001  13.827  18.072  0.00  0.00    -0.012 C 
ATOM     68  H   UNL     1       1.288  14.034  17.258  0.00  0.00    +0.035 HD
BRANCH  67  69
ATOM     69  C   UNL     1       3.375  13.629  17.405  0.00  0.00    -0.058 C 
ATOM     70  H   UNL     1       3.485  12.607  17.025  0.00  0.00    +0.024 HD
ATOM     71  H   UNL     1       3.519  14.324  16.570  0.00  0.00    +0.024 HD
ATOM     72  H   UNL     1       4.197  13.789  18.111  0.00  0.00    +0.024 HD
ENDBRANCH  67  69
BRANCH  67  73
ATOM     73  C   UNL     1       2.009  15.123  18.928  0.00  0.00    +0.014 C 
ATOM     74  H   UNL     1       2.228  15.960  18.252  0.00  0.00    +0.035 HD
ATOM     75  H   UNL     1       1.012  15.339  19.327  0.00  0.00    +0.035 HD
BRANCH  73  76
ATOM     76  C   UNL     1       3.000  15.117  20.048  0.00  0.00    +0.134 A 
ATOM     77  N   UNL     1       4.313  15.064  19.939  0.00  0.00    -0.135 NA
ATOM     78  N   UNL     1       4.854  15.094  21.200  0.00  0.00    -0.138 NA
ATOM     79  C   UNL     1       3.862  15.158  22.056  0.00  0.00    +0.120 A 
ATOM     80  N   UNL     1       2.682  15.166  21.382  0.00  0.00    -0.320 N 
ATOM     81  H   UNL     1       3.953  15.197  23.133  0.00  0.00    +0.105 HD
BRANCH  80  82
ATOM     82  C   UNL     1       1.372  15.215  21.975  0.00  0.00    +0.014 C 
ATOM     83  H   UNL     1       0.628  15.271  21.178  0.00  0.00    +0.046 HD
ATOM     84  H   UNL     1       1.293  16.099  22.612  0.00  0.00    +0.046 HD
ATOM     85  H   UNL     1       1.231  14.313  22.577  0.00  0.00    +0.046 HD
ENDBRANCH  80  82
ENDBRANCH  73  76
ENDBRANCH  67  73
ENDBRANCH   1  67
TORSDOF 9
ENDMDL
MODEL 7
REMARK VINA RESULT:    -8.369      1.044      1.585
REMARK INTER + INTRA:          -9.090
REMARK INTER:                  -9.532
REMARK INTRA:                   0.443
REMARK UNBOUND:                 3.194
REMARK  Name = 
REMARK  9 active torsions:
REMARK  status: ('A' for Active; 'I' for Inactive)
REMARK    1  A    between atoms: C_1  and  C_2
REMARK    2  A    between atoms: C_2  and  C_3
REMARK    3  A    between atoms: C_2  and  C_10
REMARK    4  A    between atoms: C_3  and  C_4
REMARK    5  A    between atoms: N_8  and  C_9
REMARK    6  A    between atoms: N_16  and  C_17
REMARK    7  A    between atoms: C_24  and  N_26
REMARK    8  A    between atoms: C_31  and  C_38
REMARK    9  A    between atoms: C_33  and  C_34
REMARK                            x       y       z     vdW  Elec       q    Type
REMARK                         _______ _______ _______ _____ _____    ______ ____
ROOT
ATOM      1  C   UNL     1       1.960   5.278  20.393  0.00  0.00    -0.038 A 
ATOM      2  C   UNL     1       2.833   5.291  19.296  0.00  0.00    -0.018 A 
ATOM      3  C   UNL     1       3.097   6.480  18.635  0.00  0.00    +0.128 A 
ATOM      4  N   UNL     1       3.970   6.596  17.551  0.00  0.00    -0.254 N 
ATOM      5  C   UNL     1       4.635   5.606  16.879  0.00  0.00    +0.305 C 
ATOM      6  O   UNL     1       4.532   4.403  17.074  0.00  0.00    -0.252 OA
ATOM      7  N   UNL     1       5.498   6.130  15.937  0.00  0.00    -0.296 N 
ATOM      8  N   UNL     1       2.558   7.658  19.011  0.00  0.00    -0.217 NA
ATOM      9  C   UNL     1       1.738   7.673  20.089  0.00  0.00    +0.130 A 
ATOM     10  C   UNL     1       1.425   6.510  20.789  0.00  0.00    -0.018 A 
ATOM     11  H   UNL     1       3.314   4.375  18.982  0.00  0.00    +0.065 HD
ATOM     12  H   UNL     1       4.077   7.547  17.244  0.00  0.00    +0.158 HD
ATOM     13  H   UNL     1       5.335   7.081  15.641  0.00  0.00    +0.151 HD
ATOM     14  H   UNL     1       0.742   6.562  21.627  0.00  0.00    +0.065 HD
ENDROOT
BRANCH   7  15
ATOM     15  C   UNL     1       6.252   5.275  15.031  0.00  0.00    +0.025 C 
ATOM     16  C   UNL     1       7.065   6.123  14.052  0.00  0.00    -0.034 C 
ATOM     17  C   UNL     1       7.929   5.259  13.132  0.00  0.00    -0.051 C 
ATOM     18  C   UNL     1       7.314   3.897  12.805  0.00  0.00    -0.053 C 
ATOM     19  C   UNL     1       5.794   3.929  12.892  0.00  0.00    -0.051 C 
ATOM     20  C   UNL     1       5.311   4.304  14.294  0.00  0.00    -0.034 C 
ATOM     21  H   UNL     1       6.953   4.685  15.635  0.00  0.00    +0.050 HD
ATOM     22  H   UNL     1       7.707   6.830  14.596  0.00  0.00    +0.028 HD
ATOM     23  H   UNL     1       6.387   6.736  13.441  0.00  0.00    +0.028 HD
ATOM     24  H   UNL     1       8.911   5.094  13.592  0.00  0.00    +0.027 HD
ATOM     25  H   UNL     1       8.118   5.816  12.206  0.00  0.00    +0.027 HD
ATOM     26  H   UNL     1       7.633   3.581  11.805  0.00  0.00    +0.027 HD
ATOM     27  H   UNL     1       7.700   3.148  13.509  0.00  0.00    +0.027 HD
ATOM     28  H   UNL     1       5.406   4.658  12.171  0.00  0.00    +0.027 HD
ATOM     29  H   UNL     1       5.376   2.957  12.607  0.00  0.00    +0.027 HD
ATOM     30  H   UNL     1       4.299   4.717  14.214  0.00  0.00    +0.028 HD
ATOM     31  H   UNL     1       5.211   3.395  14.900  0.00  0.00    +0.028 HD
ENDBRANCH   7  15
BRANCH   9  32
ATOM     32  N   UNL     1       1.227   8.928  20.470  0.00  0.00    -0.248 N 
ATOM     33  C   UNL     1       1.530  10.102  19.671  0.00  0.00    +0.048 C 
ATOM     34  C   UNL     1       0.798  11.193  20.387  0.00  0.00    -0.006 A 
ATOM     35  C   UNL     1       0.166  10.671  21.508  0.00  0.00    +0.043 A 
ATOM     36  C   UNL     1      -0.585  11.449  22.372  0.00  0.00    -0.046 A 
ATOM     37  C   UNL     1      -0.714  12.823  22.104  0.00  0.00    -0.043 A 
ATOM     38  C   UNL     1      -0.074  13.350  20.958  0.00  0.00    -0.046 A 
ATOM     39  C   UNL     1       0.689  12.546  20.083  0.00  0.00    +0.060 A 
ATOM     40  C   UNL     1       0.452   9.231  21.581  0.00  0.00    +0.253 C 
ATOM     41  O   UNL     1       0.065   8.536  22.502  0.00  0.00    -0.270 OA
ATOM     42  H   UNL     1       1.147   9.968  18.654  0.00  0.00    +0.052 HD
ATOM     43  H   UNL     1       2.607  10.288  19.679  0.00  0.00    +0.052 HD
ATOM     44  H   UNL     1      -1.057  10.983  23.234  0.00  0.00    +0.063 HD
ATOM     45  H   UNL     1      -0.167  14.409  20.727  0.00  0.00    +0.063 HD
BRANCH  37  46
ATOM     46  C   UNL     1      -1.541  13.677  23.061  0.00  0.00    -0.016 C 
ATOM     47  C   UNL     1      -1.894  15.068  22.505  0.00  0.00    -0.046 C 
ATOM     48  C   UNL     1      -3.191  15.138  21.700  0.00  0.00    -0.053 C 
ATOM     49  C   UNL     1      -4.350  14.472  22.431  0.00  0.00    -0.053 C 
ATOM     50  C   UNL     1      -4.028  13.032  22.811  0.00  0.00    -0.053 C 
ATOM     51  C   UNL     1      -2.756  12.938  23.646  0.00  0.00    -0.046 C 
ATOM     52  H   UNL     1      -0.880  13.873  23.919  0.00  0.00    +0.035 HD
ATOM     53  H   UNL     1      -2.003  15.750  23.358  0.00  0.00    +0.027 HD
ATOM     54  H   UNL     1      -1.069  15.471  21.904  0.00  0.00    +0.027 HD
ATOM     55  H   UNL     1      -3.055  14.675  20.719  0.00  0.00    +0.027 HD
ATOM     56  H   UNL     1      -3.437  16.190  21.507  0.00  0.00    +0.027 HD
ATOM     57  H   UNL     1      -5.244  14.497  21.799  0.00  0.00    +0.027 HD
ATOM     58  H   UNL     1      -4.586  15.044  23.337  0.00  0.00    +0.027 HD
ATOM     59  H   UNL     1      -4.866  12.614  23.381  0.00  0.00    +0.027 HD
ATOM     60  H   UNL     1      -3.940  12.420  21.908  0.00  0.00    +0.027 HD
ATOM     61  H   UNL     1      -2.977  13.381  24.627  0.00  0.00    +0.027 HD
ATOM     62  H   UNL     1      -2.515  11.883  23.833  0.00  0.00    +0.027 HD
ENDBRANCH  37  46
BRANCH  39  63
ATOM     63  C   UNL     1       1.358  13.121  18.864  0.00  0.00    +0.418 C 
ATOM     64  F   UNL     1       2.546  12.513  18.592  0.00  0.00    -0.166 F 
ATOM     65  F   UNL     1       0.603  12.979  17.741  0.00  0.00    -0.166 F 
ATOM     66  F   UNL     1       1.634  14.450  18.964  0.00  0.00    -0.166 F 
ENDBRANCH  39  63
ENDBRANCH   9  32
BRANCH   1  67
ATOM     67  C   UNL     1       1.700   3.972  21.148  0.00  0.00    -0.012 C 
ATOM     68  H   UNL     1       0.919   4.235  21.878  0.00  0.00    +0.035 HD
BRANCH  67  69
ATOM     69  C   UNL     1       2.916   3.497  21.966  0.00  0.00    -0.058 C 
ATOM     70  H   UNL     1       2.635   2.699  22.663  0.00  0.00    +0.024 HD
ATOM     71  H   UNL     1       3.713   3.120  21.315  0.00  0.00    +0.024 HD
ATOM     72  H   UNL     1       3.339   4.304  22.571  0.00  0.00    +0.024 HD
ENDBRANCH  67  69
BRANCH  67  73
ATOM     73  C   UNL     1       1.104   2.782  20.347  0.00  0.00    +0.014 C 
ATOM     74  H   UNL     1       1.378   1.861  20.876  0.00  0.00    +0.035 HD
ATOM     75  H   UNL     1       0.009   2.801  20.367  0.00  0.00    +0.035 HD
BRANCH  73  76
ATOM     76  C   UNL     1       1.571   2.697  18.929  0.00  0.00    +0.134 A 
ATOM     77  N   UNL     1       1.033   3.297  17.885  0.00  0.00    -0.135 NA
ATOM     78  N   UNL     1       1.768   2.972  16.772  0.00  0.00    -0.138 NA
ATOM     79  C   UNL     1       2.737   2.175  17.155  0.00  0.00    +0.120 A 
ATOM     80  N   UNL     1       2.650   1.968  18.496  0.00  0.00    -0.320 N 
ATOM     81  H   UNL     1       3.495   1.742  16.516  0.00  0.00    +0.105 HD
BRANCH  80  82
ATOM     82  C   UNL     1       3.527   1.141  19.280  0.00  0.00    +0.014 C 
ATOM     83  H   UNL     1       3.002   0.219  19.539  0.00  0.00    +0.046 HD
ATOM     84  H   UNL     1       3.807   1.671  20.194  0.00  0.00    +0.046 HD
ATOM     85  H   UNL     1       4.421   0.927  18.688  0.00  0.00    +0.046 HD
ENDBRANCH  80  82
ENDBRANCH  73  76
ENDBRANCH  67  73
ENDBRANCH   1  67
TORSDOF 9
ENDMDL
MODEL 8
REMARK VINA RESULT:    -8.298      3.632     11.544
REMARK INTER + INTRA:          -8.985
REMARK INTER:                  -8.992
REMARK INTRA:                   0.008
REMARK UNBOUND:                 3.194
REMARK  Name = 
REMARK  9 active torsions:
REMARK  status: ('A' for Active; 'I' for Inactive)
REMARK    1  A    between atoms: C_1  and  C_2
REMARK    2  A    between atoms: C_2  and  C_3
REMARK    3  A    between atoms: C_2  and  C_10
REMARK    4  A    between atoms: C_3  and  C_4
REMARK    5  A    between atoms: N_8  and  C_9
REMARK    6  A    between atoms: N_16  and  C_17
REMARK    7  A    between atoms: C_24  and  N_26
REMARK    8  A    between atoms: C_31  and  C_38
REMARK    9  A    between atoms: C_33  and  C_34
REMARK                            x       y       z     vdW  Elec       q    Type
REMARK                         _______ _______ _______ _____ _____    ______ ____
ROOT
ATOM      1  C   UNL     1       1.427  12.334  18.670  0.00  0.00    -0.038 A 
ATOM      2  C   UNL     1       0.488  12.424  19.707  0.00  0.00    -0.018 A 
ATOM      3  C   UNL     1       0.095  11.283  20.389  0.00  0.00    +0.128 A 
ATOM      4  N   UNL     1      -0.813  11.279  21.450  0.00  0.00    -0.254 N 
ATOM      5  C   UNL     1      -1.548  12.319  21.950  0.00  0.00    +0.305 C 
ATOM      6  O   UNL     1      -1.589  13.458  21.505  0.00  0.00    -0.252 OA
ATOM      7  N   UNL     1      -2.246  11.943  23.080  0.00  0.00    -0.296 N 
ATOM      8  N   UNL     1       0.595  10.062  20.112  0.00  0.00    -0.217 NA
ATOM      9  C   UNL     1       1.529   9.956  19.136  0.00  0.00    +0.130 A 
ATOM     10  C   UNL     1       1.956  11.064  18.407  0.00  0.00    -0.018 A 
ATOM     11  H   UNL     1       0.087  13.390  19.985  0.00  0.00    +0.065 HD
ATOM     12  H   UNL     1      -0.926  10.365  21.854  0.00  0.00    +0.158 HD
ATOM     13  H   UNL     1      -2.389  10.954  23.227  0.00  0.00    +0.151 HD
ATOM     14  H   UNL     1       2.682  10.931  17.616  0.00  0.00    +0.065 HD
ENDROOT
BRANCH   7  15
ATOM     15  C   UNL     1      -3.173  12.849  23.744  0.00  0.00    +0.025 C 
ATOM     16  C   UNL     1      -4.107  13.498  22.722  0.00  0.00    -0.034 C 
ATOM     17  C   UNL     1      -5.145  14.400  23.392  0.00  0.00    -0.051 C 
ATOM     18  C   UNL     1      -4.645  15.075  24.670  0.00  0.00    -0.053 C 
ATOM     19  C   UNL     1      -3.132  15.247  24.663  0.00  0.00    -0.051 C 
ATOM     20  C   UNL     1      -2.407  13.904  24.562  0.00  0.00    -0.034 C 
ATOM     21  H   UNL     1      -3.785  12.253  24.434  0.00  0.00    +0.050 HD
ATOM     22  H   UNL     1      -4.622  12.731  22.127  0.00  0.00    +0.028 HD
ATOM     23  H   UNL     1      -3.519  14.092  22.007  0.00  0.00    +0.028 HD
ATOM     24  H   UNL     1      -6.042  13.817  23.636  0.00  0.00    +0.027 HD
ATOM     25  H   UNL     1      -5.466  15.160  22.669  0.00  0.00    +0.027 HD
ATOM     26  H   UNL     1      -5.139  16.046  24.790  0.00  0.00    +0.027 HD
ATOM     27  H   UNL     1      -4.935  14.466  25.538  0.00  0.00    +0.027 HD
ATOM     28  H   UNL     1      -2.844  15.876  23.812  0.00  0.00    +0.027 HD
ATOM     29  H   UNL     1      -2.805  15.774  25.566  0.00  0.00    +0.027 HD
ATOM     30  H   UNL     1      -1.408  14.079  24.147  0.00  0.00    +0.028 HD
ATOM     31  H   UNL     1      -2.241  13.503  25.570  0.00  0.00    +0.028 HD
ENDBRANCH   7  15
BRANCH   9  32
ATOM     32  N   UNL     1       2.050   8.669  18.904  0.00  0.00    -0.248 N 
ATOM     33  C   UNL     1       1.640   7.562  19.748  0.00  0.00    +0.048 C 
ATOM     34  C   UNL     1       2.386   6.403  19.168  0.00  0.00    -0.006 A 
ATOM     35  C   UNL     1       3.169   6.838  18.107  0.00  0.00    +0.043 A 
ATOM     36  C   UNL     1       3.979   5.985  17.378  0.00  0.00    -0.046 A 
ATOM     37  C   UNL     1       4.009   4.623  17.724  0.00  0.00    -0.043 A 
ATOM     38  C   UNL     1       3.206   4.182  18.801  0.00  0.00    -0.046 A 
ATOM     39  C   UNL     1       2.383   5.062  19.538  0.00  0.00    +0.060 A 
ATOM     40  C   UNL     1       2.977   8.287  17.945  0.00  0.00    +0.253 C 
ATOM     41  O   UNL     1       3.593   8.936  17.119  0.00  0.00    -0.270 OA
ATOM     42  H   UNL     1       0.558   7.417  19.671  0.00  0.00    +0.052 HD
ATOM     43  H   UNL     1       1.952   7.748  20.780  0.00  0.00    +0.052 HD
ATOM     44  H   UNL     1       4.569   6.385  16.556  0.00  0.00    +0.063 HD
ATOM     45  H   UNL     1       3.208   3.131  19.080  0.00  0.00    +0.063 HD
BRANCH  37  46
ATOM     46  C   UNL     1       4.905   3.687  16.918  0.00  0.00    -0.016 C 
ATOM     47  C   UNL     1       4.753   3.841  15.394  0.00  0.00    -0.046 C 
ATOM     48  C   UNL     1       5.667   4.883  14.750  0.00  0.00    -0.053 C 
ATOM     49  C   UNL     1       7.115   4.721  15.195  0.00  0.00    -0.053 C 
ATOM     50  C   UNL     1       7.248   4.752  16.712  0.00  0.00    -0.053 C 
ATOM     51  C   UNL     1       6.373   3.696  17.379  0.00  0.00    -0.046 C 
ATOM     52  H   UNL     1       4.539   2.673  17.139  0.00  0.00    +0.035 HD
ATOM     53  H   UNL     1       4.991   2.872  14.936  0.00  0.00    +0.027 HD
ATOM     54  H   UNL     1       3.711   4.052  15.124  0.00  0.00    +0.027 HD
ATOM     55  H   UNL     1       5.317   5.892  14.984  0.00  0.00    +0.027 HD
ATOM     56  H   UNL     1       5.608   4.786  13.658  0.00  0.00    +0.027 HD
ATOM     57  H   UNL     1       7.724   5.518  14.755  0.00  0.00    +0.027 HD
ATOM     58  H   UNL     1       7.510   3.772  14.814  0.00  0.00    +0.027 HD
ATOM     59  H   UNL     1       8.295   4.577  16.987  0.00  0.00    +0.027 HD
ATOM     60  H   UNL     1       6.999   5.750  17.089  0.00  0.00    +0.027 HD
ATOM     61  H   UNL     1       6.805   2.715  17.139  0.00  0.00    +0.027 HD
ATOM     62  H   UNL     1       6.435   3.801  18.470  0.00  0.00    +0.027 HD
ENDBRANCH  37  46
BRANCH  39  63
ATOM     63  C   UNL     1       1.529   4.576  20.677  0.00  0.00    +0.418 C 
ATOM     64  F   UNL     1       1.156   3.275  20.523  0.00  0.00    -0.166 F 
ATOM     65  F   UNL     1       2.175   4.637  21.874  0.00  0.00    -0.166 F 
ATOM     66  F   UNL     1       0.374   5.278  20.838  0.00  0.00    -0.166 F 
ENDBRANCH  39  63
ENDBRANCH   9  32
BRANCH   1  67
ATOM     67  C   UNL     1       1.891  13.600  17.945  0.00  0.00    -0.012 C 
ATOM     68  H   UNL     1       1.085  13.805  17.223  0.00  0.00    +0.035 HD
BRANCH  67  69
ATOM     69  C   UNL     1       3.170  13.382  17.114  0.00  0.00    -0.058 C 
ATOM     70  H   UNL     1       3.358  12.314  16.952  0.00  0.00    +0.024 HD
ATOM     71  H   UNL     1       3.101  13.872  16.137  0.00  0.00    +0.024 HD
ATOM     72  H   UNL     1       4.055  13.780  17.620  0.00  0.00    +0.024 HD
ENDBRANCH  67  69
BRANCH  67  73
ATOM     73  C   UNL     1       2.016  14.904  18.778  0.00  0.00    +0.014 C 
ATOM     74  H   UNL     1       2.398  15.685  18.108  0.00  0.00    +0.035 HD
ATOM     75  H   UNL     1       1.032  15.265  19.096  0.00  0.00    +0.035 HD
BRANCH  73  76
ATOM     76  C   UNL     1       2.910  14.791  19.971  0.00  0.00    +0.134 A 
ATOM     77  N   UNL     1       2.543  14.526  21.209  0.00  0.00    -0.135 NA
ATOM     78  N   UNL     1       3.667  14.497  21.998  0.00  0.00    -0.138 NA
ATOM     79  C   UNL     1       4.698  14.751  21.228  0.00  0.00    +0.120 A 
ATOM     80  N   UNL     1       4.273  14.950  19.952  0.00  0.00    -0.320 N 
ATOM     81  H   UNL     1       5.731  14.800  21.545  0.00  0.00    +0.105 HD
BRANCH  80  82
ATOM     82  C   UNL     1       5.109  15.267  18.825  0.00  0.00    +0.014 C 
ATOM     83  H   UNL     1       4.907  14.550  18.026  0.00  0.00    +0.046 HD
ATOM     84  H   UNL     1       6.159  15.200  19.119  0.00  0.00    +0.046 HD
ATOM     85  H   UNL     1       4.881  16.286  18.501  0.00  0.00    +0.046 HD
ENDBRANCH  80  82
ENDBRANCH  73  76
ENDBRANCH  67  73
ENDBRANCH   1  67
TORSDOF 9
ENDMDL
MODEL 9
REMARK VINA RESULT:    -7.287      4.746     11.092
REMARK INTER + INTRA:          -7.500
REMARK INTER:                  -6.802
REMARK INTRA:                  -0.698
REMARK UNBOUND:                 3.194
REMARK  Name = 
REMARK  9 active torsions:
REMARK  status: ('A' for Active; 'I' for Inactive)
REMARK    1  A    between atoms: C_1  and  C_2
REMARK    2  A    between atoms: C_2  and  C_3
REMARK    3  A    between atoms: C_2  and  C_10
REMARK    4  A    between atoms: C_3  and  C_4
REMARK    5  A    between atoms: N_8  and  C_9
REMARK    6  A    between atoms: N_16  and  C_17
REMARK    7  A    between atoms: C_24  and  N_26
REMARK    8  A    between atoms: C_31  and  C_38
REMARK    9  A    between atoms: C_33  and  C_34
REMARK                            x       y       z     vdW  Elec       q    Type
REMARK                         _______ _______ _______ _____ _____    ______ ____
ROOT
ATOM      1  C   UNL     1      -1.920  10.314  17.232  0.00  0.00    -0.038 A 
ATOM      2  C   UNL     1      -1.975  11.068  18.412  0.00  0.00    -0.018 A 
ATOM      3  C   UNL     1      -0.995  10.912  19.380  0.00  0.00    +0.128 A 
ATOM      4  N   UNL     1      -0.952  11.636  20.574  0.00  0.00    -0.254 N 
ATOM      5  C   UNL     1      -1.866  12.527  21.067  0.00  0.00    +0.305 C 
ATOM      6  O   UNL     1      -2.946  12.810  20.566  0.00  0.00    -0.252 OA
ATOM      7  N   UNL     1      -1.411  13.125  22.225  0.00  0.00    -0.296 N 
ATOM      8  N   UNL     1       0.043  10.064  19.235  0.00  0.00    -0.217 NA
ATOM      9  C   UNL     1       0.133   9.350  18.088  0.00  0.00    +0.130 A 
ATOM     10  C   UNL     1      -0.825   9.454  17.082  0.00  0.00    -0.018 A 
ATOM     11  H   UNL     1      -2.772  11.785  18.555  0.00  0.00    +0.065 HD
ATOM     12  H   UNL     1      -0.135  11.426  21.120  0.00  0.00    +0.158 HD
ATOM     13  H   UNL     1      -0.666  12.660  22.722  0.00  0.00    +0.151 HD
ATOM     14  H   UNL     1      -0.731   8.843  16.194  0.00  0.00    +0.065 HD
ENDROOT
BRANCH   7  15
ATOM     15  C   UNL     1      -2.242  14.044  22.989  0.00  0.00    +0.025 C 
ATOM     16  C   UNL     1      -1.759  14.120  24.438  0.00  0.00    -0.034 C 
ATOM     17  C   UNL     1      -2.563  15.133  25.254  0.00  0.00    -0.051 C 
ATOM     18  C   UNL     1      -4.021  15.267  24.812  0.00  0.00    -0.053 C 
ATOM     19  C   UNL     1      -4.531  13.991  24.155  0.00  0.00    -0.051 C 
ATOM     20  C   UNL     1      -3.724  13.632  22.906  0.00  0.00    -0.034 C 
ATOM     21  H   UNL     1      -2.135  15.041  22.542  0.00  0.00    +0.050 HD
ATOM     22  H   UNL     1      -0.694  14.385  24.476  0.00  0.00    +0.028 HD
ATOM     23  H   UNL     1      -1.843  13.129  24.909  0.00  0.00    +0.028 HD
ATOM     24  H   UNL     1      -2.090  16.121  25.189  0.00  0.00    +0.027 HD
ATOM     25  H   UNL     1      -2.518  14.845  26.311  0.00  0.00    +0.027 HD
ATOM     26  H   UNL     1      -4.644  15.527  25.676  0.00  0.00    +0.027 HD
ATOM     27  H   UNL     1      -4.108  16.099  24.100  0.00  0.00    +0.027 HD
ATOM     28  H   UNL     1      -4.468  13.165  24.873  0.00  0.00    +0.027 HD
ATOM     29  H   UNL     1      -5.589  14.095  23.891  0.00  0.00    +0.027 HD
ATOM     30  H   UNL     1      -3.826  12.556  22.724  0.00  0.00    +0.028 HD
ATOM     31  H   UNL     1      -4.169  14.123  22.031  0.00  0.00    +0.028 HD
ENDBRANCH   7  15
BRANCH   9  32
ATOM     32  N   UNL     1       1.252   8.504  17.962  0.00  0.00    -0.248 N 
ATOM     33  C   UNL     1       1.082   7.066  18.062  0.00  0.00    +0.048 C 
ATOM     34  C   UNL     1       2.471   6.549  17.856  0.00  0.00    -0.006 A 
ATOM     35  C   UNL     1       3.344   7.617  17.686  0.00  0.00    +0.043 A 
ATOM     36  C   UNL     1       4.702   7.445  17.482  0.00  0.00    -0.046 A 
ATOM     37  C   UNL     1       5.219   6.138  17.445  0.00  0.00    -0.043 A 
ATOM     38  C   UNL     1       4.327   5.054  17.612  0.00  0.00    -0.046 A 
ATOM     39  C   UNL     1       2.942   5.241  17.819  0.00  0.00    +0.060 A 
ATOM     40  C   UNL     1       2.578   8.868  17.773  0.00  0.00    +0.253 C 
ATOM     41  O   UNL     1       3.109   9.962  17.716  0.00  0.00    -0.270 OA
ATOM     42  H   UNL     1       0.408   6.716  17.274  0.00  0.00    +0.052 HD
ATOM     43  H   UNL     1       0.714   6.804  19.058  0.00  0.00    +0.052 HD
ATOM     44  H   UNL     1       5.335   8.320  17.355  0.00  0.00    +0.063 HD
ATOM     45  H   UNL     1       4.704   4.034  17.578  0.00  0.00    +0.063 HD
BRANCH  37  46
ATOM     46  C   UNL     1       6.718   5.955  17.222  0.00  0.00    -0.016 C 
ATOM     47  C   UNL     1       7.466   7.266  16.924  0.00  0.00    -0.046 C 
ATOM     48  C   UNL     1       7.983   8.014  18.152  0.00  0.00    -0.053 C 
ATOM     49  C   UNL     1       8.738   7.094  19.102  0.00  0.00    -0.053 C 
ATOM     50  C   UNL     1       7.897   5.894  19.517  0.00  0.00    -0.053 C 
ATOM     51  C   UNL     1       7.399   5.107  18.310  0.00  0.00    -0.046 C 
ATOM     52  H   UNL     1       6.803   5.362  16.298  0.00  0.00    +0.035 HD
ATOM     53  H   UNL     1       8.338   7.019  16.304  0.00  0.00    +0.027 HD
ATOM     54  H   UNL     1       6.850   7.940  16.318  0.00  0.00    +0.027 HD
ATOM     55  H   UNL     1       7.155   8.495  18.680  0.00  0.00    +0.027 HD
ATOM     56  H   UNL     1       8.646   8.826  17.826  0.00  0.00    +0.027 HD
ATOM     57  H   UNL     1       9.043   7.657  19.992  0.00  0.00    +0.027 HD
ATOM     58  H   UNL     1       9.658   6.745  18.617  0.00  0.00    +0.027 HD
ATOM     59  H   UNL     1       8.499   5.234  20.154  0.00  0.00    +0.027 HD
ATOM     60  H   UNL     1       7.055   6.224  20.134  0.00  0.00    +0.027 HD
ATOM     61  H   UNL     1       8.272   4.619  17.855  0.00  0.00    +0.027 HD
ATOM     62  H   UNL     1       6.735   4.300  18.645  0.00  0.00    +0.027 HD
ENDBRANCH  37  46
BRANCH  39  63
ATOM     63  C   UNL     1       2.005   4.076  17.988  0.00  0.00    +0.418 C 
ATOM     64  F   UNL     1       0.877   4.207  17.236  0.00  0.00    -0.166 F 
ATOM     65  F   UNL     1       2.569   2.897  17.609  0.00  0.00    -0.166 F 
ATOM     66  F   UNL     1       1.580   3.894  19.269  0.00  0.00    -0.166 F 
ENDBRANCH  39  63
ENDBRANCH   9  32
BRANCH   1  67
ATOM     67  C   UNL     1      -2.980  10.515  16.145  0.00  0.00    -0.012 C 
ATOM     68  H   UNL     1      -2.499  11.195  15.424  0.00  0.00    +0.035 HD
BRANCH  67  69
ATOM     69  C   UNL     1      -4.236  11.247  16.659  0.00  0.00    -0.058 C 
ATOM     70  H   UNL     1      -4.559  10.843  17.626  0.00  0.00    +0.024 HD
ATOM     71  H   UNL     1      -4.053  12.320  16.778  0.00  0.00    +0.024 HD
ATOM     72  H   UNL     1      -5.082  11.131  15.975  0.00  0.00    +0.024 HD
ENDBRANCH  67  69
BRANCH  67  73
ATOM     73  C   UNL     1      -3.396   9.278  15.305  0.00  0.00    +0.014 C 
ATOM     74  H   UNL     1      -2.518   8.622  15.230  0.00  0.00    +0.035 HD
ATOM     75  H   UNL     1      -4.148   8.679  15.829  0.00  0.00    +0.035 HD
BRANCH  73  76
ATOM     76  C   UNL     1      -3.891   9.603  13.932  0.00  0.00    +0.134 A 
ATOM     77  N   UNL     1      -5.109   9.986  13.603  0.00  0.00    -0.135 NA
ATOM     78  N   UNL     1      -5.147  10.197  12.247  0.00  0.00    -0.138 NA
ATOM     79  C   UNL     1      -3.953   9.932  11.771  0.00  0.00    +0.120 A 
ATOM     80  N   UNL     1      -3.135   9.548  12.787  0.00  0.00    -0.320 N 
ATOM     81  H   UNL     1      -3.651  10.002  10.735  0.00  0.00    +0.105 HD
BRANCH  80  82
ATOM     82  C   UNL     1      -1.755   9.164  12.660  0.00  0.00    +0.014 C 
ATOM     83  H   UNL     1      -1.224   9.454  13.569  0.00  0.00    +0.046 HD
ATOM     84  H   UNL     1      -1.313   9.674  11.800  0.00  0.00    +0.046 HD
ATOM     85  H   UNL     1      -1.710   8.082  12.510  0.00  0.00    +0.046 HD
ENDBRANCH  80  82
ENDBRANCH  73  76
ENDBRANCH  67  73
ENDBRANCH   1  67
TORSDOF 9
ENDMDL
MODEL 10
REMARK VINA RESULT:    -7.177      3.801     11.594
REMARK INTER + INTRA:          -7.340
REMARK INTER:                  -7.156
REMARK INTRA:                  -0.183
REMARK UNBOUND:                 3.194
REMARK  Name = 
REMARK  9 active torsions:
REMARK  status: ('A' for Active; 'I' for Inactive)
REMARK    1  A    between atoms: C_1  and  C_2
REMARK    2  A    between atoms: C_2  and  C_3
REMARK    3  A    between atoms: C_2  and  C_10
REMARK    4  A    between atoms: C_3  and  C_4
REMARK    5  A    between atoms: N_8  and  C_9
REMARK    6  A    between atoms: N_16  and  C_17
REMARK    7  A    between atoms: C_24  and  N_26
REMARK    8  A    between atoms: C_31  and  C_38
REMARK    9  A    between atoms: C_33  and  C_34
REMARK                            x       y       z     vdW  Elec       q    Type
REMARK                         _______ _______ _______ _____ _____    ______ ____
ROOT
ATOM      1  C   UNL     1       1.806  12.429  18.749  0.00  0.00    -0.038 A 
ATOM      2  C   UNL     1       0.693  12.499  19.598  0.00  0.00    -0.018 A 
ATOM      3  C   UNL     1       0.131  11.337  20.103  0.00  0.00    +0.128 A 
ATOM      4  N   UNL     1      -0.960  11.309  20.974  0.00  0.00    -0.254 N 
ATOM      5  C   UNL     1      -1.731  12.350  21.412  0.00  0.00    +0.305 C 
ATOM      6  O   UNL     1      -1.640  13.518  21.060  0.00  0.00    -0.252 OA
ATOM      7  N   UNL     1      -2.645  11.936  22.360  0.00  0.00    -0.296 N 
ATOM      8  N   UNL     1       0.622  10.111  19.826  0.00  0.00    -0.217 NA
ATOM      9  C   UNL     1       1.717  10.022  19.034  0.00  0.00    +0.130 A 
ATOM     10  C   UNL     1       2.321  11.153  18.488  0.00  0.00    -0.018 A 
ATOM     11  H   UNL     1       0.288  13.463  19.874  0.00  0.00    +0.065 HD
ATOM     12  H   UNL     1      -1.185  10.377  21.277  0.00  0.00    +0.158 HD
ATOM     13  H   UNL     1      -2.854  10.949  22.398  0.00  0.00    +0.151 HD
ATOM     14  H   UNL     1       3.177  11.035  17.836  0.00  0.00    +0.065 HD
ENDROOT
BRANCH   7  15
ATOM     15  C   UNL     1      -3.641  12.843  22.911  0.00  0.00    +0.025 C 
ATOM     16  C   UNL     1      -4.018  13.910  21.882  0.00  0.00    -0.034 C 
ATOM     17  C   UNL     1      -5.118  14.838  22.400  0.00  0.00    -0.051 C 
ATOM     18  C   UNL     1      -5.079  15.060  23.913  0.00  0.00    -0.053 C 
ATOM     19  C   UNL     1      -3.674  14.883  24.473  0.00  0.00    -0.051 C 
ATOM     20  C   UNL     1      -3.134  13.474  24.221  0.00  0.00    -0.034 C 
ATOM     21  H   UNL     1      -4.540  12.255  23.136  0.00  0.00    +0.050 HD
ATOM     22  H   UNL     1      -4.349  13.442  20.945  0.00  0.00    +0.028 HD
ATOM     23  H   UNL     1      -3.132  14.508  21.627  0.00  0.00    +0.028 HD
ATOM     24  H   UNL     1      -6.102  14.431  22.136  0.00  0.00    +0.027 HD
ATOM     25  H   UNL     1      -5.038  15.799  21.879  0.00  0.00    +0.027 HD
ATOM     26  H   UNL     1      -5.460  16.061  24.147  0.00  0.00    +0.027 HD
ATOM     27  H   UNL     1      -5.755  14.344  24.401  0.00  0.00    +0.027 HD
ATOM     28  H   UNL     1      -3.003  15.613  24.005  0.00  0.00    +0.027 HD
ATOM     29  H   UNL     1      -3.663  15.093  25.548  0.00  0.00    +0.027 HD
ATOM     30  H   UNL     1      -2.038  13.512  24.244  0.00  0.00    +0.028 HD
ATOM     31  H   UNL     1      -3.423  12.819  25.053  0.00  0.00    +0.028 HD
ENDBRANCH   7  15
BRANCH   9  32
ATOM     32  N   UNL     1       2.218   8.728  18.800  0.00  0.00    -0.248 N 
ATOM     33  C   UNL     1       1.784   7.625  19.638  0.00  0.00    +0.048 C 
ATOM     34  C   UNL     1       2.514   6.455  19.058  0.00  0.00    -0.006 A 
ATOM     35  C   UNL     1       3.311   6.881  18.004  0.00  0.00    +0.043 A 
ATOM     36  C   UNL     1       4.111   6.017  17.276  0.00  0.00    -0.046 A 
ATOM     37  C   UNL     1       4.116   4.653  17.617  0.00  0.00    -0.043 A 
ATOM     38  C   UNL     1       3.299   4.222  18.687  0.00  0.00    -0.046 A 
ATOM     39  C   UNL     1       2.486   5.113  19.423  0.00  0.00    +0.060 A 
ATOM     40  C   UNL     1       3.145   8.333  17.845  0.00  0.00    +0.253 C 
ATOM     41  O   UNL     1       3.776   8.975  17.027  0.00  0.00    -0.270 OA
ATOM     42  H   UNL     1       0.700   7.498  19.553  0.00  0.00    +0.052 HD
ATOM     43  H   UNL     1       2.093   7.801  20.672  0.00  0.00    +0.052 HD
ATOM     44  H   UNL     1       4.713   6.409  16.459  0.00  0.00    +0.063 HD
ATOM     45  H   UNL     1       3.281   3.170  18.963  0.00  0.00    +0.063 HD
BRANCH  37  46
ATOM     46  C   UNL     1       5.001   3.705  16.813  0.00  0.00    -0.016 C 
ATOM     47  C   UNL     1       4.558   3.533  15.349  0.00  0.00    -0.046 C 
ATOM     48  C   UNL     1       5.153   4.540  14.366  0.00  0.00    -0.053 C 
ATOM     49  C   UNL     1       6.662   4.665  14.524  0.00  0.00    -0.053 C 
ATOM     50  C   UNL     1       7.055   5.013  15.954  0.00  0.00    -0.053 C 
ATOM     51  C   UNL     1       6.504   4.002  16.954  0.00  0.00    -0.046 C 
ATOM     52  H   UNL     1       4.857   2.715  17.272  0.00  0.00    +0.035 HD
ATOM     53  H   UNL     1       4.872   2.533  15.021  0.00  0.00    +0.027 HD
ATOM     54  H   UNL     1       3.464   3.544  15.267  0.00  0.00    +0.027 HD
ATOM     55  H   UNL     1       4.683   5.519  14.493  0.00  0.00    +0.027 HD
ATOM     56  H   UNL     1       4.918   4.223  13.341  0.00  0.00    +0.027 HD
ATOM     57  H   UNL     1       7.039   5.434  13.840  0.00  0.00    +0.027 HD
ATOM     58  H   UNL     1       7.139   3.721  14.234  0.00  0.00    +0.027 HD
ATOM     59  H   UNL     1       8.148   5.038  16.033  0.00  0.00    +0.027 HD
ATOM     60  H   UNL     1       6.710   6.023  16.201  0.00  0.00    +0.027 HD
ATOM     61  H   UNL     1       7.047   3.060  16.798  0.00  0.00    +0.027 HD
ATOM     62  H   UNL     1       6.740   4.328  17.976  0.00  0.00    +0.027 HD
ENDBRANCH  37  46
BRANCH  39  63
ATOM     63  C   UNL     1       1.617   4.637  20.555  0.00  0.00    +0.418 C 
ATOM     64  F   UNL     1       0.398   5.245  20.561  0.00  0.00    -0.166 F 
ATOM     65  F   UNL     1       1.363   3.301  20.488  0.00  0.00    -0.166 F 
ATOM     66  F   UNL     1       2.150   4.857  21.788  0.00  0.00    -0.166 F 
ENDBRANCH  39  63
ENDBRANCH   9  32
BRANCH   1  67
ATOM     67  C   UNL     1       2.451  13.714  18.225  0.00  0.00    -0.012 C 
ATOM     68  H   UNL     1       1.804  14.517  18.613  0.00  0.00    +0.035 HD
BRANCH  67  69
ATOM     69  C   UNL     1       2.406  13.826  16.689  0.00  0.00    -0.058 C 
ATOM     70  H   UNL     1       1.529  13.307  16.282  0.00  0.00    +0.024 HD
ATOM     71  H   UNL     1       2.367  14.872  16.364  0.00  0.00    +0.024 HD
ATOM     72  H   UNL     1       3.283  13.369  16.222  0.00  0.00    +0.024 HD
ENDBRANCH  67  69
BRANCH  67  73
ATOM     73  C   UNL     1       3.872  14.071  18.739  0.00  0.00    +0.014 C 
ATOM     74  H   UNL     1       4.488  13.167  18.655  0.00  0.00    +0.035 HD
ATOM     75  H   UNL     1       4.357  14.802  18.084  0.00  0.00    +0.035 HD
BRANCH  73  76
ATOM     76  C   UNL     1       3.911  14.568  20.149  0.00  0.00    +0.134 A 
ATOM     77  N   UNL     1       2.875  14.815  20.927  0.00  0.00    -0.135 NA
ATOM     78  N   UNL     1       3.340  15.240  22.147  0.00  0.00    -0.138 NA
ATOM     79  C   UNL     1       4.651  15.252  22.089  0.00  0.00    +0.120 A 
ATOM     80  N   UNL     1       5.054  14.847  20.856  0.00  0.00    -0.320 N 
ATOM     81  H   UNL     1       5.320  15.538  22.889  0.00  0.00    +0.105 HD
BRANCH  80  82
ATOM     82  C   UNL     1       6.416  14.743  20.406  0.00  0.00    +0.014 C 
ATOM     83  H   UNL     1       6.435  14.177  19.472  0.00  0.00    +0.046 HD
ATOM     84  H   UNL     1       7.011  14.222  21.160  0.00  0.00    +0.046 HD
ATOM     85  H   UNL     1       6.809  15.752  20.258  0.00  0.00    +0.046 HD
ENDBRANCH  80  82
ENDBRANCH  73  76
ENDBRANCH  67  73
ENDBRANCH   1  67
TORSDOF 9
ENDMDL
MODEL 11
REMARK VINA RESULT:    -7.012      3.723     11.203
REMARK INTER + INTRA:          -7.097
REMARK INTER:                  -6.360
REMARK INTRA:                  -0.737
REMARK UNBOUND:                 3.194
REMARK  Name = 
REMARK  9 active torsions:
REMARK  status: ('A' for Active; 'I' for Inactive)
REMARK    1  A    between atoms: C_1  and  C_2
REMARK    2  A    between atoms: C_2  and  C_3
REMARK    3  A    between atoms: C_2  and  C_10
REMARK    4  A    between atoms: C_3  and  C_4
REMARK    5  A    between atoms: N_8  and  C_9
REMARK    6  A    between atoms: N_16  and  C_17
REMARK    7  A    between atoms: C_24  and  N_26
REMARK    8  A    between atoms: C_31  and  C_38
REMARK    9  A    between atoms: C_33  and  C_34
REMARK                            x       y       z     vdW  Elec       q    Type
REMARK                         _______ _______ _______ _____ _____    ______ ____
ROOT
ATOM      1  C   UNL     1      -0.620  10.693  17.893  0.00  0.00    -0.038 A 
ATOM      2  C   UNL     1      -0.923  11.118  19.193  0.00  0.00    -0.018 A 
ATOM      3  C   UNL     1      -0.381  10.456  20.284  0.00  0.00    +0.128 A 
ATOM      4  N   UNL     1      -0.605  10.822  21.613  0.00  0.00    -0.254 N 
ATOM      5  C   UNL     1      -1.439  11.790  22.104  0.00  0.00    +0.305 C 
ATOM      6  O   UNL     1      -2.206  12.485  21.453  0.00  0.00    -0.252 OA
ATOM      7  N   UNL     1      -1.296  11.930  23.470  0.00  0.00    -0.296 N 
ATOM      8  N   UNL     1       0.458   9.408  20.155  0.00  0.00    -0.217 NA
ATOM      9  C   UNL     1       0.791   9.001  18.907  0.00  0.00    +0.130 A 
ATOM     10  C   UNL     1       0.270   9.618  17.772  0.00  0.00    -0.018 A 
ATOM     11  H   UNL     1      -1.564  11.977  19.342  0.00  0.00    +0.065 HD
ATOM     12  H   UNL     1      -0.080  10.260  22.260  0.00  0.00    +0.158 HD
ATOM     13  H   UNL     1      -0.871  11.163  23.971  0.00  0.00    +0.151 HD
ATOM     14  H   UNL     1       0.539   9.243  16.793  0.00  0.00    +0.065 HD
ENDROOT
BRANCH   7  15
ATOM     15  C   UNL     1      -2.141  12.833  24.239  0.00  0.00    +0.025 C 
ATOM     16  C   UNL     1      -3.617  12.543  23.967  0.00  0.00    -0.034 C 
ATOM     17  C   UNL     1      -4.537  13.423  24.815  0.00  0.00    -0.051 C 
ATOM     18  C   UNL     1      -3.960  14.807  25.119  0.00  0.00    -0.053 C 
ATOM     19  C   UNL     1      -2.975  15.255  24.049  0.00  0.00    -0.051 C 
ATOM     20  C   UNL     1      -1.786  14.300  23.933  0.00  0.00    -0.034 C 
ATOM     21  H   UNL     1      -1.947  12.645  25.303  0.00  0.00    +0.050 HD
ATOM     22  H   UNL     1      -3.845  11.486  24.162  0.00  0.00    +0.028 HD
ATOM     23  H   UNL     1      -3.838  12.710  22.903  0.00  0.00    +0.028 HD
ATOM     24  H   UNL     1      -4.755  12.923  25.767  0.00  0.00    +0.027 HD
ATOM     25  H   UNL     1      -5.498  13.524  24.299  0.00  0.00    +0.027 HD
ATOM     26  H   UNL     1      -4.778  15.532  25.214  0.00  0.00    +0.027 HD
ATOM     27  H   UNL     1      -3.450  14.781  26.092  0.00  0.00    +0.027 HD
ATOM     28  H   UNL     1      -3.489  15.306  23.082  0.00  0.00    +0.027 HD
ATOM     29  H   UNL     1      -2.613  16.267  24.263  0.00  0.00    +0.027 HD
ATOM     30  H   UNL     1      -1.354  14.402  22.931  0.00  0.00    +0.028 HD
ATOM     31  H   UNL     1      -0.997  14.615  24.628  0.00  0.00    +0.028 HD
ENDBRANCH   7  15
BRANCH   9  32
ATOM     32  N   UNL     1       1.697   7.928  18.818  0.00  0.00    -0.248 N 
ATOM     33  C   UNL     1       1.581   6.809  19.737  0.00  0.00    +0.048 C 
ATOM     34  C   UNL     1       2.688   5.902  19.302  0.00  0.00    -0.006 A 
ATOM     35  C   UNL     1       3.380   6.485  18.248  0.00  0.00    +0.043 A 
ATOM     36  C   UNL     1       4.465   5.877  17.641  0.00  0.00    -0.046 A 
ATOM     37  C   UNL     1       4.884   4.619  18.109  0.00  0.00    -0.043 A 
ATOM     38  C   UNL     1       4.174   4.027  19.178  0.00  0.00    -0.046 A 
ATOM     39  C   UNL     1       3.067   4.656  19.790  0.00  0.00    +0.060 A 
ATOM     40  C   UNL     1       2.767   7.787  17.946  0.00  0.00    +0.253 C 
ATOM     41  O   UNL     1       3.216   8.536  17.099  0.00  0.00    -0.270 OA
ATOM     42  H   UNL     1       0.604   6.330  19.617  0.00  0.00    +0.052 HD
ATOM     43  H   UNL     1       1.741   7.154  20.762  0.00  0.00    +0.052 HD
ATOM     44  H   UNL     1       4.966   6.383  16.818  0.00  0.00    +0.063 HD
ATOM     45  H   UNL     1       4.475   3.050  19.551  0.00  0.00    +0.063 HD
BRANCH  37  46
ATOM     46  C   UNL     1       6.082   3.955  17.437  0.00  0.00    -0.016 C 
ATOM     47  C   UNL     1       5.746   3.279  16.095  0.00  0.00    -0.046 C 
ATOM     48  C   UNL     1       5.859   4.180  14.866  0.00  0.00    -0.053 C 
ATOM     49  C   UNL     1       7.177   4.943  14.840  0.00  0.00    -0.053 C 
ATOM     50  C   UNL     1       7.393   5.745  16.117  0.00  0.00    -0.053 C 
ATOM     51  C   UNL     1       7.321   4.863  17.358  0.00  0.00    -0.046 C 
ATOM     52  H   UNL     1       6.369   3.131  18.107  0.00  0.00    +0.035 HD
ATOM     53  H   UNL     1       6.450   2.448  15.956  0.00  0.00    +0.027 HD
ATOM     54  H   UNL     1       4.749   2.824  16.125  0.00  0.00    +0.027 HD
ATOM     55  H   UNL     1       5.022   4.882  14.832  0.00  0.00    +0.027 HD
ATOM     56  H   UNL     1       5.776   3.564  13.961  0.00  0.00    +0.027 HD
ATOM     57  H   UNL     1       7.194   5.615  13.975  0.00  0.00    +0.027 HD
ATOM     58  H   UNL     1       8.005   4.236  14.709  0.00  0.00    +0.027 HD
ATOM     59  H   UNL     1       8.375   6.231  16.077  0.00  0.00    +0.027 HD
ATOM     60  H   UNL     1       6.657   6.554  16.178  0.00  0.00    +0.027 HD
ATOM     61  H   UNL     1       8.210   4.216  17.351  0.00  0.00    +0.027 HD
ATOM     62  H   UNL     1       7.403   5.486  18.259  0.00  0.00    +0.027 HD
ENDBRANCH  37  46
BRANCH  39  63
ATOM     63  C   UNL     1       2.318   4.008  20.922  0.00  0.00    +0.418 C 
ATOM     64  F   UNL     1       2.481   4.676  22.098  0.00  0.00    -0.166 F 
ATOM     65  F   UNL     1       0.975   3.969  20.702  0.00  0.00    -0.166 F 
ATOM     66  F   UNL     1       2.696   2.724  21.168  0.00  0.00    -0.166 F 
ENDBRANCH  39  63
ENDBRANCH   9  32
BRANCH   1  67
ATOM     67  C   UNL     1      -1.187  11.449  16.689  0.00  0.00    -0.012 C 
ATOM     68  H   UNL     1      -0.448  11.275  15.890  0.00  0.00    +0.035 HD
BRANCH  67  69
ATOM     69  C   UNL     1      -1.238  12.974  16.906  0.00  0.00    -0.058 C 
ATOM     70  H   UNL     1      -0.253  13.365  17.186  0.00  0.00    +0.024 HD
ATOM     71  H   UNL     1      -1.571  13.496  16.003  0.00  0.00    +0.024 HD
ATOM     72  H   UNL     1      -1.922  13.246  17.715  0.00  0.00    +0.024 HD
ENDBRANCH  67  69
BRANCH  67  73
ATOM     73  C   UNL     1      -2.533  10.954  16.094  0.00  0.00    +0.014 C 
ATOM     74  H   UNL     1      -3.014  11.815  15.612  0.00  0.00    +0.035 HD
ATOM     75  H   UNL     1      -2.366  10.237  15.283  0.00  0.00    +0.035 HD
BRANCH  73  76
ATOM     76  C   UNL     1      -3.469  10.359  17.097  0.00  0.00    +0.134 A 
ATOM     77  N   UNL     1      -3.364   9.175  17.668  0.00  0.00    -0.135 NA
ATOM     78  N   UNL     1      -4.416   9.017  18.536  0.00  0.00    -0.138 NA
ATOM     79  C   UNL     1      -5.147  10.105  18.475  0.00  0.00    +0.120 A 
ATOM     80  N   UNL     1      -4.598  10.970  17.582  0.00  0.00    -0.320 N 
ATOM     81  H   UNL     1      -6.049  10.298  19.040  0.00  0.00    +0.105 HD
BRANCH  80  82
ATOM     82  C   UNL     1      -5.120  12.264  17.231  0.00  0.00    +0.014 C 
ATOM     83  H   UNL     1      -4.895  12.461  16.181  0.00  0.00    +0.046 HD
ATOM     84  H   UNL     1      -4.650  13.028  17.855  0.00  0.00    +0.046 HD
ATOM     85  H   UNL     1      -6.200  12.260  17.404  0.00  0.00    +0.046 HD
ENDBRANCH  80  82
ENDBRANCH  73  76
ENDBRANCH  67  73
ENDBRANCH   1  67
TORSDOF 9
ENDMDL
