MODEL 1
REMARK VINA RESULT:   -10.241      0.000      0.000
REMARK INTER + INTRA:         -14.422
REMARK INTER:                 -13.502
REMARK INTRA:                  -0.920
REMARK UNBOUND:                 0.009
REMARK  Name = 
REMARK  8 active torsions:
REMARK  status: ('A' for Active; 'I' for Inactive)
REMARK    1  A    between atoms: C_1  and  C_2
REMARK    2  A    between atoms: N_5  and  S_6
REMARK    3  A    between atoms: S_6  and  C_9
REMARK    4  A    between atoms: C_12  and  N_13
REMARK    5  A    between atoms: C_14  and  C_16
REMARK    6  A    between atoms: C_16  and  C_17
REMARK    7  A    between atoms: C_17  and  N_18
REMARK    8  A    between atoms: C_32  and  C_33
REMARK                            x       y       z     vdW  Elec       q    Type
REMARK                         _______ _______ _______ _____ _____    ______ ____
ROOT
ATOM      1  C   UNL     1       2.672   4.847  18.925  0.00  0.00    +0.109 A 
ATOM      2  C   UNL     1       2.277   4.898  20.262  0.00  0.00    -0.033 A 
ATOM      3  C   UNL     1       1.887   6.118  20.823  0.00  0.00    -0.039 A 
ATOM      4  C   UNL     1       1.910   7.292  20.062  0.00  0.00    +0.033 A 
ATOM      5  C   UNL     1       2.342   7.229  18.729  0.00  0.00    -0.039 A 
ATOM      6  C   UNL     1       2.724   6.011  18.156  0.00  0.00    -0.033 A 
ATOM      7  H   UNL     1       2.255   4.000  20.876  0.00  0.00    +0.064 HD
ATOM      8  H   UNL     1       1.572   6.116  21.863  0.00  0.00    +0.064 HD
ATOM      9  H   UNL     1       2.382   8.125  18.114  0.00  0.00    +0.064 HD
ATOM     10  H   UNL     1       3.056   5.985  17.121  0.00  0.00    +0.064 HD
ENDROOT
BRANCH   4  11
ATOM     11  N   UNL     1       1.524   8.557  20.550  0.00  0.00    -0.285 N 
ATOM     12  C   UNL     1       0.366   8.877  21.236  0.00  0.00    +0.219 C 
ATOM     13  O   UNL     1      -0.543   8.107  21.530  0.00  0.00    -0.275 OA
ATOM     14  H   UNL     1       2.196   9.305  20.413  0.00  0.00    +0.155 HD
BRANCH  12  15
ATOM     15  C   UNL     1       0.282  10.349  21.590  0.00  0.00    +0.041 C 
ATOM     16  H   UNL     1       1.128  10.575  22.250  0.00  0.00    +0.037 HD
ATOM     17  H   UNL     1      -0.625  10.569  22.161  0.00  0.00    +0.037 HD
BRANCH  15  18
ATOM     18  C   UNL     1       0.362  11.218  20.340  0.00  0.00    +0.031 C 
ATOM     19  H   UNL     1       0.360  12.272  20.641  0.00  0.00    +0.047 HD
ATOM     20  H   UNL     1       1.305  11.038  19.810  0.00  0.00    +0.047 HD
BRANCH  18  21
ATOM     21  N   UNL     1      -0.740  11.048  19.404  0.00  0.00    -0.234 N 
ATOM     22  C   UNL     1      -1.941  11.704  19.463  0.00  0.00    +0.254 C 
ATOM     23  O   UNL     1      -2.353  12.485  20.303  0.00  0.00    -0.270 OA
ATOM     24  C   UNL     1      -2.696  11.308  18.278  0.00  0.00    +0.049 A 
ATOM     25  C   UNL     1      -3.974  11.642  17.874  0.00  0.00    -0.049 A 
ATOM     26  C   UNL     1      -4.423  11.101  16.664  0.00  0.00    -0.061 A 
ATOM     27  C   UNL     1      -3.595  10.255  15.897  0.00  0.00    -0.061 A 
ATOM     28  C   UNL     1      -2.304   9.934  16.328  0.00  0.00    -0.049 A 
ATOM     29  C   UNL     1      -1.886  10.476  17.527  0.00  0.00    +0.049 A 
ATOM     30  C   UNL     1      -0.614  10.344  18.234  0.00  0.00    +0.254 C 
ATOM     31  O   UNL     1       0.347   9.741  17.795  0.00  0.00    -0.270 OA
ATOM     32  H   UNL     1      -4.601  12.292  18.474  0.00  0.00    +0.063 HD
ATOM     33  H   UNL     1      -5.425  11.335  16.309  0.00  0.00    +0.062 HD
ATOM     34  H   UNL     1      -3.967   9.846  14.960  0.00  0.00    +0.062 HD
ATOM     35  H   UNL     1      -1.654   9.282  15.749  0.00  0.00    +0.063 HD
ENDBRANCH  18  21
ENDBRANCH  15  18
ENDBRANCH  12  15
ENDBRANCH   4  11
BRANCH   1  36
ATOM     36  S   UNL     1       3.147   3.294  18.196  0.00  0.00    +0.073 S 
ATOM     37  O   UNL     1       2.798   3.328  16.791  0.00  0.00    -0.150 OA
ATOM     38  O   UNL     1       2.652   2.243  19.061  0.00  0.00    -0.150 OA
BRANCH  36  42
ATOM     39  C   UNL     1       6.316   4.451  15.229  0.00  0.00    +0.044 A 
ATOM     40  C   UNL     1       5.643   3.594  16.068  0.00  0.00    +0.001 A 
ATOM     41  C   UNL     1       5.537   4.016  17.371  0.00  0.00    +0.141 A 
ATOM     42  N   UNL     1       4.829   3.287  18.348  0.00  0.00    -0.199 N 
ATOM     43  N   UNL     1       6.028   5.161  17.854  0.00  0.00    -0.216 NA
ATOM     44  C   UNL     1       6.647   5.943  16.954  0.00  0.00    +0.128 A 
ATOM     45  N   UNL     1       6.820   5.628  15.656  0.00  0.00    -0.237 NA
ATOM     46  H   UNL     1       5.223   2.658  15.730  0.00  0.00    +0.067 HD
ATOM     47  H   UNL     1       5.104   3.568  19.286  0.00  0.00    +0.175 HD
BRANCH  39  48
ATOM     48  C   UNL     1       6.495   4.106  13.781  0.00  0.00    -0.022 C 
ATOM     49  H   UNL     1       6.974   4.936  13.251  0.00  0.00    +0.029 HD
ATOM     50  H   UNL     1       7.126   3.217  13.668  0.00  0.00    +0.029 HD
ATOM     51  H   UNL     1       5.525   3.893  13.320  0.00  0.00    +0.029 HD
ENDBRANCH  39  48
BRANCH  44  52
ATOM     52  C   UNL     1       7.206   7.247  17.429  0.00  0.00    -0.005 C 
ATOM     53  H   UNL     1       6.718   8.073  16.906  0.00  0.00    +0.031 HD
ATOM     54  H   UNL     1       8.284   7.300  17.238  0.00  0.00    +0.031 HD
ATOM     55  H   UNL     1       7.044   7.361  18.505  0.00  0.00    +0.031 HD
ENDBRANCH  44  52
ENDBRANCH  36  42
ENDBRANCH   1  36
TORSDOF 8
ENDMDL
MODEL 2
REMARK VINA RESULT:   -10.199      0.124      1.504
REMARK INTER + INTRA:         -14.364
REMARK INTER:                 -13.518
REMARK INTRA:                  -0.845
REMARK UNBOUND:                 0.009
REMARK  Name = 
REMARK  8 active torsions:
REMARK  status: ('A' for Active; 'I' for Inactive)
REMARK    1  A    between atoms: C_1  and  C_2
REMARK    2  A    between atoms: N_5  and  S_6
REMARK    3  A    between atoms: S_6  and  C_9
REMARK    4  A    between atoms: C_12  and  N_13
REMARK    5  A    between atoms: C_14  and  C_16
REMARK    6  A    between atoms: C_16  and  C_17
REMARK    7  A    between atoms: C_17  and  N_18
REMARK    8  A    between atoms: C_32  and  C_33
REMARK                            x       y       z     vdW  Elec       q    Type
REMARK                         _______ _______ _______ _____ _____    ______ ____
ROOT
ATOM      1  C   UNL     1       2.675   4.856  18.940  0.00  0.00    +0.109 A 
ATOM      2  C   UNL     1       2.258   4.895  20.270  0.00  0.00    -0.033 A 
ATOM      3  C   UNL     1       1.870   6.112  20.841  0.00  0.00    -0.039 A 
ATOM      4  C   UNL     1       1.918   7.294  20.095  0.00  0.00    +0.033 A 
ATOM      5  C   UNL     1       2.372   7.244  18.768  0.00  0.00    -0.039 A 
ATOM      6  C   UNL     1       2.752   6.030  18.187  0.00  0.00    -0.033 A 
ATOM      7  H   UNL     1       2.216   3.989  20.873  0.00  0.00    +0.064 HD
ATOM      8  H   UNL     1       1.538   6.099  21.875  0.00  0.00    +0.064 HD
ATOM      9  H   UNL     1       2.432   8.148  18.166  0.00  0.00    +0.064 HD
ATOM     10  H   UNL     1       3.101   6.013  17.157  0.00  0.00    +0.064 HD
ENDROOT
BRANCH   4  11
ATOM     11  N   UNL     1       1.537   8.558  20.593  0.00  0.00    -0.285 N 
ATOM     12  C   UNL     1       0.372   8.879  21.267  0.00  0.00    +0.219 C 
ATOM     13  O   UNL     1      -0.547   8.114  21.540  0.00  0.00    -0.275 OA
ATOM     14  H   UNL     1       2.216   9.301  20.473  0.00  0.00    +0.155 HD
BRANCH  12  15
ATOM     15  C   UNL     1       0.296  10.348  21.637  0.00  0.00    +0.041 C 
ATOM     16  H   UNL     1       1.086  10.541  22.373  0.00  0.00    +0.037 HD
ATOM     17  H   UNL     1      -0.651  10.585  22.129  0.00  0.00    +0.037 HD
BRANCH  15  18
ATOM     18  C   UNL     1       0.510  11.232  20.414  0.00  0.00    +0.031 C 
ATOM     19  H   UNL     1       0.553  12.279  20.737  0.00  0.00    +0.047 HD
ATOM     20  H   UNL     1       1.473  11.003  19.941  0.00  0.00    +0.047 HD
BRANCH  18  21
ATOM     21  N   UNL     1      -0.538  11.148  19.407  0.00  0.00    -0.234 N 
ATOM     22  C   UNL     1      -0.492  10.378  18.275  0.00  0.00    +0.254 C 
ATOM     23  O   UNL     1       0.414   9.681  17.852  0.00  0.00    -0.270 OA
ATOM     24  C   UNL     1      -1.787  10.520  17.616  0.00  0.00    +0.049 A 
ATOM     25  C   UNL     1      -2.252   9.995  16.426  0.00  0.00    -0.049 A 
ATOM     26  C   UNL     1      -3.565  10.309  16.059  0.00  0.00    -0.061 A 
ATOM     27  C   UNL     1      -4.370  11.126  16.879  0.00  0.00    -0.061 A 
ATOM     28  C   UNL     1      -3.876  11.645  18.080  0.00  0.00    -0.049 A 
ATOM     29  C   UNL     1      -2.576  11.324  18.418  0.00  0.00    +0.049 A 
ATOM     30  C   UNL     1      -1.783  11.692  19.589  0.00  0.00    +0.254 C 
ATOM     31  O   UNL     1      -2.217  12.330  20.529  0.00  0.00    -0.270 OA
ATOM     32  H   UNL     1      -1.622   9.369  15.804  0.00  0.00    +0.063 HD
ATOM     33  H   UNL     1      -3.972   9.920  15.127  0.00  0.00    +0.062 HD
ATOM     34  H   UNL     1      -5.388  11.357  16.572  0.00  0.00    +0.062 HD
ATOM     35  H   UNL     1      -4.484  12.277  18.723  0.00  0.00    +0.063 HD
ENDBRANCH  18  21
ENDBRANCH  15  18
ENDBRANCH  12  15
ENDBRANCH   4  11
BRANCH   1  36
ATOM     36  S   UNL     1       3.147   3.308  18.199  0.00  0.00    +0.073 S 
ATOM     37  O   UNL     1       2.819   3.362  16.790  0.00  0.00    -0.150 OA
ATOM     38  O   UNL     1       2.629   2.251  19.044  0.00  0.00    -0.150 OA
BRANCH  36  42
ATOM     39  C   UNL     1       6.371   4.468  15.293  0.00  0.00    +0.044 A 
ATOM     40  C   UNL     1       5.677   3.609  16.113  0.00  0.00    +0.001 A 
ATOM     41  C   UNL     1       5.556   4.017  17.419  0.00  0.00    +0.141 A 
ATOM     42  N   UNL     1       4.826   3.284  18.376  0.00  0.00    -0.199 N 
ATOM     43  N   UNL     1       6.050   5.152  17.922  0.00  0.00    -0.216 NA
ATOM     44  C   UNL     1       6.690   5.938  17.040  0.00  0.00    +0.128 A 
ATOM     45  N   UNL     1       6.879   5.635  15.741  0.00  0.00    -0.237 NA
ATOM     46  H   UNL     1       5.255   2.680  15.757  0.00  0.00    +0.067 HD
ATOM     47  H   UNL     1       5.090   3.552  19.322  0.00  0.00    +0.175 HD
BRANCH  39  48
ATOM     48  C   UNL     1       6.569   4.138  13.845  0.00  0.00    -0.022 C 
ATOM     49  H   UNL     1       6.490   5.044  13.236  0.00  0.00    +0.029 HD
ATOM     50  H   UNL     1       7.559   3.698  13.678  0.00  0.00    +0.029 HD
ATOM     51  H   UNL     1       5.817   3.413  13.516  0.00  0.00    +0.029 HD
ENDBRANCH  39  48
BRANCH  44  52
ATOM     52  C   UNL     1       7.254   7.231  17.538  0.00  0.00    -0.005 C 
ATOM     53  H   UNL     1       6.471   7.994  17.558  0.00  0.00    +0.031 HD
ATOM     54  H   UNL     1       8.064   7.578  16.887  0.00  0.00    +0.031 HD
ATOM     55  H   UNL     1       7.656   7.107  18.548  0.00  0.00    +0.031 HD
ENDBRANCH  44  52
ENDBRANCH  36  42
ENDBRANCH   1  36
TORSDOF 8
ENDMDL
MODEL 3
REMARK VINA RESULT:    -9.253      2.411      3.526
REMARK INTER + INTRA:         -13.030
REMARK INTER:                 -12.003
REMARK INTRA:                  -1.027
REMARK UNBOUND:                 0.009
REMARK  Name = 
REMARK  8 active torsions:
REMARK  status: ('A' for Active; 'I' for Inactive)
REMARK    1  A    between atoms: C_1  and  C_2
REMARK    2  A    between atoms: N_5  and  S_6
REMARK    3  A    between atoms: S_6  and  C_9
REMARK    4  A    between atoms: C_12  and  N_13
REMARK    5  A    between atoms: C_14  and  C_16
REMARK    6  A    between atoms: C_16  and  C_17
REMARK    7  A    between atoms: C_17  and  N_18
REMARK    8  A    between atoms: C_32  and  C_33
REMARK                            x       y       z     vdW  Elec       q    Type
REMARK                         _______ _______ _______ _____ _____    ______ ____
ROOT
ATOM      1  C   UNL     1       2.713   4.752  18.936  0.00  0.00    +0.109 A 
ATOM      2  C   UNL     1       2.718   5.975  18.265  0.00  0.00    -0.033 A 
ATOM      3  C   UNL     1       2.361   7.142  18.948  0.00  0.00    -0.039 A 
ATOM      4  C   UNL     1       1.977   7.091  20.292  0.00  0.00    +0.033 A 
ATOM      5  C   UNL     1       1.946   5.849  20.943  0.00  0.00    -0.039 A 
ATOM      6  C   UNL     1       2.311   4.679  20.271  0.00  0.00    -0.033 A 
ATOM      7  H   UNL     1       3.008   6.041  17.218  0.00  0.00    +0.064 HD
ATOM      8  H   UNL     1       2.390   8.078  18.395  0.00  0.00    +0.064 HD
ATOM      9  H   UNL     1       1.641   5.774  21.985  0.00  0.00    +0.064 HD
ATOM     10  H   UNL     1       2.279   3.726  20.794  0.00  0.00    +0.064 HD
ENDROOT
BRANCH   4  11
ATOM     11  N   UNL     1       1.612   8.221  21.053  0.00  0.00    -0.285 N 
ATOM     12  C   UNL     1       0.365   8.518  21.574  0.00  0.00    +0.219 C 
ATOM     13  O   UNL     1      -0.655   7.847  21.451  0.00  0.00    -0.275 OA
ATOM     14  H   UNL     1       2.365   8.866  21.271  0.00  0.00    +0.155 HD
BRANCH  12  15
ATOM     15  C   UNL     1       0.343   9.834  22.326  0.00  0.00    +0.041 C 
ATOM     16  H   UNL     1       1.384  10.117  22.521  0.00  0.00    +0.037 HD
ATOM     17  H   UNL     1      -0.136   9.724  23.304  0.00  0.00    +0.037 HD
BRANCH  15  18
ATOM     18  C   UNL     1      -0.339  10.922  21.506  0.00  0.00    +0.031 C 
ATOM     19  H   UNL     1      -0.971  10.450  20.744  0.00  0.00    +0.047 HD
ATOM     20  H   UNL     1      -1.000  11.522  22.142  0.00  0.00    +0.047 HD
BRANCH  18  21
ATOM     21  N   UNL     1       0.568  11.816  20.800  0.00  0.00    -0.234 N 
ATOM     22  C   UNL     1       1.189  11.541  19.611  0.00  0.00    +0.254 C 
ATOM     23  O   UNL     1       1.171  10.518  18.949  0.00  0.00    -0.270 OA
ATOM     24  C   UNL     1       1.915  12.748  19.225  0.00  0.00    +0.049 A 
ATOM     25  C   UNL     1       2.735  12.996  18.141  0.00  0.00    -0.049 A 
ATOM     26  C   UNL     1       3.288  14.277  18.038  0.00  0.00    -0.061 A 
ATOM     27  C   UNL     1       3.009  15.266  19.004  0.00  0.00    -0.061 A 
ATOM     28  C   UNL     1       2.173  14.990  20.092  0.00  0.00    -0.049 A 
ATOM     29  C   UNL     1       1.644  13.717  20.173  0.00  0.00    +0.049 A 
ATOM     30  C   UNL     1       0.745  13.127  21.163  0.00  0.00    +0.254 C 
ATOM     31  O   UNL     1       0.253  13.746  22.087  0.00  0.00    -0.270 OA
ATOM     32  H   UNL     1       2.942  12.226  17.406  0.00  0.00    +0.063 HD
ATOM     33  H   UNL     1       3.943  14.515  17.202  0.00  0.00    +0.062 HD
ATOM     34  H   UNL     1       3.451  16.255  18.903  0.00  0.00    +0.062 HD
ATOM     35  H   UNL     1       1.950  15.741  20.846  0.00  0.00    +0.063 HD
ENDBRANCH  18  21
ENDBRANCH  15  18
ENDBRANCH  12  15
ENDBRANCH   4  11
BRANCH   1  36
ATOM     36  S   UNL     1       3.190   3.266  18.081  0.00  0.00    +0.073 S 
ATOM     37  O   UNL     1       2.860   3.424  16.680  0.00  0.00    -0.150 OA
ATOM     38  O   UNL     1       2.679   2.147  18.845  0.00  0.00    -0.150 OA
BRANCH  36  42
ATOM     39  C   UNL     1       6.408   4.478  15.188  0.00  0.00    +0.044 A 
ATOM     40  C   UNL     1       5.715   3.604  15.993  0.00  0.00    +0.001 A 
ATOM     41  C   UNL     1       5.598   3.987  17.307  0.00  0.00    +0.141 A 
ATOM     42  N   UNL     1       4.870   3.236  18.253  0.00  0.00    -0.199 N 
ATOM     43  N   UNL     1       6.095   5.111  17.830  0.00  0.00    -0.216 NA
ATOM     44  C   UNL     1       6.733   5.913  16.963  0.00  0.00    +0.128 A 
ATOM     45  N   UNL     1       6.919   5.636  15.658  0.00  0.00    -0.237 NA
ATOM     46  H   UNL     1       5.290   2.683  15.621  0.00  0.00    +0.067 HD
ATOM     47  H   UNL     1       5.137   3.486  19.203  0.00  0.00    +0.175 HD
BRANCH  39  48
ATOM     48  C   UNL     1       6.601   4.175  13.733  0.00  0.00    -0.022 C 
ATOM     49  H   UNL     1       5.633   4.020  13.247  0.00  0.00    +0.029 HD
ATOM     50  H   UNL     1       7.110   5.003  13.228  0.00  0.00    +0.029 HD
ATOM     51  H   UNL     1       7.216   3.276  13.613  0.00  0.00    +0.029 HD
ENDBRANCH  39  48
BRANCH  44  52
ATOM     52  C   UNL     1       7.300   7.196  17.484  0.00  0.00    -0.005 C 
ATOM     53  H   UNL     1       6.768   8.043  17.043  0.00  0.00    +0.031 HD
ATOM     54  H   UNL     1       8.363   7.281  17.232  0.00  0.00    +0.031 HD
ATOM     55  H   UNL     1       7.202   7.241  18.573  0.00  0.00    +0.031 HD
ENDBRANCH  44  52
ENDBRANCH  36  42
ENDBRANCH   1  36
TORSDOF 8
ENDMDL
MODEL 4
REMARK VINA RESULT:    -9.175      2.351      3.119
REMARK INTER + INTRA:         -12.920
REMARK INTER:                 -11.879
REMARK INTRA:                  -1.042
REMARK UNBOUND:                 0.009
REMARK  Name = 
REMARK  8 active torsions:
REMARK  status: ('A' for Active; 'I' for Inactive)
REMARK    1  A    between atoms: C_1  and  C_2
REMARK    2  A    between atoms: N_5  and  S_6
REMARK    3  A    between atoms: S_6  and  C_9
REMARK    4  A    between atoms: C_12  and  N_13
REMARK    5  A    between atoms: C_14  and  C_16
REMARK    6  A    between atoms: C_16  and  C_17
REMARK    7  A    between atoms: C_17  and  N_18
REMARK    8  A    between atoms: C_32  and  C_33
REMARK                            x       y       z     vdW  Elec       q    Type
REMARK                         _______ _______ _______ _____ _____    ______ ____
ROOT
ATOM      1  C   UNL     1       2.720   4.737  18.962  0.00  0.00    +0.109 A 
ATOM      2  C   UNL     1       2.371   4.615  20.307  0.00  0.00    -0.033 A 
ATOM      3  C   UNL     1       1.991   5.750  21.031  0.00  0.00    -0.039 A 
ATOM      4  C   UNL     1       1.980   7.010  20.424  0.00  0.00    +0.033 A 
ATOM      5  C   UNL     1       2.365   7.121  19.080  0.00  0.00    -0.039 A 
ATOM      6  C   UNL     1       2.737   5.990  18.346  0.00  0.00    -0.033 A 
ATOM      7  H   UNL     1       2.377   3.646  20.804  0.00  0.00    +0.064 HD
ATOM      8  H   UNL     1       1.712   5.613  22.072  0.00  0.00    +0.064 HD
ATOM      9  H   UNL     1       2.378   8.088  18.582  0.00  0.00    +0.064 HD
ATOM     10  H   UNL     1       3.034   6.098  17.305  0.00  0.00    +0.064 HD
ENDROOT
BRANCH   4  11
ATOM     11  N   UNL     1       1.601   8.199  21.080  0.00  0.00    -0.285 N 
ATOM     12  C   UNL     1       0.350   8.528  21.571  0.00  0.00    +0.219 C 
ATOM     13  O   UNL     1      -0.663   7.838  21.508  0.00  0.00    -0.275 OA
ATOM     14  H   UNL     1       2.346   8.869  21.242  0.00  0.00    +0.155 HD
BRANCH  12  15
ATOM     15  C   UNL     1       0.312   9.905  22.204  0.00  0.00    +0.041 C 
ATOM     16  H   UNL     1       1.349  10.242  22.317  0.00  0.00    +0.037 HD
ATOM     17  H   UNL     1      -0.114   9.868  23.211  0.00  0.00    +0.037 HD
BRANCH  15  18
ATOM     18  C   UNL     1      -0.453  10.890  21.326  0.00  0.00    +0.031 C 
ATOM     19  H   UNL     1      -0.985  10.331  20.547  0.00  0.00    +0.047 HD
ATOM     20  H   UNL     1      -1.212  11.416  21.917  0.00  0.00    +0.047 HD
BRANCH  18  21
ATOM     21  N   UNL     1       0.375  11.874  20.644  0.00  0.00    -0.234 N 
ATOM     22  C   UNL     1       0.640  13.139  21.096  0.00  0.00    +0.254 C 
ATOM     23  O   UNL     1       0.212  13.712  22.083  0.00  0.00    -0.270 OA
ATOM     24  C   UNL     1       1.589  13.732  20.157  0.00  0.00    +0.049 A 
ATOM     25  C   UNL     1       2.146  14.995  20.121  0.00  0.00    -0.049 A 
ATOM     26  C   UNL     1       3.045  15.267  19.084  0.00  0.00    -0.061 A 
ATOM     27  C   UNL     1       3.363  14.283  18.125  0.00  0.00    -0.061 A 
ATOM     28  C   UNL     1       2.786  13.010  18.185  0.00  0.00    -0.049 A 
ATOM     29  C   UNL     1       1.898  12.768  19.215  0.00  0.00    +0.049 A 
ATOM     30  C   UNL     1       1.147  11.562  19.555  0.00  0.00    +0.254 C 
ATOM     31  O   UNL     1       1.261  10.504  18.966  0.00  0.00    -0.270 OA
ATOM     32  H   UNL     1       1.891  15.743  20.863  0.00  0.00    +0.063 HD
ATOM     33  H   UNL     1       3.505  16.251  19.014  0.00  0.00    +0.062 HD
ATOM     34  H   UNL     1       4.065  14.518  17.327  0.00  0.00    +0.062 HD
ATOM     35  H   UNL     1       3.019  12.241  17.453  0.00  0.00    +0.063 HD
ENDBRANCH  18  21
ENDBRANCH  15  18
ENDBRANCH  12  15
ENDBRANCH   4  11
BRANCH   1  36
ATOM     36  S   UNL     1       3.182   3.294  18.028  0.00  0.00    +0.073 S 
ATOM     37  O   UNL     1       2.843   3.527  16.640  0.00  0.00    -0.150 OA
ATOM     38  O   UNL     1       2.667   2.140  18.736  0.00  0.00    -0.150 OA
BRANCH  36  42
ATOM     39  C   UNL     1       6.391   4.513  15.129  0.00  0.00    +0.044 A 
ATOM     40  C   UNL     1       5.695   3.634  15.927  0.00  0.00    +0.001 A 
ATOM     41  C   UNL     1       5.591   4.001  17.247  0.00  0.00    +0.141 A 
ATOM     42  N   UNL     1       4.862   3.244  18.187  0.00  0.00    -0.199 N 
ATOM     43  N   UNL     1       6.104   5.112  17.782  0.00  0.00    -0.216 NA
ATOM     44  C   UNL     1       6.744   5.919  16.921  0.00  0.00    +0.128 A 
ATOM     45  N   UNL     1       6.917   5.658  15.611  0.00  0.00    -0.237 NA
ATOM     46  H   UNL     1       5.257   2.723  15.545  0.00  0.00    +0.067 HD
ATOM     47  H   UNL     1       5.138   3.477  19.138  0.00  0.00    +0.175 HD
BRANCH  39  48
ATOM     48  C   UNL     1       6.571   4.229  13.669  0.00  0.00    -0.022 C 
ATOM     49  H   UNL     1       6.645   3.150  13.499  0.00  0.00    +0.029 HD
ATOM     50  H   UNL     1       5.721   4.609  13.091  0.00  0.00    +0.029 HD
ATOM     51  H   UNL     1       7.478   4.718  13.298  0.00  0.00    +0.029 HD
ENDBRANCH  39  48
BRANCH  44  52
ATOM     52  C   UNL     1       7.328   7.188  17.456  0.00  0.00    -0.005 C 
ATOM     53  H   UNL     1       6.694   8.035  17.180  0.00  0.00    +0.031 HD
ATOM     54  H   UNL     1       8.332   7.356  17.049  0.00  0.00    +0.031 HD
ATOM     55  H   UNL     1       7.406   7.142  18.547  0.00  0.00    +0.031 HD
ENDBRANCH  44  52
ENDBRANCH  36  42
ENDBRANCH   1  36
TORSDOF 8
ENDMDL
MODEL 5
REMARK VINA RESULT:    -8.924      2.396      9.038
REMARK INTER + INTRA:         -12.567
REMARK INTER:                 -11.590
REMARK INTRA:                  -0.977
REMARK UNBOUND:                 0.009
REMARK  Name = 
REMARK  8 active torsions:
REMARK  status: ('A' for Active; 'I' for Inactive)
REMARK    1  A    between atoms: C_1  and  C_2
REMARK    2  A    between atoms: N_5  and  S_6
REMARK    3  A    between atoms: S_6  and  C_9
REMARK    4  A    between atoms: C_12  and  N_13
REMARK    5  A    between atoms: C_14  and  C_16
REMARK    6  A    between atoms: C_16  and  C_17
REMARK    7  A    between atoms: C_17  and  N_18
REMARK    8  A    between atoms: C_32  and  C_33
REMARK                            x       y       z     vdW  Elec       q    Type
REMARK                         _______ _______ _______ _____ _____    ______ ____
ROOT
ATOM      1  C   UNL     1       1.359   8.853  19.904  0.00  0.00    +0.109 A 
ATOM      2  C   UNL     1       1.657   9.353  18.636  0.00  0.00    -0.033 A 
ATOM      3  C   UNL     1       2.350   8.554  17.721  0.00  0.00    -0.039 A 
ATOM      4  C   UNL     1       2.765   7.265  18.072  0.00  0.00    +0.033 A 
ATOM      5  C   UNL     1       2.486   6.789  19.362  0.00  0.00    -0.039 A 
ATOM      6  C   UNL     1       1.785   7.577  20.280  0.00  0.00    -0.033 A 
ATOM      7  H   UNL     1       1.350  10.354  18.340  0.00  0.00    +0.064 HD
ATOM      8  H   UNL     1       2.552   8.974  16.738  0.00  0.00    +0.064 HD
ATOM      9  H   UNL     1       2.805   5.796  19.670  0.00  0.00    +0.064 HD
ATOM     10  H   UNL     1       1.580   7.189  21.275  0.00  0.00    +0.064 HD
ENDROOT
BRANCH   4  11
ATOM     11  N   UNL     1       3.458   6.395  17.206  0.00  0.00    -0.285 N 
ATOM     12  C   UNL     1       4.827   6.303  17.024  0.00  0.00    +0.219 C 
ATOM     13  O   UNL     1       5.684   6.980  17.583  0.00  0.00    -0.275 OA
ATOM     14  H   UNL     1       2.883   5.738  16.689  0.00  0.00    +0.155 HD
BRANCH  12  15
ATOM     15  C   UNL     1       5.212   5.260  15.993  0.00  0.00    +0.041 C 
ATOM     16  H   UNL     1       6.157   5.581  15.540  0.00  0.00    +0.037 HD
ATOM     17  H   UNL     1       4.479   5.214  15.181  0.00  0.00    +0.037 HD
BRANCH  15  18
ATOM     18  C   UNL     1       5.392   3.892  16.639  0.00  0.00    +0.031 C 
ATOM     19  H   UNL     1       5.272   3.118  15.871  0.00  0.00    +0.047 HD
ATOM     20  H   UNL     1       6.408   3.790  17.039  0.00  0.00    +0.047 HD
BRANCH  18  21
ATOM     21  N   UNL     1       4.440   3.583  17.696  0.00  0.00    -0.234 N 
ATOM     22  C   UNL     1       4.675   3.712  19.039  0.00  0.00    +0.254 C 
ATOM     23  O   UNL     1       5.698   4.036  19.616  0.00  0.00    -0.270 OA
ATOM     24  C   UNL     1       3.421   3.395  19.718  0.00  0.00    +0.049 A 
ATOM     25  C   UNL     1       3.121   3.331  21.065  0.00  0.00    -0.049 A 
ATOM     26  C   UNL     1       1.805   3.004  21.411  0.00  0.00    -0.061 A 
ATOM     27  C   UNL     1       0.836   2.755  20.417  0.00  0.00    -0.061 A 
ATOM     28  C   UNL     1       1.165   2.828  19.060  0.00  0.00    -0.049 A 
ATOM     29  C   UNL     1       2.471   3.149  18.744  0.00  0.00    +0.049 A 
ATOM     30  C   UNL     1       3.120   3.310  17.445  0.00  0.00    +0.254 C 
ATOM     31  O   UNL     1       2.534   3.241  16.381  0.00  0.00    -0.270 OA
ATOM     32  H   UNL     1       3.876   3.523  21.819  0.00  0.00    +0.063 HD
ATOM     33  H   UNL     1       1.524   2.938  22.460  0.00  0.00    +0.062 HD
ATOM     34  H   UNL     1      -0.181   2.502  20.710  0.00  0.00    +0.062 HD
ATOM     35  H   UNL     1       0.430   2.638  18.281  0.00  0.00    +0.063 HD
ENDBRANCH  18  21
ENDBRANCH  15  18
ENDBRANCH  12  15
ENDBRANCH   4  11
BRANCH   1  36
ATOM     36  S   UNL     1       0.456   9.854  21.066  0.00  0.00    +0.073 S 
ATOM     37  O   UNL     1       1.324  10.134  22.191  0.00  0.00    -0.150 OA
ATOM     38  O   UNL     1      -0.836   9.229  21.260  0.00  0.00    -0.150 OA
BRANCH  36  42
ATOM     39  C   UNL     1      -2.786  10.872  18.126  0.00  0.00    +0.044 A 
ATOM     40  C   UNL     1      -1.488  10.673  18.537  0.00  0.00    +0.001 A 
ATOM     41  C   UNL     1      -1.102  11.411  19.630  0.00  0.00    +0.141 A 
ATOM     42  N   UNL     1       0.175  11.285  20.215  0.00  0.00    -0.199 N 
ATOM     43  N   UNL     1      -1.878  12.274  20.291  0.00  0.00    -0.216 NA
ATOM     44  C   UNL     1      -3.135  12.382  19.832  0.00  0.00    +0.128 A 
ATOM     45  N   UNL     1      -3.620  11.719  18.765  0.00  0.00    -0.237 NA
ATOM     46  H   UNL     1      -0.819   9.985  18.040  0.00  0.00    +0.067 HD
ATOM     47  H   UNL     1       0.394  12.094  20.793  0.00  0.00    +0.175 HD
BRANCH  39  48
ATOM     48  C   UNL     1      -3.329  10.123  16.948  0.00  0.00    -0.022 C 
ATOM     49  H   UNL     1      -4.078  10.728  16.427  0.00  0.00    +0.029 HD
ATOM     50  H   UNL     1      -2.530   9.881  16.238  0.00  0.00    +0.029 HD
ATOM     51  H   UNL     1      -3.786   9.182  17.275  0.00  0.00    +0.029 HD
ENDBRANCH  39  48
BRANCH  44  52
ATOM     52  C   UNL     1      -4.059  13.322  20.540  0.00  0.00    -0.005 C 
ATOM     53  H   UNL     1      -4.815  13.694  19.844  0.00  0.00    +0.031 HD
ATOM     54  H   UNL     1      -3.507  14.177  20.946  0.00  0.00    +0.031 HD
ATOM     55  H   UNL     1      -4.558  12.813  21.370  0.00  0.00    +0.031 HD
ENDBRANCH  44  52
ENDBRANCH  36  42
ENDBRANCH   1  36
TORSDOF 8
ENDMDL
MODEL 6
REMARK VINA RESULT:    -8.890      2.254      3.204
REMARK INTER + INTRA:         -12.519
REMARK INTER:                 -12.053
REMARK INTRA:                  -0.466
REMARK UNBOUND:                 0.009
REMARK  Name = 
REMARK  8 active torsions:
REMARK  status: ('A' for Active; 'I' for Inactive)
REMARK    1  A    between atoms: C_1  and  C_2
REMARK    2  A    between atoms: N_5  and  S_6
REMARK    3  A    between atoms: S_6  and  C_9
REMARK    4  A    between atoms: C_12  and  N_13
REMARK    5  A    between atoms: C_14  and  C_16
REMARK    6  A    between atoms: C_16  and  C_17
REMARK    7  A    between atoms: C_17  and  N_18
REMARK    8  A    between atoms: C_32  and  C_33
REMARK                            x       y       z     vdW  Elec       q    Type
REMARK                         _______ _______ _______ _____ _____    ______ ____
ROOT
ATOM      1  C   UNL     1       2.868   5.000  18.955  0.00  0.00    +0.109 A 
ATOM      2  C   UNL     1       2.596   5.506  20.226  0.00  0.00    -0.033 A 
ATOM      3  C   UNL     1       2.170   6.830  20.369  0.00  0.00    -0.039 A 
ATOM      4  C   UNL     1       2.035   7.660  19.250  0.00  0.00    +0.033 A 
ATOM      5  C   UNL     1       2.344   7.146  17.982  0.00  0.00    -0.039 A 
ATOM      6  C   UNL     1       2.761   5.820  17.829  0.00  0.00    -0.033 A 
ATOM      7  H   UNL     1       2.698   4.883  21.113  0.00  0.00    +0.064 HD
ATOM      8  H   UNL     1       1.954   7.184  21.374  0.00  0.00    +0.064 HD
ATOM      9  H   UNL     1       2.260   7.768  17.094  0.00  0.00    +0.064 HD
ATOM     10  H   UNL     1       2.996   5.442  16.837  0.00  0.00    +0.064 HD
ENDROOT
BRANCH   4  11
ATOM     11  N   UNL     1       1.603   9.001  19.309  0.00  0.00    -0.285 N 
ATOM     12  C   UNL     1       0.584   9.523  20.086  0.00  0.00    +0.219 C 
ATOM     13  O   UNL     1      -0.138   8.900  20.858  0.00  0.00    -0.275 OA
ATOM     14  H   UNL     1       2.130   9.658  18.744  0.00  0.00    +0.155 HD
BRANCH  12  15
ATOM     15  C   UNL     1       0.391  11.012  19.874  0.00  0.00    +0.041 C 
ATOM     16  H   UNL     1      -0.618  11.157  19.469  0.00  0.00    +0.037 HD
ATOM     17  H   UNL     1       1.084  11.400  19.122  0.00  0.00    +0.037 HD
BRANCH  15  18
ATOM     18  C   UNL     1       0.530  11.774  21.186  0.00  0.00    +0.031 C 
ATOM     19  H   UNL     1       0.967  11.107  21.939  0.00  0.00    +0.047 HD
ATOM     20  H   UNL     1       1.221  12.617  21.066  0.00  0.00    +0.047 HD
BRANCH  18  21
ATOM     21  N   UNL     1      -0.721  12.271  21.742  0.00  0.00    -0.234 N 
ATOM     22  C   UNL     1      -1.496  13.258  21.197  0.00  0.00    +0.254 C 
ATOM     23  O   UNL     1      -1.289  13.947  20.213  0.00  0.00    -0.270 OA
ATOM     24  C   UNL     1      -2.696  13.357  22.023  0.00  0.00    +0.049 A 
ATOM     25  C   UNL     1      -3.776  14.215  21.940  0.00  0.00    -0.049 A 
ATOM     26  C   UNL     1      -4.793  14.054  22.887  0.00  0.00    -0.061 A 
ATOM     27  C   UNL     1      -4.710  13.052  23.876  0.00  0.00    -0.061 A 
ATOM     28  C   UNL     1      -3.607  12.195  23.937  0.00  0.00    -0.049 A 
ATOM     29  C   UNL     1      -2.614  12.376  22.994  0.00  0.00    +0.049 A 
ATOM     30  C   UNL     1      -1.361  11.654  22.786  0.00  0.00    +0.254 C 
ATOM     31  O   UNL     1      -1.028  10.675  23.427  0.00  0.00    -0.270 OA
ATOM     32  H   UNL     1      -3.826  14.982  21.175  0.00  0.00    +0.063 HD
ATOM     33  H   UNL     1      -5.661  14.711  22.862  0.00  0.00    +0.062 HD
ATOM     34  H   UNL     1      -5.514  12.947  24.602  0.00  0.00    +0.062 HD
ATOM     35  H   UNL     1      -3.527  11.419  24.694  0.00  0.00    +0.063 HD
ENDBRANCH  18  21
ENDBRANCH  15  18
ENDBRANCH  12  15
ENDBRANCH   4  11
BRANCH   1  36
ATOM     36  S   UNL     1       3.387   3.309  18.762  0.00  0.00    +0.073 S 
ATOM     37  O   UNL     1       2.945   2.845  17.463  0.00  0.00    -0.150 OA
ATOM     38  O   UNL     1       3.014   2.604  19.971  0.00  0.00    -0.150 OA
BRANCH  36  42
ATOM     39  C   UNL     1       6.218   4.459  15.468  0.00  0.00    +0.044 A 
ATOM     40  C   UNL     1       5.674   3.620  16.412  0.00  0.00    +0.001 A 
ATOM     41  C   UNL     1       5.648   4.118  17.691  0.00  0.00    +0.141 A 
ATOM     42  N   UNL     1       5.072   3.413  18.768  0.00  0.00    -0.199 N 
ATOM     43  N   UNL     1       6.102   5.319  18.061  0.00  0.00    -0.216 NA
ATOM     44  C   UNL     1       6.592   6.077  17.066  0.00  0.00    +0.128 A 
ATOM     45  N   UNL     1       6.678   5.689  15.779  0.00  0.00    -0.237 NA
ATOM     46  H   UNL     1       5.290   2.640  16.167  0.00  0.00    +0.067 HD
ATOM     47  H   UNL     1       5.405   3.770  19.660  0.00  0.00    +0.175 HD
BRANCH  39  48
ATOM     48  C   UNL     1       6.299   4.032  14.033  0.00  0.00    -0.022 C 
ATOM     49  H   UNL     1       7.310   3.683  13.799  0.00  0.00    +0.029 HD
ATOM     50  H   UNL     1       5.598   3.216  13.830  0.00  0.00    +0.029 HD
ATOM     51  H   UNL     1       6.043   4.870  13.375  0.00  0.00    +0.029 HD
ENDBRANCH  39  48
BRANCH  44  52
ATOM     52  C   UNL     1       7.103   7.440  17.413  0.00  0.00    -0.005 C 
ATOM     53  H   UNL     1       6.284   8.163  17.375  0.00  0.00    +0.031 HD
ATOM     54  H   UNL     1       7.880   7.754  16.707  0.00  0.00    +0.031 HD
ATOM     55  H   UNL     1       7.534   7.441  18.418  0.00  0.00    +0.031 HD
ENDBRANCH  44  52
ENDBRANCH  36  42
ENDBRANCH   1  36
TORSDOF 8
ENDMDL
MODEL 7
REMARK VINA RESULT:    -8.851      1.398      2.058
REMARK INTER + INTRA:         -12.464
REMARK INTER:                 -11.753
REMARK INTRA:                  -0.711
REMARK UNBOUND:                 0.009
REMARK  Name = 
REMARK  8 active torsions:
REMARK  status: ('A' for Active; 'I' for Inactive)
REMARK    1  A    between atoms: C_1  and  C_2
REMARK    2  A    between atoms: N_5  and  S_6
REMARK    3  A    between atoms: S_6  and  C_9
REMARK    4  A    between atoms: C_12  and  N_13
REMARK    5  A    between atoms: C_14  and  C_16
REMARK    6  A    between atoms: C_16  and  C_17
REMARK    7  A    between atoms: C_17  and  N_18
REMARK    8  A    between atoms: C_32  and  C_33
REMARK                            x       y       z     vdW  Elec       q    Type
REMARK                         _______ _______ _______ _____ _____    ______ ____
ROOT
ATOM      1  C   UNL     1       2.521   4.778  18.832  0.00  0.00    +0.109 A 
ATOM      2  C   UNL     1       2.677   6.003  18.184  0.00  0.00    -0.033 A 
ATOM      3  C   UNL     1       2.413   7.191  18.873  0.00  0.00    -0.039 A 
ATOM      4  C   UNL     1       1.972   7.160  20.201  0.00  0.00    +0.033 A 
ATOM      5  C   UNL     1       1.788   5.919  20.827  0.00  0.00    -0.039 A 
ATOM      6  C   UNL     1       2.059   4.727  20.149  0.00  0.00    -0.033 A 
ATOM      7  H   UNL     1       3.014   6.054  17.150  0.00  0.00    +0.064 HD
ATOM      8  H   UNL     1       2.560   8.126  18.340  0.00  0.00    +0.064 HD
ATOM      9  H   UNL     1       1.435   5.860  21.855  0.00  0.00    +0.064 HD
ATOM     10  H   UNL     1       1.909   3.775  20.653  0.00  0.00    +0.064 HD
ENDROOT
BRANCH   4  11
ATOM     11  N   UNL     1       1.693   8.311  20.967  0.00  0.00    -0.285 N 
ATOM     12  C   UNL     1       0.479   8.680  21.519  0.00  0.00    +0.219 C 
ATOM     13  O   UNL     1      -0.581   8.070  21.425  0.00  0.00    -0.275 OA
ATOM     14  H   UNL     1       2.487   8.911  21.165  0.00  0.00    +0.155 HD
BRANCH  12  15
ATOM     15  C   UNL     1       0.553   9.996  22.268  0.00  0.00    +0.041 C 
ATOM     16  H   UNL     1       1.529  10.035  22.765  0.00  0.00    +0.037 HD
ATOM     17  H   UNL     1      -0.200  10.046  23.060  0.00  0.00    +0.037 HD
BRANCH  15  18
ATOM     18  C   UNL     1       0.416  11.177  21.314  0.00  0.00    +0.031 C 
ATOM     19  H   UNL     1       0.929  12.045  21.748  0.00  0.00    +0.047 HD
ATOM     20  H   UNL     1       0.912  10.957  20.361  0.00  0.00    +0.047 HD
BRANCH  18  21
ATOM     21  N   UNL     1      -0.953  11.593  21.045  0.00  0.00    -0.234 N 
ATOM     22  C   UNL     1      -1.697  12.432  21.830  0.00  0.00    +0.254 C 
ATOM     23  O   UNL     1      -1.415  12.938  22.902  0.00  0.00    -0.270 OA
ATOM     24  C   UNL     1      -2.960  12.653  21.132  0.00  0.00    +0.049 A 
ATOM     25  C   UNL     1      -4.076  13.379  21.501  0.00  0.00    -0.049 A 
ATOM     26  C   UNL     1      -5.145  13.409  20.599  0.00  0.00    -0.061 A 
ATOM     27  C   UNL     1      -5.073  12.727  19.366  0.00  0.00    -0.061 A 
ATOM     28  C   UNL     1      -3.930  12.001  19.015  0.00  0.00    -0.049 A 
ATOM     29  C   UNL     1      -2.891  11.982  19.925  0.00  0.00    +0.049 A 
ATOM     30  C   UNL     1      -1.583  11.335  19.855  0.00  0.00    +0.254 C 
ATOM     31  O   UNL     1      -1.176  10.730  18.881  0.00  0.00    -0.270 OA
ATOM     32  H   UNL     1      -4.119  13.897  22.452  0.00  0.00    +0.063 HD
ATOM     33  H   UNL     1      -6.046  13.966  20.850  0.00  0.00    +0.062 HD
ATOM     34  H   UNL     1      -5.917  12.766  18.682  0.00  0.00    +0.062 HD
ATOM     35  H   UNL     1      -3.859  11.468  18.070  0.00  0.00    +0.063 HD
ENDBRANCH  18  21
ENDBRANCH  15  18
ENDBRANCH  12  15
ENDBRANCH   4  11
BRANCH   1  36
ATOM     36  S   UNL     1       2.879   3.263  17.969  0.00  0.00    +0.073 S 
ATOM     37  O   UNL     1       2.595   3.464  16.564  0.00  0.00    -0.150 OA
ATOM     38  O   UNL     1       2.251   2.187  18.709  0.00  0.00    -0.150 OA
BRANCH  36  42
ATOM     39  C   UNL     1       6.261   4.290  15.195  0.00  0.00    +0.044 A 
ATOM     40  C   UNL     1       5.474   3.452  15.951  0.00  0.00    +0.001 A 
ATOM     41  C   UNL     1       5.359   3.795  17.275  0.00  0.00    +0.141 A 
ATOM     42  N   UNL     1       4.544   3.078  18.175  0.00  0.00    -0.199 N 
ATOM     43  N   UNL     1       5.940   4.851  17.853  0.00  0.00    -0.216 NA
ATOM     44  C   UNL     1       6.667   5.624  17.031  0.00  0.00    +0.128 A 
ATOM     45  N   UNL     1       6.860   5.380  15.720  0.00  0.00    -0.237 NA
ATOM     46  H   UNL     1       4.980   2.587  15.534  0.00  0.00    +0.067 HD
ATOM     47  H   UNL     1       4.809   3.267  19.140  0.00  0.00    +0.175 HD
BRANCH  39  48
ATOM     48  C   UNL     1       6.463   4.026  13.734  0.00  0.00    -0.022 C 
ATOM     49  H   UNL     1       6.898   4.905  13.247  0.00  0.00    +0.029 HD
ATOM     50  H   UNL     1       7.141   3.179  13.582  0.00  0.00    +0.029 HD
ATOM     51  H   UNL     1       5.506   3.783  13.258  0.00  0.00    +0.029 HD
ENDBRANCH  39  48
BRANCH  44  52
ATOM     52  C   UNL     1       7.331   6.832  17.614  0.00  0.00    -0.005 C 
ATOM     53  H   UNL     1       7.142   7.702  16.980  0.00  0.00    +0.031 HD
ATOM     54  H   UNL     1       8.414   6.682  17.687  0.00  0.00    +0.031 HD
ATOM     55  H   UNL     1       6.946   7.031  18.618  0.00  0.00    +0.031 HD
ENDBRANCH  44  52
ENDBRANCH  36  42
ENDBRANCH   1  36
TORSDOF 8
ENDMDL
MODEL 8
REMARK VINA RESULT:    -8.843      2.229      3.196
REMARK INTER + INTRA:         -12.453
REMARK INTER:                 -12.014
REMARK INTRA:                  -0.439
REMARK UNBOUND:                 0.009
REMARK  Name = 
REMARK  8 active torsions:
REMARK  status: ('A' for Active; 'I' for Inactive)
REMARK    1  A    between atoms: C_1  and  C_2
REMARK    2  A    between atoms: N_5  and  S_6
REMARK    3  A    between atoms: S_6  and  C_9
REMARK    4  A    between atoms: C_12  and  N_13
REMARK    5  A    between atoms: C_14  and  C_16
REMARK    6  A    between atoms: C_16  and  C_17
REMARK    7  A    between atoms: C_17  and  N_18
REMARK    8  A    between atoms: C_32  and  C_33
REMARK                            x       y       z     vdW  Elec       q    Type
REMARK                         _______ _______ _______ _____ _____    ______ ____
ROOT
ATOM      1  C   UNL     1       2.933   4.896  18.940  0.00  0.00    +0.109 A 
ATOM      2  C   UNL     1       2.688   5.446  20.198  0.00  0.00    -0.033 A 
ATOM      3  C   UNL     1       2.245   6.768  20.303  0.00  0.00    -0.039 A 
ATOM      4  C   UNL     1       2.067   7.552  19.158  0.00  0.00    +0.033 A 
ATOM      5  C   UNL     1       2.350   6.994  17.902  0.00  0.00    -0.039 A 
ATOM      6  C   UNL     1       2.783   5.670  17.787  0.00  0.00    -0.033 A 
ATOM      7  H   UNL     1       2.823   4.858  21.104  0.00  0.00    +0.064 HD
ATOM      8  H   UNL     1       2.052   7.157  21.299  0.00  0.00    +0.064 HD
ATOM      9  H   UNL     1       2.232   7.581  16.993  0.00  0.00    +0.064 HD
ATOM     10  H   UNL     1       2.997   5.257  16.804  0.00  0.00    +0.064 HD
ENDROOT
BRANCH   4  11
ATOM     11  N   UNL     1       1.616   8.888  19.177  0.00  0.00    -0.285 N 
ATOM     12  C   UNL     1       0.701   9.454  20.047  0.00  0.00    +0.219 C 
ATOM     13  O   UNL     1       0.106   8.881  20.955  0.00  0.00    -0.275 OA
ATOM     14  H   UNL     1       2.046   9.507  18.498  0.00  0.00    +0.155 HD
BRANCH  12  15
ATOM     15  C   UNL     1       0.446  10.920  19.756  0.00  0.00    +0.041 C 
ATOM     16  H   UNL     1      -0.550  10.996  19.303  0.00  0.00    +0.037 HD
ATOM     17  H   UNL     1       1.153  11.307  19.015  0.00  0.00    +0.037 HD
BRANCH  15  18
ATOM     18  C   UNL     1       0.491  11.748  21.035  0.00  0.00    +0.031 C 
ATOM     19  H   UNL     1       0.988  11.164  21.818  0.00  0.00    +0.047 HD
ATOM     20  H   UNL     1       1.091  12.653  20.882  0.00  0.00    +0.047 HD
BRANCH  18  21
ATOM     21  N   UNL     1      -0.810  12.133  21.562  0.00  0.00    -0.234 N 
ATOM     22  C   UNL     1      -1.394  11.620  22.689  0.00  0.00    +0.254 C 
ATOM     23  O   UNL     1      -1.002  10.731  23.425  0.00  0.00    -0.270 OA
ATOM     24  C   UNL     1      -2.634  12.362  22.897  0.00  0.00    +0.049 A 
ATOM     25  C   UNL     1      -3.616  12.219  23.857  0.00  0.00    -0.049 A 
ATOM     26  C   UNL     1      -4.701  13.102  23.798  0.00  0.00    -0.061 A 
ATOM     27  C   UNL     1      -4.774  14.093  22.797  0.00  0.00    -0.061 A 
ATOM     28  C   UNL     1      -3.765  14.218  21.837  0.00  0.00    -0.049 A 
ATOM     29  C   UNL     1      -2.708  13.332  21.914  0.00  0.00    +0.049 A 
ATOM     30  C   UNL     1      -1.513  13.208  21.082  0.00  0.00    +0.254 C 
ATOM     31  O   UNL     1      -1.236  13.970  20.176  0.00  0.00    -0.270 OA
ATOM     32  H   UNL     1      -3.548  11.452  24.620  0.00  0.00    +0.063 HD
ATOM     33  H   UNL     1      -5.500  13.023  24.533  0.00  0.00    +0.062 HD
ATOM     34  H   UNL     1      -5.627  14.767  22.772  0.00  0.00    +0.062 HD
ATOM     35  H   UNL     1      -3.807  14.975  21.058  0.00  0.00    +0.063 HD
ENDBRANCH  18  21
ENDBRANCH  15  18
ENDBRANCH  12  15
ENDBRANCH   4  11
BRANCH   1  36
ATOM     36  S   UNL     1       3.472   3.206  18.797  0.00  0.00    +0.073 S 
ATOM     37  O   UNL     1       3.023   2.694  17.520  0.00  0.00    -0.150 OA
ATOM     38  O   UNL     1       3.123   2.536  20.033  0.00  0.00    -0.150 OA
BRANCH  36  42
ATOM     39  C   UNL     1       6.238   4.467  15.488  0.00  0.00    +0.044 A 
ATOM     40  C   UNL     1       5.719   3.600  16.421  0.00  0.00    +0.001 A 
ATOM     41  C   UNL     1       5.707   4.069  17.711  0.00  0.00    +0.141 A 
ATOM     42  N   UNL     1       5.156   3.332  18.780  0.00  0.00    -0.199 N 
ATOM     43  N   UNL     1       6.151   5.267  18.101  0.00  0.00    -0.216 NA
ATOM     44  C   UNL     1       6.616   6.053  17.117  0.00  0.00    +0.128 A 
ATOM     45  N   UNL     1       6.686   5.696  15.820  0.00  0.00    -0.237 NA
ATOM     46  H   UNL     1       5.344   2.621  16.160  0.00  0.00    +0.067 HD
ATOM     47  H   UNL     1       5.498   3.674  19.675  0.00  0.00    +0.175 HD
BRANCH  39  48
ATOM     48  C   UNL     1       6.303   4.074  14.043  0.00  0.00    -0.022 C 
ATOM     49  H   UNL     1       7.109   4.616  13.539  0.00  0.00    +0.029 HD
ATOM     50  H   UNL     1       6.495   3.000  13.940  0.00  0.00    +0.029 HD
ATOM     51  H   UNL     1       5.351   4.296  13.548  0.00  0.00    +0.029 HD
ENDBRANCH  39  48
BRANCH  44  52
ATOM     52  C   UNL     1       7.113   7.415  17.486  0.00  0.00    -0.005 C 
ATOM     53  H   UNL     1       8.198   7.390  17.620  0.00  0.00    +0.031 HD
ATOM     54  H   UNL     1       6.653   7.756  18.420  0.00  0.00    +0.031 HD
ATOM     55  H   UNL     1       6.868   8.136  16.700  0.00  0.00    +0.031 HD
ENDBRANCH  44  52
ENDBRANCH  36  42
ENDBRANCH   1  36
TORSDOF 8
ENDMDL
MODEL 9
REMARK VINA RESULT:    -8.705      2.914      9.320
REMARK INTER + INTRA:         -12.259
REMARK INTER:                 -11.122
REMARK INTRA:                  -1.137
REMARK UNBOUND:                 0.009
REMARK  Name = 
REMARK  8 active torsions:
REMARK  status: ('A' for Active; 'I' for Inactive)
REMARK    1  A    between atoms: C_1  and  C_2
REMARK    2  A    between atoms: N_5  and  S_6
REMARK    3  A    between atoms: S_6  and  C_9
REMARK    4  A    between atoms: C_12  and  N_13
REMARK    5  A    between atoms: C_14  and  C_16
REMARK    6  A    between atoms: C_16  and  C_17
REMARK    7  A    between atoms: C_17  and  N_18
REMARK    8  A    between atoms: C_32  and  C_33
REMARK                            x       y       z     vdW  Elec       q    Type
REMARK                         _______ _______ _______ _____ _____    ______ ____
ROOT
ATOM      1  C   UNL     1       1.224   8.897  19.864  0.00  0.00    +0.109 A 
ATOM      2  C   UNL     1       1.471   9.373  18.576  0.00  0.00    -0.033 A 
ATOM      3  C   UNL     1       2.199   8.588  17.676  0.00  0.00    -0.039 A 
ATOM      4  C   UNL     1       2.700   7.341  18.062  0.00  0.00    +0.033 A 
ATOM      5  C   UNL     1       2.471   6.892  19.371  0.00  0.00    -0.039 A 
ATOM      6  C   UNL     1       1.736   7.665  20.275  0.00  0.00    -0.033 A 
ATOM      7  H   UNL     1       1.096  10.342  18.253  0.00  0.00    +0.064 HD
ATOM      8  H   UNL     1       2.359   8.986  16.677  0.00  0.00    +0.064 HD
ATOM      9  H   UNL     1       2.858   5.931  19.706  0.00  0.00    +0.064 HD
ATOM     10  H   UNL     1       1.571   7.299  21.286  0.00  0.00    +0.064 HD
ENDROOT
BRANCH   4  11
ATOM     11  N   UNL     1       3.434   6.487  17.212  0.00  0.00    -0.285 N 
ATOM     12  C   UNL     1       4.808   6.426  17.064  0.00  0.00    +0.219 C 
ATOM     13  O   UNL     1       5.636   7.122  17.644  0.00  0.00    -0.275 OA
ATOM     14  H   UNL     1       2.887   5.818  16.682  0.00  0.00    +0.155 HD
BRANCH  12  15
ATOM     15  C   UNL     1       5.242   5.393  16.043  0.00  0.00    +0.041 C 
ATOM     16  H   UNL     1       6.199   5.727  15.624  0.00  0.00    +0.037 HD
ATOM     17  H   UNL     1       4.539   5.342  15.206  0.00  0.00    +0.037 HD
BRANCH  15  18
ATOM     18  C   UNL     1       5.417   4.024  16.689  0.00  0.00    +0.031 C 
ATOM     19  H   UNL     1       5.324   3.251  15.916  0.00  0.00    +0.047 HD
ATOM     20  H   UNL     1       6.422   3.929  17.116  0.00  0.00    +0.047 HD
BRANCH  18  21
ATOM     21  N   UNL     1       4.439   3.703  17.719  0.00  0.00    -0.234 N 
ATOM     22  C   UNL     1       4.642   3.814  19.069  0.00  0.00    +0.254 C 
ATOM     23  O   UNL     1       5.651   4.128  19.675  0.00  0.00    -0.270 OA
ATOM     24  C   UNL     1       3.372   3.491  19.714  0.00  0.00    +0.049 A 
ATOM     25  C   UNL     1       3.039   3.409  21.052  0.00  0.00    -0.049 A 
ATOM     26  C   UNL     1       1.715   3.080  21.362  0.00  0.00    -0.061 A 
ATOM     27  C   UNL     1       0.769   2.847  20.342  0.00  0.00    -0.061 A 
ATOM     28  C   UNL     1       1.131   2.937  18.994  0.00  0.00    -0.049 A 
ATOM     29  C   UNL     1       2.445   3.259  18.714  0.00  0.00    +0.049 A 
ATOM     30  C   UNL     1       3.125   3.436  17.433  0.00  0.00    +0.254 C 
ATOM     31  O   UNL     1       2.565   3.383  16.354  0.00  0.00    -0.270 OA
ATOM     32  H   UNL     1       3.776   3.590  21.826  0.00  0.00    +0.063 HD
ATOM     33  H   UNL     1       1.409   3.002  22.403  0.00  0.00    +0.062 HD
ATOM     34  H   UNL     1      -0.255   2.592  20.607  0.00  0.00    +0.062 HD
ATOM     35  H   UNL     1       0.415   2.759  18.196  0.00  0.00    +0.063 HD
ENDBRANCH  18  21
ENDBRANCH  15  18
ENDBRANCH  12  15
ENDBRANCH   4  11
BRANCH   1  36
ATOM     36  S   UNL     1       0.278   9.879  21.009  0.00  0.00    +0.073 S 
ATOM     37  O   UNL     1       1.154  10.880  21.578  0.00  0.00    -0.150 OA
ATOM     38  O   UNL     1      -0.456   8.962  21.857  0.00  0.00    -0.150 OA
BRANCH  36  42
ATOM     39  C   UNL     1      -2.067  13.650  21.691  0.00  0.00    +0.044 A 
ATOM     40  C   UNL     1      -1.904  12.301  21.475  0.00  0.00    +0.001 A 
ATOM     41  C   UNL     1      -1.174  11.973  20.359  0.00  0.00    +0.141 A 
ATOM     42  N   UNL     1      -0.864  10.639  20.023  0.00  0.00    -0.199 N 
ATOM     43  N   UNL     1      -0.636  12.846  19.504  0.00  0.00    -0.216 NA
ATOM     44  C   UNL     1      -0.827  14.139  19.811  0.00  0.00    +0.128 A 
ATOM     45  N   UNL     1      -1.533  14.579  20.870  0.00  0.00    -0.237 NA
ATOM     46  H   UNL     1      -2.316  11.553  22.136  0.00  0.00    +0.067 HD
ATOM     47  H   UNL     1      -0.600  10.559  19.043  0.00  0.00    +0.175 HD
BRANCH  39  48
ATOM     48  C   UNL     1      -2.841  14.138  22.878  0.00  0.00    -0.022 C 
ATOM     49  H   UNL     1      -2.253  14.007  23.792  0.00  0.00    +0.029 HD
ATOM     50  H   UNL     1      -3.082  15.202  22.775  0.00  0.00    +0.029 HD
ATOM     51  H   UNL     1      -3.782  13.585  22.969  0.00  0.00    +0.029 HD
ENDBRANCH  39  48
BRANCH  44  52
ATOM     52  C   UNL     1      -0.235  15.168  18.900  0.00  0.00    -0.005 C 
ATOM     53  H   UNL     1       0.684  15.568  19.338  0.00  0.00    +0.031 HD
ATOM     54  H   UNL     1      -0.935  15.996  18.742  0.00  0.00    +0.031 HD
ATOM     55  H   UNL     1      -0.003  14.727  17.926  0.00  0.00    +0.031 HD
ENDBRANCH  44  52
ENDBRANCH  36  42
ENDBRANCH   1  36
TORSDOF 8
ENDMDL
MODEL 10
REMARK VINA RESULT:    -8.604      2.925      9.335
REMARK INTER + INTRA:         -12.116
REMARK INTER:                 -11.088
REMARK INTRA:                  -1.028
REMARK UNBOUND:                 0.009
REMARK  Name = 
REMARK  8 active torsions:
REMARK  status: ('A' for Active; 'I' for Inactive)
REMARK    1  A    between atoms: C_1  and  C_2
REMARK    2  A    between atoms: N_5  and  S_6
REMARK    3  A    between atoms: S_6  and  C_9
REMARK    4  A    between atoms: C_12  and  N_13
REMARK    5  A    between atoms: C_14  and  C_16
REMARK    6  A    between atoms: C_16  and  C_17
REMARK    7  A    between atoms: C_17  and  N_18
REMARK    8  A    between atoms: C_32  and  C_33
REMARK                            x       y       z     vdW  Elec       q    Type
REMARK                         _______ _______ _______ _____ _____    ______ ____
ROOT
ATOM      1  C   UNL     1       1.243   8.879  19.906  0.00  0.00    +0.109 A 
ATOM      2  C   UNL     1       1.516   9.354  18.624  0.00  0.00    -0.033 A 
ATOM      3  C   UNL     1       2.245   8.561  17.731  0.00  0.00    -0.039 A 
ATOM      4  C   UNL     1       2.720   7.304  18.120  0.00  0.00    +0.033 A 
ATOM      5  C   UNL     1       2.465   6.855  19.424  0.00  0.00    -0.039 A 
ATOM      6  C   UNL     1       1.729   7.637  20.320  0.00  0.00    -0.033 A 
ATOM      7  H   UNL     1       1.162  10.330  18.299  0.00  0.00    +0.064 HD
ATOM      8  H   UNL     1       2.426   8.960  16.736  0.00  0.00    +0.064 HD
ATOM      9  H   UNL     1       2.831   5.887  19.761  0.00  0.00    +0.064 HD
ATOM     10  H   UNL     1       1.543   7.269  21.327  0.00  0.00    +0.064 HD
ENDROOT
BRANCH   4  11
ATOM     11  N   UNL     1       3.452   6.442  17.278  0.00  0.00    -0.285 N 
ATOM     12  C   UNL     1       4.825   6.390  17.117  0.00  0.00    +0.219 C 
ATOM     13  O   UNL     1       5.653   7.102  17.676  0.00  0.00    -0.275 OA
ATOM     14  H   UNL     1       2.905   5.759  16.765  0.00  0.00    +0.155 HD
BRANCH  12  15
ATOM     15  C   UNL     1       5.257   5.342  16.109  0.00  0.00    +0.041 C 
ATOM     16  H   UNL     1       6.275   5.595  15.790  0.00  0.00    +0.037 HD
ATOM     17  H   UNL     1       4.634   5.374  15.210  0.00  0.00    +0.037 HD
BRANCH  15  18
ATOM     18  C   UNL     1       5.246   3.949  16.729  0.00  0.00    +0.031 C 
ATOM     19  H   UNL     1       5.042   3.213  15.942  0.00  0.00    +0.047 HD
ATOM     20  H   UNL     1       6.232   3.709  17.144  0.00  0.00    +0.047 HD
BRANCH  18  21
ATOM     21  N   UNL     1       4.240   3.747  17.762  0.00  0.00    -0.234 N 
ATOM     22  C   UNL     1       2.925   3.435  17.540  0.00  0.00    +0.254 C 
ATOM     23  O   UNL     1       2.325   3.327  16.486  0.00  0.00    -0.270 OA
ATOM     24  C   UNL     1       2.316   3.223  18.851  0.00  0.00    +0.049 A 
ATOM     25  C   UNL     1       1.011   2.931  19.198  0.00  0.00    -0.049 A 
ATOM     26  C   UNL     1       0.733   2.775  20.560  0.00  0.00    -0.061 A 
ATOM     27  C   UNL     1       1.751   2.910  21.527  0.00  0.00    -0.061 A 
ATOM     28  C   UNL     1       3.064   3.204  21.149  0.00  0.00    -0.049 A 
ATOM     29  C   UNL     1       3.313   3.358  19.799  0.00  0.00    +0.049 A 
ATOM     30  C   UNL     1       4.557   3.654  19.093  0.00  0.00    +0.254 C 
ATOM     31  O   UNL     1       5.640   3.750  19.638  0.00  0.00    -0.270 OA
ATOM     32  H   UNL     1       0.238   2.832  18.444  0.00  0.00    +0.063 HD
ATOM     33  H   UNL     1      -0.282   2.548  20.880  0.00  0.00    +0.062 HD
ATOM     34  H   UNL     1       1.509   2.784  22.581  0.00  0.00    +0.062 HD
ATOM     35  H   UNL     1       3.860   3.312  21.882  0.00  0.00    +0.063 HD
ENDBRANCH  18  21
ENDBRANCH  15  18
ENDBRANCH  12  15
ENDBRANCH   4  11
BRANCH   1  36
ATOM     36  S   UNL     1       0.296   9.871  21.040  0.00  0.00    +0.073 S 
ATOM     37  O   UNL     1       1.170  10.883  21.594  0.00  0.00    -0.150 OA
ATOM     38  O   UNL     1      -0.433   8.963  21.902  0.00  0.00    -0.150 OA
BRANCH  36  42
ATOM     39  C   UNL     1      -2.048  13.652  21.671  0.00  0.00    +0.044 A 
ATOM     40  C   UNL     1      -1.885  12.300  21.477  0.00  0.00    +0.001 A 
ATOM     41  C   UNL     1      -1.161  11.953  20.363  0.00  0.00    +0.141 A 
ATOM     42  N   UNL     1      -0.851  10.614  20.048  0.00  0.00    -0.199 N 
ATOM     43  N   UNL     1      -0.627  12.812  19.490  0.00  0.00    -0.216 NA
ATOM     44  C   UNL     1      -0.817  14.110  19.776  0.00  0.00    +0.128 A 
ATOM     45  N   UNL     1      -1.518  14.567  20.832  0.00  0.00    -0.237 NA
ATOM     46  H   UNL     1      -2.293  11.563  22.153  0.00  0.00    +0.067 HD
ATOM     47  H   UNL     1      -0.593  10.518  19.068  0.00  0.00    +0.175 HD
BRANCH  39  48
ATOM     48  C   UNL     1      -2.815  14.160  22.853  0.00  0.00    -0.022 C 
ATOM     49  H   UNL     1      -3.589  14.864  22.529  0.00  0.00    +0.029 HD
ATOM     50  H   UNL     1      -3.303  13.335  23.385  0.00  0.00    +0.029 HD
ATOM     51  H   UNL     1      -2.140  14.662  23.555  0.00  0.00    +0.029 HD
ENDBRANCH  39  48
BRANCH  44  52
ATOM     52  C   UNL     1      -0.231  15.124  18.845  0.00  0.00    -0.005 C 
ATOM     53  H   UNL     1      -1.019  15.778  18.463  0.00  0.00    +0.031 HD
ATOM     54  H   UNL     1       0.259  14.634  17.996  0.00  0.00    +0.031 HD
ATOM     55  H   UNL     1       0.516  15.732  19.365  0.00  0.00    +0.031 HD
ENDBRANCH  44  52
ENDBRANCH  36  42
ENDBRANCH   1  36
TORSDOF 8
ENDMDL
MODEL 11
REMARK VINA RESULT:    -8.410      1.745      2.900
REMARK INTER + INTRA:         -11.842
REMARK INTER:                 -11.601
REMARK INTRA:                  -0.241
REMARK UNBOUND:                 0.009
REMARK  Name = 
REMARK  8 active torsions:
REMARK  status: ('A' for Active; 'I' for Inactive)
REMARK    1  A    between atoms: C_1  and  C_2
REMARK    2  A    between atoms: N_5  and  S_6
REMARK    3  A    between atoms: S_6  and  C_9
REMARK    4  A    between atoms: C_12  and  N_13
REMARK    5  A    between atoms: C_14  and  C_16
REMARK    6  A    between atoms: C_16  and  C_17
REMARK    7  A    between atoms: C_17  and  N_18
REMARK    8  A    between atoms: C_32  and  C_33
REMARK                            x       y       z     vdW  Elec       q    Type
REMARK                         _______ _______ _______ _____ _____    ______ ____
ROOT
ATOM      1  C   UNL     1       2.032   7.096  19.770  0.00  0.00    +0.109 A 
ATOM      2  C   UNL     1       1.538   7.111  21.074  0.00  0.00    -0.033 A 
ATOM      3  C   UNL     1       0.963   8.279  21.586  0.00  0.00    -0.039 A 
ATOM      4  C   UNL     1       0.899   9.440  20.808  0.00  0.00    +0.033 A 
ATOM      5  C   UNL     1       1.430   9.419  19.510  0.00  0.00    -0.039 A 
ATOM      6  C   UNL     1       1.998   8.252  18.987  0.00  0.00    -0.033 A 
ATOM      7  H   UNL     1       1.580   6.222  21.701  0.00  0.00    +0.064 HD
ATOM      8  H   UNL     1       0.577   8.247  22.601  0.00  0.00    +0.064 HD
ATOM      9  H   UNL     1       1.407  10.308  18.884  0.00  0.00    +0.064 HD
ATOM     10  H   UNL     1       2.405   8.258  17.978  0.00  0.00    +0.064 HD
ENDROOT
BRANCH   4  11
ATOM     11  N   UNL     1       0.329  10.653  21.246  0.00  0.00    -0.285 N 
ATOM     12  C   UNL     1      -0.536  10.841  22.310  0.00  0.00    +0.219 C 
ATOM     13  O   UNL     1      -0.971   9.971  23.058  0.00  0.00    -0.275 OA
ATOM     14  H   UNL     1       0.621  11.484  20.742  0.00  0.00    +0.155 HD
BRANCH  12  15
ATOM     15  C   UNL     1      -0.958  12.287  22.473  0.00  0.00    +0.041 C 
ATOM     16  H   UNL     1      -0.314  12.732  23.240  0.00  0.00    +0.037 HD
ATOM     17  H   UNL     1      -1.984  12.362  22.848  0.00  0.00    +0.037 HD
BRANCH  15  18
ATOM     18  C   UNL     1      -0.801  13.054  21.165  0.00  0.00    +0.031 C 
ATOM     19  H   UNL     1      -0.994  14.118  21.352  0.00  0.00    +0.047 HD
ATOM     20  H   UNL     1       0.230  12.976  20.799  0.00  0.00    +0.047 HD
BRANCH  18  21
ATOM     21  N   UNL     1      -1.707  12.645  20.102  0.00  0.00    -0.234 N 
ATOM     22  C   UNL     1      -1.331  12.122  18.894  0.00  0.00    +0.254 C 
ATOM     23  O   UNL     1      -0.212  11.952  18.442  0.00  0.00    -0.270 OA
ATOM     24  C   UNL     1      -2.558  11.762  18.189  0.00  0.00    +0.049 A 
ATOM     25  C   UNL     1      -2.748  11.239  16.925  0.00  0.00    -0.049 A 
ATOM     26  C   UNL     1      -4.066  10.988  16.529  0.00  0.00    -0.061 A 
ATOM     27  C   UNL     1      -5.146  11.259  17.394  0.00  0.00    -0.061 A 
ATOM     28  C   UNL     1      -4.927  11.787  18.670  0.00  0.00    -0.049 A 
ATOM     29  C   UNL     1      -3.618  12.030  19.036  0.00  0.00    +0.049 A 
ATOM     30  C   UNL     1      -3.064  12.560  20.280  0.00  0.00    +0.254 C 
ATOM     31  O   UNL     1      -3.732  12.820  21.263  0.00  0.00    -0.270 OA
ATOM     32  H   UNL     1      -1.908  11.036  16.269  0.00  0.00    +0.063 HD
ATOM     33  H   UNL     1      -4.262  10.579  15.539  0.00  0.00    +0.062 HD
ATOM     34  H   UNL     1      -6.163  11.056  17.063  0.00  0.00    +0.062 HD
ATOM     35  H   UNL     1      -5.749  12.003  19.348  0.00  0.00    +0.063 HD
ENDBRANCH  18  21
ENDBRANCH  15  18
ENDBRANCH  12  15
ENDBRANCH   4  11
BRANCH   1  36
ATOM     36  S   UNL     1       2.742   5.607  19.103  0.00  0.00    +0.073 S 
ATOM     37  O   UNL     1       1.733   4.570  19.137  0.00  0.00    -0.150 OA
ATOM     38  O   UNL     1       4.026   5.417  19.746  0.00  0.00    -0.150 OA
BRANCH  36  42
ATOM     39  C   UNL     1       6.610   6.796  17.151  0.00  0.00    +0.044 A 
ATOM     40  C   UNL     1       5.308   6.974  17.555  0.00  0.00    +0.001 A 
ATOM     41  C   UNL     1       4.426   6.013  17.124  0.00  0.00    +0.141 A 
ATOM     42  N   UNL     1       3.066   6.012  17.496  0.00  0.00    -0.199 N 
ATOM     43  N   UNL     1       4.743   4.958  16.367  0.00  0.00    -0.216 NA
ATOM     44  C   UNL     1       6.042   4.855  16.044  0.00  0.00    +0.128 A 
ATOM     45  N   UNL     1       6.992   5.741  16.399  0.00  0.00    -0.237 NA
ATOM     46  H   UNL     1       4.998   7.807  18.169  0.00  0.00    +0.067 HD
ATOM     47  H   UNL     1       2.514   5.436  16.864  0.00  0.00    +0.175 HD
BRANCH  39  48
ATOM     48  C   UNL     1       7.670   7.774  17.559  0.00  0.00    -0.022 C 
ATOM     49  H   UNL     1       8.030   8.327  16.685  0.00  0.00    +0.029 HD
ATOM     50  H   UNL     1       7.275   8.496  18.282  0.00  0.00    +0.029 HD
ATOM     51  H   UNL     1       8.509   7.249  18.028  0.00  0.00    +0.029 HD
ENDBRANCH  39  48
BRANCH  44  52
ATOM     52  C   UNL     1       6.464   3.687  15.210  0.00  0.00    -0.005 C 
ATOM     53  H   UNL     1       7.538   3.738  15.016  0.00  0.00    +0.031 HD
ATOM     54  H   UNL     1       5.935   3.684  14.251  0.00  0.00    +0.031 HD
ATOM     55  H   UNL     1       6.239   2.749  15.727  0.00  0.00    +0.031 HD
ENDBRANCH  44  52
ENDBRANCH  36  42
ENDBRANCH   1  36
TORSDOF 8
ENDMDL
MODEL 12
REMARK VINA RESULT:    -8.388      2.011      3.227
REMARK INTER + INTRA:         -11.811
REMARK INTER:                 -11.671
REMARK INTRA:                  -0.140
REMARK UNBOUND:                 0.009
REMARK  Name = 
REMARK  8 active torsions:
REMARK  status: ('A' for Active; 'I' for Inactive)
REMARK    1  A    between atoms: C_1  and  C_2
REMARK    2  A    between atoms: N_5  and  S_6
REMARK    3  A    between atoms: S_6  and  C_9
REMARK    4  A    between atoms: C_12  and  N_13
REMARK    5  A    between atoms: C_14  and  C_16
REMARK    6  A    between atoms: C_16  and  C_17
REMARK    7  A    between atoms: C_17  and  N_18
REMARK    8  A    between atoms: C_32  and  C_33
REMARK                            x       y       z     vdW  Elec       q    Type
REMARK                         _______ _______ _______ _____ _____    ______ ____
ROOT
ATOM      1  C   UNL     1       2.625   5.200  18.907  0.00  0.00    +0.109 A 
ATOM      2  C   UNL     1       2.667   6.083  17.828  0.00  0.00    -0.033 A 
ATOM      3  C   UNL     1       2.364   7.434  18.025  0.00  0.00    -0.039 A 
ATOM      4  C   UNL     1       1.997   7.904  19.291  0.00  0.00    +0.033 A 
ATOM      5  C   UNL     1       1.928   6.997  20.359  0.00  0.00    -0.039 A 
ATOM      6  C   UNL     1       2.240   5.646  20.172  0.00  0.00    -0.033 A 
ATOM      7  H   UNL     1       2.944   5.742  16.832  0.00  0.00    +0.064 HD
ATOM      8  H   UNL     1       2.421   8.094  17.163  0.00  0.00    +0.064 HD
ATOM      9  H   UNL     1       1.636   7.328  21.353  0.00  0.00    +0.064 HD
ATOM     10  H   UNL     1       2.179   4.960  21.014  0.00  0.00    +0.064 HD
ENDROOT
BRANCH   4  11
ATOM     11  N   UNL     1       1.686   9.250  19.574  0.00  0.00    -0.285 N 
ATOM     12  C   UNL     1       0.702  10.027  18.989  0.00  0.00    +0.219 C 
ATOM     13  O   UNL     1      -0.071   9.679  18.102  0.00  0.00    -0.275 OA
ATOM     14  H   UNL     1       2.224   9.678  20.321  0.00  0.00    +0.155 HD
BRANCH  12  15
ATOM     15  C   UNL     1       0.670  11.441  19.536  0.00  0.00    +0.041 C 
ATOM     16  H   UNL     1       1.518  11.981  19.098  0.00  0.00    +0.037 HD
ATOM     17  H   UNL     1       0.822  11.451  20.620  0.00  0.00    +0.037 HD
BRANCH  15  18
ATOM     18  C   UNL     1      -0.631  12.142  19.164  0.00  0.00    +0.031 C 
ATOM     19  H   UNL     1      -0.397  13.143  18.782  0.00  0.00    +0.047 HD
ATOM     20  H   UNL     1      -1.138  11.602  18.356  0.00  0.00    +0.047 HD
BRANCH  18  21
ATOM     21  N   UNL     1      -1.567  12.323  20.265  0.00  0.00    -0.234 N 
ATOM     22  C   UNL     1      -1.231  12.687  21.541  0.00  0.00    +0.254 C 
ATOM     23  O   UNL     1      -0.128  12.869  22.027  0.00  0.00    -0.270 OA
ATOM     24  C   UNL     1      -2.482  12.850  22.276  0.00  0.00    +0.049 A 
ATOM     25  C   UNL     1      -2.711  13.165  23.601  0.00  0.00    -0.049 A 
ATOM     26  C   UNL     1      -4.044  13.258  24.015  0.00  0.00    -0.061 A 
ATOM     27  C   UNL     1      -5.101  13.041  23.106  0.00  0.00    -0.061 A 
ATOM     28  C   UNL     1      -4.842  12.725  21.768  0.00  0.00    -0.049 A 
ATOM     29  C   UNL     1      -3.518  12.634  21.386  0.00  0.00    +0.049 A 
ATOM     30  C   UNL     1      -2.926  12.336  20.084  0.00  0.00    +0.254 C 
ATOM     31  O   UNL     1      -3.572  12.177  19.066  0.00  0.00    -0.270 OA
ATOM     32  H   UNL     1      -1.889  13.327  24.290  0.00  0.00    +0.063 HD
ATOM     33  H   UNL     1      -4.272  13.501  25.051  0.00  0.00    +0.062 HD
ATOM     34  H   UNL     1      -6.130  13.119  23.451  0.00  0.00    +0.062 HD
ATOM     35  H   UNL     1      -5.645  12.554  21.056  0.00  0.00    +0.063 HD
ENDBRANCH  18  21
ENDBRANCH  15  18
ENDBRANCH  12  15
ENDBRANCH   4  11
BRANCH   1  36
ATOM     36  S   UNL     1       3.034   3.484  18.669  0.00  0.00    +0.073 S 
ATOM     37  O   UNL     1       2.590   3.093  17.348  0.00  0.00    -0.150 OA
ATOM     38  O   UNL     1       2.589   2.769  19.847  0.00  0.00    -0.150 OA
BRANCH  36  42
ATOM     39  C   UNL     1       6.005   4.434  15.435  0.00  0.00    +0.044 A 
ATOM     40  C   UNL     1       5.385   3.635  16.368  0.00  0.00    +0.001 A 
ATOM     41  C   UNL     1       5.367   4.136  17.647  0.00  0.00    +0.141 A 
ATOM     42  N   UNL     1       4.722   3.473  18.710  0.00  0.00    -0.199 N 
ATOM     43  N   UNL     1       5.894   5.304  18.025  0.00  0.00    -0.216 NA
ATOM     44  C   UNL     1       6.455   6.025  17.041  0.00  0.00    +0.128 A 
ATOM     45  N   UNL     1       6.541   5.630  15.756  0.00  0.00    -0.237 NA
ATOM     46  H   UNL     1       4.941   2.683  16.115  0.00  0.00    +0.067 HD
ATOM     47  H   UNL     1       5.060   3.809  19.610  0.00  0.00    +0.175 HD
BRANCH  39  48
ATOM     48  C   UNL     1       6.088   4.000  14.003  0.00  0.00    -0.022 C 
ATOM     49  H   UNL     1       6.032   2.909  13.934  0.00  0.00    +0.029 HD
ATOM     50  H   UNL     1       5.262   4.424  13.420  0.00  0.00    +0.029 HD
ATOM     51  H   UNL     1       7.028   4.345  13.558  0.00  0.00    +0.029 HD
ENDBRANCH  39  48
BRANCH  44  52
ATOM     52  C   UNL     1       7.049   7.351  17.398  0.00  0.00    -0.005 C 
ATOM     53  H   UNL     1       6.290   8.133  17.313  0.00  0.00    +0.031 HD
ATOM     54  H   UNL     1       7.881   7.597  16.728  0.00  0.00    +0.031 HD
ATOM     55  H   UNL     1       7.431   7.334  18.423  0.00  0.00    +0.031 HD
ENDBRANCH  44  52
ENDBRANCH  36  42
ENDBRANCH   1  36
TORSDOF 8
ENDMDL
MODEL 13
REMARK VINA RESULT:    -8.250      3.085      9.439
REMARK INTER + INTRA:         -11.617
REMARK INTER:                 -10.651
REMARK INTRA:                  -0.966
REMARK UNBOUND:                 0.009
REMARK  Name = 
REMARK  8 active torsions:
REMARK  status: ('A' for Active; 'I' for Inactive)
REMARK    1  A    between atoms: C_1  and  C_2
REMARK    2  A    between atoms: N_5  and  S_6
REMARK    3  A    between atoms: S_6  and  C_9
REMARK    4  A    between atoms: C_12  and  N_13
REMARK    5  A    between atoms: C_14  and  C_16
REMARK    6  A    between atoms: C_16  and  C_17
REMARK    7  A    between atoms: C_17  and  N_18
REMARK    8  A    between atoms: C_32  and  C_33
REMARK                            x       y       z     vdW  Elec       q    Type
REMARK                         _______ _______ _______ _____ _____    ______ ____
ROOT
ATOM      1  C   UNL     1       1.556   9.283  19.237  0.00  0.00    +0.109 A 
ATOM      2  C   UNL     1       2.292   8.533  18.320  0.00  0.00    -0.033 A 
ATOM      3  C   UNL     1       2.657   7.220  18.631  0.00  0.00    -0.039 A 
ATOM      4  C   UNL     1       2.309   6.658  19.864  0.00  0.00    +0.033 A 
ATOM      5  C   UNL     1       1.598   7.436  20.789  0.00  0.00    -0.039 A 
ATOM      6  C   UNL     1       1.220   8.747  20.482  0.00  0.00    -0.033 A 
ATOM      7  H   UNL     1       2.579   8.949  17.356  0.00  0.00    +0.064 HD
ATOM      8  H   UNL     1       3.217   6.662  17.885  0.00  0.00    +0.064 HD
ATOM      9  H   UNL     1       1.322   7.032  21.762  0.00  0.00    +0.064 HD
ATOM     10  H   UNL     1       0.670   9.334  21.215  0.00  0.00    +0.064 HD
ENDROOT
BRANCH   4  11
ATOM     11  N   UNL     1       2.630   5.340  20.250  0.00  0.00    -0.285 N 
ATOM     12  C   UNL     1       2.083   4.165  19.765  0.00  0.00    +0.219 C 
ATOM     13  O   UNL     1       1.205   4.065  18.915  0.00  0.00    -0.275 OA
ATOM     14  H   UNL     1       3.375   5.250  20.933  0.00  0.00    +0.155 HD
BRANCH  12  15
ATOM     15  C   UNL     1       2.664   2.931  20.429  0.00  0.00    +0.041 C 
ATOM     16  H   UNL     1       2.113   2.064  20.047  0.00  0.00    +0.037 HD
ATOM     17  H   UNL     1       2.501   2.949  21.511  0.00  0.00    +0.037 HD
BRANCH  15  18
ATOM     18  C   UNL     1       4.145   2.781  20.105  0.00  0.00    +0.031 C 
ATOM     19  H   UNL     1       4.733   3.251  20.904  0.00  0.00    +0.047 HD
ATOM     20  H   UNL     1       4.425   1.721  20.084  0.00  0.00    +0.047 HD
BRANCH  18  21
ATOM     21  N   UNL     1       4.566   3.402  18.857  0.00  0.00    -0.234 N 
ATOM     22  C   UNL     1       5.411   4.473  18.748  0.00  0.00    +0.254 C 
ATOM     23  O   UNL     1       5.921   5.147  19.627  0.00  0.00    -0.270 OA
ATOM     24  C   UNL     1       5.635   4.690  17.321  0.00  0.00    +0.049 A 
ATOM     25  C   UNL     1       6.367   5.660  16.664  0.00  0.00    -0.049 A 
ATOM     26  C   UNL     1       6.399   5.598  15.267  0.00  0.00    -0.061 A 
ATOM     27  C   UNL     1       5.712   4.582  14.571  0.00  0.00    -0.061 A 
ATOM     28  C   UNL     1       4.979   3.610  15.260  0.00  0.00    -0.049 A 
ATOM     29  C   UNL     1       4.959   3.696  16.639  0.00  0.00    +0.049 A 
ATOM     30  C   UNL     1       4.306   2.845  17.631  0.00  0.00    +0.254 C 
ATOM     31  O   UNL     1       3.695   1.830  17.358  0.00  0.00    -0.270 OA
ATOM     32  H   UNL     1       6.890   6.436  17.211  0.00  0.00    +0.063 HD
ATOM     33  H   UNL     1       6.961   6.344  14.707  0.00  0.00    +0.062 HD
ATOM     34  H   UNL     1       5.751   4.555  13.484  0.00  0.00    +0.062 HD
ATOM     35  H   UNL     1       4.442   2.822  14.739  0.00  0.00    +0.063 HD
ENDBRANCH  18  21
ENDBRANCH  15  18
ENDBRANCH  12  15
ENDBRANCH   4  11
BRANCH   1  36
ATOM     36  S   UNL     1       1.067  10.947  18.839  0.00  0.00    +0.073 S 
ATOM     37  O   UNL     1      -0.333  10.932  18.474  0.00  0.00    -0.150 OA
ATOM     38  O   UNL     1       2.066  11.485  17.938  0.00  0.00    -0.150 OA
BRANCH  36  42
ATOM     39  C   UNL     1      -1.571  14.037  20.757  0.00  0.00    +0.044 A 
ATOM     40  C   UNL     1      -0.409  13.559  20.199  0.00  0.00    +0.001 A 
ATOM     41  C   UNL     1       0.097  12.425  20.786  0.00  0.00    +0.141 A 
ATOM     42  N   UNL     1       1.249  11.771  20.302  0.00  0.00    -0.199 N 
ATOM     43  N   UNL     1      -0.449  11.784  21.824  0.00  0.00    -0.216 NA
ATOM     44  C   UNL     1      -1.595  12.311  22.283  0.00  0.00    +0.128 A 
ATOM     45  N   UNL     1      -2.176  13.423  21.795  0.00  0.00    -0.237 NA
ATOM     46  H   UNL     1       0.073  14.036  19.358  0.00  0.00    +0.067 HD
ATOM     47  H   UNL     1       1.647  11.158  21.011  0.00  0.00    +0.175 HD
BRANCH  39  48
ATOM     48  C   UNL     1      -2.225  15.267  20.203  0.00  0.00    -0.022 C 
ATOM     49  H   UNL     1      -1.826  16.161  20.693  0.00  0.00    +0.029 HD
ATOM     50  H   UNL     1      -2.042  15.355  19.127  0.00  0.00    +0.029 HD
ATOM     51  H   UNL     1      -3.309  15.221  20.359  0.00  0.00    +0.029 HD
ENDBRANCH  39  48
BRANCH  44  52
ATOM     52  C   UNL     1      -2.264  11.630  23.435  0.00  0.00    -0.005 C 
ATOM     53  H   UNL     1      -3.205  12.135  23.670  0.00  0.00    +0.031 HD
ATOM     54  H   UNL     1      -1.624  11.652  24.325  0.00  0.00    +0.031 HD
ATOM     55  H   UNL     1      -2.473  10.584  23.190  0.00  0.00    +0.031 HD
ENDBRANCH  44  52
ENDBRANCH  36  42
ENDBRANCH   1  36
TORSDOF 8
ENDMDL
MODEL 14
REMARK VINA RESULT:    -8.240      3.112      9.484
REMARK INTER + INTRA:         -11.603
REMARK INTER:                 -10.652
REMARK INTRA:                  -0.951
REMARK UNBOUND:                 0.009
REMARK  Name = 
REMARK  8 active torsions:
REMARK  status: ('A' for Active; 'I' for Inactive)
REMARK    1  A    between atoms: C_1  and  C_2
REMARK    2  A    between atoms: N_5  and  S_6
REMARK    3  A    between atoms: S_6  and  C_9
REMARK    4  A    between atoms: C_12  and  N_13
REMARK    5  A    between atoms: C_14  and  C_16
REMARK    6  A    between atoms: C_16  and  C_17
REMARK    7  A    between atoms: C_17  and  N_18
REMARK    8  A    between atoms: C_32  and  C_33
REMARK                            x       y       z     vdW  Elec       q    Type
REMARK                         _______ _______ _______ _____ _____    ______ ____
ROOT
ATOM      1  C   UNL     1       1.585   9.370  19.271  0.00  0.00    +0.109 A 
ATOM      2  C   UNL     1       2.321   8.627  18.348  0.00  0.00    -0.033 A 
ATOM      3  C   UNL     1       2.651   7.298  18.632  0.00  0.00    -0.039 A 
ATOM      4  C   UNL     1       2.270   6.714  19.845  0.00  0.00    +0.033 A 
ATOM      5  C   UNL     1       1.559   7.484  20.777  0.00  0.00    -0.039 A 
ATOM      6  C   UNL     1       1.216   8.811  20.496  0.00  0.00    -0.033 A 
ATOM      7  H   UNL     1       2.634   9.060  17.399  0.00  0.00    +0.064 HD
ATOM      8  H   UNL     1       3.213   6.747  17.882  0.00  0.00    +0.064 HD
ATOM      9  H   UNL     1       1.258   7.063  21.734  0.00  0.00    +0.064 HD
ATOM     10  H   UNL     1       0.665   9.391  21.233  0.00  0.00    +0.064 HD
ENDROOT
BRANCH   4  11
ATOM     11  N   UNL     1       2.555   5.380  20.203  0.00  0.00    -0.285 N 
ATOM     12  C   UNL     1       2.033   4.228  19.643  0.00  0.00    +0.219 C 
ATOM     13  O   UNL     1       1.210   4.167  18.735  0.00  0.00    -0.275 OA
ATOM     14  H   UNL     1       3.254   5.259  20.929  0.00  0.00    +0.155 HD
BRANCH  12  15
ATOM     15  C   UNL     1       2.560   2.967  20.299  0.00  0.00    +0.041 C 
ATOM     16  H   UNL     1       2.080   2.115  19.802  0.00  0.00    +0.037 HD
ATOM     17  H   UNL     1       2.269   2.915  21.352  0.00  0.00    +0.037 HD
BRANCH  15  18
ATOM     18  C   UNL     1       4.073   2.862  20.146  0.00  0.00    +0.031 C 
ATOM     19  H   UNL     1       4.551   3.451  20.939  0.00  0.00    +0.047 HD
ATOM     20  H   UNL     1       4.399   1.824  20.280  0.00  0.00    +0.047 HD
BRANCH  18  21
ATOM     21  N   UNL     1       4.597   3.359  18.882  0.00  0.00    -0.234 N 
ATOM     22  C   UNL     1       4.266   2.882  17.642  0.00  0.00    +0.254 C 
ATOM     23  O   UNL     1       3.546   1.945  17.343  0.00  0.00    -0.270 OA
ATOM     24  C   UNL     1       4.941   3.735  16.668  0.00  0.00    +0.049 A 
ATOM     25  C   UNL     1       4.979   3.667  15.289  0.00  0.00    -0.049 A 
ATOM     26  C   UNL     1       5.718   4.650  14.622  0.00  0.00    -0.061 A 
ATOM     27  C   UNL     1       6.388   5.664  15.338  0.00  0.00    -0.061 A 
ATOM     28  C   UNL     1       6.332   5.711  16.735  0.00  0.00    -0.049 A 
ATOM     29  C   UNL     1       5.600   4.727  17.370  0.00  0.00    +0.049 A 
ATOM     30  C   UNL     1       5.344   4.506  18.792  0.00  0.00    +0.254 C 
ATOM     31  O   UNL     1       5.717   5.256  19.673  0.00  0.00    -0.270 OA
ATOM     32  H   UNL     1       4.461   2.882  14.751  0.00  0.00    +0.063 HD
ATOM     33  H   UNL     1       5.778   4.634  13.535  0.00  0.00    +0.062 HD
ATOM     34  H   UNL     1       6.957   6.417  14.797  0.00  0.00    +0.062 HD
ATOM     35  H   UNL     1       6.844   6.484  17.302  0.00  0.00    +0.063 HD
ENDBRANCH  18  21
ENDBRANCH  15  18
ENDBRANCH  12  15
ENDBRANCH   4  11
BRANCH   1  36
ATOM     36  S   UNL     1       1.139  11.054  18.906  0.00  0.00    +0.073 S 
ATOM     37  O   UNL     1      -0.248  11.075  18.492  0.00  0.00    -0.150 OA
ATOM     38  O   UNL     1       2.178  11.600  18.057  0.00  0.00    -0.150 OA
BRANCH  36  42
ATOM     39  C   UNL     1      -1.584  14.031  20.883  0.00  0.00    +0.044 A 
ATOM     40  C   UNL     1      -0.404  13.591  20.328  0.00  0.00    +0.001 A 
ATOM     41  C   UNL     1       0.112  12.447  20.885  0.00  0.00    +0.141 A 
ATOM     42  N   UNL     1       1.283  11.830  20.398  0.00  0.00    -0.199 N 
ATOM     43  N   UNL     1      -0.438  11.762  21.892  0.00  0.00    -0.216 NA
ATOM     44  C   UNL     1      -1.601  12.253  22.350  0.00  0.00    +0.128 A 
ATOM     45  N   UNL     1      -2.194  13.371  21.890  0.00  0.00    -0.237 NA
ATOM     46  H   UNL     1       0.081  14.105  19.512  0.00  0.00    +0.067 HD
ATOM     47  H   UNL     1       1.681  11.200  21.092  0.00  0.00    +0.175 HD
BRANCH  39  48
ATOM     48  C   UNL     1      -2.252  15.267  20.360  0.00  0.00    -0.022 C 
ATOM     49  H   UNL     1      -3.299  15.058  20.120  0.00  0.00    +0.029 HD
ATOM     50  H   UNL     1      -2.224  16.069  21.106  0.00  0.00    +0.029 HD
ATOM     51  H   UNL     1      -1.737  15.623  19.461  0.00  0.00    +0.029 HD
ENDBRANCH  39  48
BRANCH  44  52
ATOM     52  C   UNL     1      -2.276  11.522  23.468  0.00  0.00    -0.005 C 
ATOM     53  H   UNL     1      -2.023  10.460  23.422  0.00  0.00    +0.031 HD
ATOM     54  H   UNL     1      -3.364  11.627  23.398  0.00  0.00    +0.031 HD
ATOM     55  H   UNL     1      -1.955  11.924  24.434  0.00  0.00    +0.031 HD
ENDBRANCH  44  52
ENDBRANCH  36  42
ENDBRANCH   1  36
TORSDOF 8
ENDMDL
MODEL 15
REMARK VINA RESULT:    -8.137      2.247      3.632
REMARK INTER + INTRA:         -11.458
REMARK INTER:                 -11.306
REMARK INTRA:                  -0.152
REMARK UNBOUND:                 0.009
REMARK  Name = 
REMARK  8 active torsions:
REMARK  status: ('A' for Active; 'I' for Inactive)
REMARK    1  A    between atoms: C_1  and  C_2
REMARK    2  A    between atoms: N_5  and  S_6
REMARK    3  A    between atoms: S_6  and  C_9
REMARK    4  A    between atoms: C_12  and  N_13
REMARK    5  A    between atoms: C_14  and  C_16
REMARK    6  A    between atoms: C_16  and  C_17
REMARK    7  A    between atoms: C_17  and  N_18
REMARK    8  A    between atoms: C_32  and  C_33
REMARK                            x       y       z     vdW  Elec       q    Type
REMARK                         _______ _______ _______ _____ _____    ______ ____
ROOT
ATOM      1  C   UNL     1       3.772   6.581  17.971  0.00  0.00    +0.109 A 
ATOM      2  C   UNL     1       3.386   6.220  19.262  0.00  0.00    -0.033 A 
ATOM      3  C   UNL     1       2.447   6.998  19.947  0.00  0.00    -0.039 A 
ATOM      4  C   UNL     1       1.909   8.147  19.358  0.00  0.00    +0.033 A 
ATOM      5  C   UNL     1       2.333   8.514  18.073  0.00  0.00    -0.039 A 
ATOM      6  C   UNL     1       3.263   7.737  17.376  0.00  0.00    -0.033 A 
ATOM      7  H   UNL     1       3.793   5.333  19.744  0.00  0.00    +0.064 HD
ATOM      8  H   UNL     1       2.160   6.677  20.945  0.00  0.00    +0.064 HD
ATOM      9  H   UNL     1       1.942   9.409  17.592  0.00  0.00    +0.064 HD
ATOM     10  H   UNL     1       3.579   8.040  16.381  0.00  0.00    +0.064 HD
ENDROOT
BRANCH   4  11
ATOM     11  N   UNL     1       0.953   8.978  19.978  0.00  0.00    -0.285 N 
ATOM     12  C   UNL     1       0.886   9.333  21.314  0.00  0.00    +0.219 C 
ATOM     13  O   UNL     1       1.650   8.971  22.204  0.00  0.00    -0.275 OA
ATOM     14  H   UNL     1       0.261   9.390  19.361  0.00  0.00    +0.155 HD
BRANCH  12  15
ATOM     15  C   UNL     1      -0.294  10.233  21.623  0.00  0.00    +0.041 C 
ATOM     16  H   UNL     1      -0.226  10.511  22.681  0.00  0.00    +0.037 HD
ATOM     17  H   UNL     1      -1.242   9.700  21.503  0.00  0.00    +0.037 HD
BRANCH  15  18
ATOM     18  C   UNL     1      -0.265  11.489  20.760  0.00  0.00    +0.031 C 
ATOM     19  H   UNL     1      -0.388  12.367  21.407  0.00  0.00    +0.047 HD
ATOM     20  H   UNL     1       0.709  11.590  20.267  0.00  0.00    +0.047 HD
BRANCH  18  21
ATOM     21  N   UNL     1      -1.312  11.564  19.751  0.00  0.00    -0.234 N 
ATOM     22  C   UNL     1      -1.246  11.021  18.496  0.00  0.00    +0.254 C 
ATOM     23  O   UNL     1      -0.321  10.441  17.954  0.00  0.00    -0.270 OA
ATOM     24  C   UNL     1      -2.546  11.246  17.870  0.00  0.00    +0.049 A 
ATOM     25  C   UNL     1      -2.997  10.938  16.602  0.00  0.00    -0.049 A 
ATOM     26  C   UNL     1      -4.319  11.277  16.295  0.00  0.00    -0.061 A 
ATOM     27  C   UNL     1      -5.147  11.904  17.250  0.00  0.00    -0.061 A 
ATOM     28  C   UNL     1      -4.666  12.203  18.528  0.00  0.00    -0.049 A 
ATOM     29  C   UNL     1      -3.356  11.862  18.806  0.00  0.00    +0.049 A 
ATOM     30  C   UNL     1      -2.572  12.029  20.027  0.00  0.00    +0.254 C 
ATOM     31  O   UNL     1      -3.023  12.468  21.068  0.00  0.00    -0.270 OA
ATOM     32  H   UNL     1      -2.350  10.457  15.876  0.00  0.00    +0.063 HD
ATOM     33  H   UNL     1      -4.716  11.057  15.305  0.00  0.00    +0.062 HD
ATOM     34  H   UNL     1      -6.172  12.159  16.987  0.00  0.00    +0.062 HD
ATOM     35  H   UNL     1      -5.290  12.687  19.275  0.00  0.00    +0.063 HD
ENDBRANCH  18  21
ENDBRANCH  15  18
ENDBRANCH  12  15
ENDBRANCH   4  11
BRANCH   1  36
ATOM     36  S   UNL     1       4.948   5.583  17.082  0.00  0.00    +0.073 S 
ATOM     37  O   UNL     1       6.074   5.325  17.955  0.00  0.00    -0.150 OA
ATOM     38  O   UNL     1       5.137   6.195  15.783  0.00  0.00    -0.150 OA
BRANCH  36  42
ATOM     39  C   UNL     1       4.075   2.192  19.898  0.00  0.00    +0.044 A 
ATOM     40  C   UNL     1       4.616   2.779  18.778  0.00  0.00    +0.001 A 
ATOM     41  C   UNL     1       3.718   3.434  17.971  0.00  0.00    +0.141 A 
ATOM     42  N   UNL     1       4.114   4.139  16.815  0.00  0.00    -0.199 N 
ATOM     43  N   UNL     1       2.405   3.533  18.197  0.00  0.00    -0.216 NA
ATOM     44  C   UNL     1       1.974   2.951  19.328  0.00  0.00    +0.128 A 
ATOM     45  N   UNL     1       2.759   2.272  20.187  0.00  0.00    -0.237 NA
ATOM     46  H   UNL     1       5.670   2.732  18.549  0.00  0.00    +0.067 HD
ATOM     47  H   UNL     1       3.324   4.292  16.191  0.00  0.00    +0.175 HD
BRANCH  39  48
ATOM     48  C   UNL     1       4.951   1.450  20.862  0.00  0.00    -0.022 C 
ATOM     49  H   UNL     1       5.984   1.440  20.502  0.00  0.00    +0.029 HD
ATOM     50  H   UNL     1       4.935   1.926  21.848  0.00  0.00    +0.029 HD
ATOM     51  H   UNL     1       4.596   0.420  20.978  0.00  0.00    +0.029 HD
ENDBRANCH  39  48
BRANCH  44  52
ATOM     52  C   UNL     1       0.515   3.039  19.646  0.00  0.00    -0.005 C 
ATOM     53  H   UNL     1      -0.022   3.488  18.807  0.00  0.00    +0.031 HD
ATOM     54  H   UNL     1       0.349   3.656  20.537  0.00  0.00    +0.031 HD
ATOM     55  H   UNL     1       0.106   2.043  19.839  0.00  0.00    +0.031 HD
ENDBRANCH  44  52
ENDBRANCH  36  42
ENDBRANCH   1  36
TORSDOF 8
ENDMDL
MODEL 16
REMARK VINA RESULT:    -8.126      3.043     10.005
REMARK INTER + INTRA:         -11.443
REMARK INTER:                 -10.822
REMARK INTRA:                  -0.621
REMARK UNBOUND:                 0.009
REMARK  Name = 
REMARK  8 active torsions:
REMARK  status: ('A' for Active; 'I' for Inactive)
REMARK    1  A    between atoms: C_1  and  C_2
REMARK    2  A    between atoms: N_5  and  S_6
REMARK    3  A    between atoms: S_6  and  C_9
REMARK    4  A    between atoms: C_12  and  N_13
REMARK    5  A    between atoms: C_14  and  C_16
REMARK    6  A    between atoms: C_16  and  C_17
REMARK    7  A    between atoms: C_17  and  N_18
REMARK    8  A    between atoms: C_32  and  C_33
REMARK                            x       y       z     vdW  Elec       q    Type
REMARK                         _______ _______ _______ _____ _____    ______ ____
ROOT
ATOM      1  C   UNL     1       1.157   9.579  19.630  0.00  0.00    +0.109 A 
ATOM      2  C   UNL     1       1.657   9.291  18.360  0.00  0.00    -0.033 A 
ATOM      3  C   UNL     1       2.157   8.015  18.084  0.00  0.00    -0.039 A 
ATOM      4  C   UNL     1       2.181   7.030  19.078  0.00  0.00    +0.033 A 
ATOM      5  C   UNL     1       1.706   7.345  20.359  0.00  0.00    -0.039 A 
ATOM      6  C   UNL     1       1.194   8.616  20.641  0.00  0.00    -0.033 A 
ATOM      7  H   UNL     1       1.653  10.041  17.571  0.00  0.00    +0.064 HD
ATOM      8  H   UNL     1       2.525   7.824  17.079  0.00  0.00    +0.064 HD
ATOM      9  H   UNL     1       1.721   6.606  21.157  0.00  0.00    +0.064 HD
ATOM     10  H   UNL     1       0.831   8.840  21.641  0.00  0.00    +0.064 HD
ENDROOT
BRANCH   4  11
ATOM     11  N   UNL     1       2.660   5.719  18.879  0.00  0.00    -0.285 N 
ATOM     12  C   UNL     1       2.092   4.725  18.101  0.00  0.00    +0.219 C 
ATOM     13  O   UNL     1       1.054   4.810  17.453  0.00  0.00    -0.275 OA
ATOM     14  H   UNL     1       3.543   5.499  19.328  0.00  0.00    +0.155 HD
BRANCH  12  15
ATOM     15  C   UNL     1       2.880   3.430  18.138  0.00  0.00    +0.041 C 
ATOM     16  H   UNL     1       2.180   2.615  17.921  0.00  0.00    +0.037 HD
ATOM     17  H   UNL     1       3.281   3.237  19.138  0.00  0.00    +0.037 HD
BRANCH  15  18
ATOM     18  C   UNL     1       3.995   3.438  17.099  0.00  0.00    +0.031 C 
ATOM     19  H   UNL     1       4.453   2.442  17.062  0.00  0.00    +0.047 HD
ATOM     20  H   UNL     1       3.585   3.638  16.102  0.00  0.00    +0.047 HD
BRANCH  18  21
ATOM     21  N   UNL     1       5.070   4.384  17.361  0.00  0.00    -0.234 N 
ATOM     22  C   UNL     1       5.370   5.478  16.594  0.00  0.00    +0.254 C 
ATOM     23  O   UNL     1       4.871   5.846  15.545  0.00  0.00    -0.270 OA
ATOM     24  C   UNL     1       6.443   6.192  17.281  0.00  0.00    +0.049 A 
ATOM     25  C   UNL     1       7.140   7.329  16.920  0.00  0.00    -0.049 A 
ATOM     26  C   UNL     1       8.123   7.784  17.806  0.00  0.00    -0.061 A 
ATOM     27  C   UNL     1       8.379   7.104  19.014  0.00  0.00    -0.061 A 
ATOM     28  C   UNL     1       7.658   5.955  19.357  0.00  0.00    -0.049 A 
ATOM     29  C   UNL     1       6.697   5.524  18.464  0.00  0.00    +0.049 A 
ATOM     30  C   UNL     1       5.784   4.385  18.532  0.00  0.00    +0.254 C 
ATOM     31  O   UNL     1       5.698   3.641  19.490  0.00  0.00    -0.270 OA
ATOM     32  H   UNL     1       6.934   7.842  15.987  0.00  0.00    +0.063 HD
ATOM     33  H   UNL     1       8.699   8.675  17.560  0.00  0.00    +0.062 HD
ATOM     34  H   UNL     1       9.149   7.477  19.687  0.00  0.00    +0.062 HD
ATOM     35  H   UNL     1       7.845   5.419  20.284  0.00  0.00    +0.063 HD
ENDBRANCH  18  21
ENDBRANCH  15  18
ENDBRANCH  12  15
ENDBRANCH   4  11
BRANCH   1  36
ATOM     36  S   UNL     1       0.495  11.194  19.982  0.00  0.00    +0.073 S 
ATOM     37  O   UNL     1       0.042  11.778  18.737  0.00  0.00    -0.150 OA
ATOM     38  O   UNL     1       1.458  11.880  20.819  0.00  0.00    -0.150 OA
BRANCH  36  42
ATOM     39  C   UNL     1      -1.671  13.845  22.891  0.00  0.00    +0.044 A 
ATOM     40  C   UNL     1      -0.935  12.748  22.509  0.00  0.00    +0.001 A 
ATOM     41  C   UNL     1      -1.492  11.990  21.508  0.00  0.00    +0.141 A 
ATOM     42  N   UNL     1      -0.842  10.866  20.958  0.00  0.00    -0.199 N 
ATOM     43  N   UNL     1      -2.659  12.241  20.908  0.00  0.00    -0.216 NA
ATOM     44  C   UNL     1      -3.293  13.347  21.331  0.00  0.00    +0.128 A 
ATOM     45  N   UNL     1      -2.849  14.158  22.310  0.00  0.00    -0.237 NA
ATOM     46  H   UNL     1       0.016  12.500  22.959  0.00  0.00    +0.067 HD
ATOM     47  H   UNL     1      -1.502  10.263  20.471  0.00  0.00    +0.175 HD
BRANCH  39  48
ATOM     48  C   UNL     1      -1.169  14.754  23.971  0.00  0.00    -0.022 C 
ATOM     49  H   UNL     1      -0.103  14.578  24.149  0.00  0.00    +0.029 HD
ATOM     50  H   UNL     1      -1.300  15.804  23.687  0.00  0.00    +0.029 HD
ATOM     51  H   UNL     1      -1.726  14.583  24.899  0.00  0.00    +0.029 HD
ENDBRANCH  39  48
BRANCH  44  52
ATOM     52  C   UNL     1      -4.599  13.693  20.687  0.00  0.00    -0.005 C 
ATOM     53  H   UNL     1      -4.984  12.828  20.140  0.00  0.00    +0.031 HD
ATOM     54  H   UNL     1      -4.476  14.524  19.983  0.00  0.00    +0.031 HD
ATOM     55  H   UNL     1      -5.330  13.991  21.444  0.00  0.00    +0.031 HD
ENDBRANCH  44  52
ENDBRANCH  36  42
ENDBRANCH   1  36
TORSDOF 8
ENDMDL
MODEL 17
REMARK VINA RESULT:    -7.934      3.061      9.194
REMARK INTER + INTRA:         -11.172
REMARK INTER:                 -10.408
REMARK INTRA:                  -0.764
REMARK UNBOUND:                 0.009
REMARK  Name = 
REMARK  8 active torsions:
REMARK  status: ('A' for Active; 'I' for Inactive)
REMARK    1  A    between atoms: C_1  and  C_2
REMARK    2  A    between atoms: N_5  and  S_6
REMARK    3  A    between atoms: S_6  and  C_9
REMARK    4  A    between atoms: C_12  and  N_13
REMARK    5  A    between atoms: C_14  and  C_16
REMARK    6  A    between atoms: C_16  and  C_17
REMARK    7  A    between atoms: C_17  and  N_18
REMARK    8  A    between atoms: C_32  and  C_33
REMARK                            x       y       z     vdW  Elec       q    Type
REMARK                         _______ _______ _______ _____ _____    ______ ____
ROOT
ATOM      1  C   UNL     1       1.070   9.138  19.622  0.00  0.00    +0.109 A 
ATOM      2  C   UNL     1       1.429   9.613  18.360  0.00  0.00    -0.033 A 
ATOM      3  C   UNL     1       2.241   8.832  17.531  0.00  0.00    -0.039 A 
ATOM      4  C   UNL     1       2.714   7.589  17.965  0.00  0.00    +0.033 A 
ATOM      5  C   UNL     1       2.371   7.141  19.249  0.00  0.00    -0.039 A 
ATOM      6  C   UNL     1       1.552   7.911  20.081  0.00  0.00    -0.033 A 
ATOM      7  H   UNL     1       1.078  10.578  18.002  0.00  0.00    +0.064 HD
ATOM      8  H   UNL     1       2.487   9.229  16.550  0.00  0.00    +0.064 HD
ATOM      9  H   UNL     1       2.733   6.184  19.620  0.00  0.00    +0.064 HD
ATOM     10  H   UNL     1       1.299   7.545  21.073  0.00  0.00    +0.064 HD
ENDROOT
BRANCH   4  11
ATOM     11  N   UNL     1       3.528   6.739  17.187  0.00  0.00    -0.285 N 
ATOM     12  C   UNL     1       4.910   6.706  17.144  0.00  0.00    +0.219 C 
ATOM     13  O   UNL     1       5.677   7.429  17.773  0.00  0.00    -0.275 OA
ATOM     14  H   UNL     1       3.036   6.050  16.628  0.00  0.00    +0.155 HD
BRANCH  12  15
ATOM     15  C   UNL     1       5.441   5.668  16.176  0.00  0.00    +0.041 C 
ATOM     16  H   UNL     1       6.461   5.965  15.904  0.00  0.00    +0.037 HD
ATOM     17  H   UNL     1       4.864   5.658  15.246  0.00  0.00    +0.037 HD
BRANCH  15  18
ATOM     18  C   UNL     1       5.464   4.284  16.815  0.00  0.00    +0.031 C 
ATOM     19  H   UNL     1       5.355   3.528  16.028  0.00  0.00    +0.047 HD
ATOM     20  H   UNL     1       6.432   4.104  17.299  0.00  0.00    +0.047 HD
BRANCH  18  21
ATOM     21  N   UNL     1       4.404   4.038  17.782  0.00  0.00    -0.234 N 
ATOM     22  C   UNL     1       3.172   3.515  17.494  0.00  0.00    +0.254 C 
ATOM     23  O   UNL     1       2.694   3.216  16.413  0.00  0.00    -0.270 OA
ATOM     24  C   UNL     1       2.477   3.347  18.767  0.00  0.00    +0.049 A 
ATOM     25  C   UNL     1       1.199   2.901  19.041  0.00  0.00    -0.049 A 
ATOM     26  C   UNL     1       0.818   2.841  20.386  0.00  0.00    -0.061 A 
ATOM     27  C   UNL     1       1.711   3.219  21.409  0.00  0.00    -0.061 A 
ATOM     28  C   UNL     1       3.001   3.666  21.105  0.00  0.00    -0.049 A 
ATOM     29  C   UNL     1       3.352   3.720  19.771  0.00  0.00    +0.049 A 
ATOM     30  C   UNL     1       4.604   4.126  19.136  0.00  0.00    +0.254 C 
ATOM     31  O   UNL     1       5.607   4.434  19.750  0.00  0.00    -0.270 OA
ATOM     32  H   UNL     1       0.521   2.614  18.244  0.00  0.00    +0.063 HD
ATOM     33  H   UNL     1      -0.182   2.499  20.648  0.00  0.00    +0.062 HD
ATOM     34  H   UNL     1       1.392   3.165  22.448  0.00  0.00    +0.062 HD
ATOM     35  H   UNL     1       3.701   3.963  21.882  0.00  0.00    +0.063 HD
ENDBRANCH  18  21
ENDBRANCH  15  18
ENDBRANCH  12  15
ENDBRANCH   4  11
BRANCH   1  36
ATOM     36  S   UNL     1       0.017  10.115  20.674  0.00  0.00    +0.073 S 
ATOM     37  O   UNL     1      -0.378   9.299  21.802  0.00  0.00    -0.150 OA
ATOM     38  O   UNL     1      -0.975  10.743  19.825  0.00  0.00    -0.150 OA
BRANCH  36  42
ATOM     39  C   UNL     1      -0.058  14.517  19.779  0.00  0.00    +0.044 A 
ATOM     40  C   UNL     1       0.484  13.253  19.792  0.00  0.00    +0.001 A 
ATOM     41  C   UNL     1       0.561  12.663  21.029  0.00  0.00    +0.141 A 
ATOM     42  N   UNL     1       1.036  11.348  21.213  0.00  0.00    -0.199 N 
ATOM     43  N   UNL     1       0.158  13.218  22.176  0.00  0.00    -0.216 NA
ATOM     44  C   UNL     1      -0.381  14.443  22.060  0.00  0.00    +0.128 A 
ATOM     45  N   UNL     1      -0.497  15.122  20.903  0.00  0.00    -0.237 NA
ATOM     46  H   UNL     1       0.824  12.757  18.894  0.00  0.00    +0.067 HD
ATOM     47  H   UNL     1       1.309  11.189  22.181  0.00  0.00    +0.175 HD
BRANCH  39  48
ATOM     48  C   UNL     1      -0.200  15.267  18.489  0.00  0.00    -0.022 C 
ATOM     49  H   UNL     1      -1.247  15.275  18.169  0.00  0.00    +0.029 HD
ATOM     50  H   UNL     1       0.131  16.305  18.603  0.00  0.00    +0.029 HD
ATOM     51  H   UNL     1       0.413  14.799  17.711  0.00  0.00    +0.029 HD
ENDBRANCH  39  48
BRANCH  44  52
ATOM     52  C   UNL     1      -0.867  15.113  23.306  0.00  0.00    -0.005 C 
ATOM     53  H   UNL     1      -1.872  15.511  23.146  0.00  0.00    +0.031 HD
ATOM     54  H   UNL     1      -0.204  15.939  23.587  0.00  0.00    +0.031 HD
ATOM     55  H   UNL     1      -0.894  14.400  24.136  0.00  0.00    +0.031 HD
ENDBRANCH  44  52
ENDBRANCH  36  42
ENDBRANCH   1  36
TORSDOF 8
ENDMDL
MODEL 18
REMARK VINA RESULT:    -7.922      2.809      9.533
REMARK INTER + INTRA:         -11.155
REMARK INTER:                 -10.277
REMARK INTRA:                  -0.879
REMARK UNBOUND:                 0.009
REMARK  Name = 
REMARK  8 active torsions:
REMARK  status: ('A' for Active; 'I' for Inactive)
REMARK    1  A    between atoms: C_1  and  C_2
REMARK    2  A    between atoms: N_5  and  S_6
REMARK    3  A    between atoms: S_6  and  C_9
REMARK    4  A    between atoms: C_12  and  N_13
REMARK    5  A    between atoms: C_14  and  C_16
REMARK    6  A    between atoms: C_16  and  C_17
REMARK    7  A    between atoms: C_17  and  N_18
REMARK    8  A    between atoms: C_32  and  C_33
REMARK                            x       y       z     vdW  Elec       q    Type
REMARK                         _______ _______ _______ _____ _____    ______ ____
ROOT
ATOM      1  C   UNL     1      -0.520  10.361  18.632  0.00  0.00    +0.109 A 
ATOM      2  C   UNL     1       0.379   9.861  17.689  0.00  0.00    -0.033 A 
ATOM      3  C   UNL     1       1.331   8.912  18.074  0.00  0.00    -0.039 A 
ATOM      4  C   UNL     1       1.406   8.475  19.401  0.00  0.00    +0.033 A 
ATOM      5  C   UNL     1       0.517   9.012  20.344  0.00  0.00    -0.039 A 
ATOM      6  C   UNL     1      -0.445   9.954  19.966  0.00  0.00    -0.033 A 
ATOM      7  H   UNL     1       0.345  10.188  16.652  0.00  0.00    +0.064 HD
ATOM      8  H   UNL     1       2.004   8.535  17.308  0.00  0.00    +0.064 HD
ATOM      9  H   UNL     1       0.556   8.702  21.386  0.00  0.00    +0.064 HD
ATOM     10  H   UNL     1      -1.124  10.359  20.713  0.00  0.00    +0.064 HD
ENDROOT
BRANCH   4  11
ATOM     11  N   UNL     1       2.329   7.516  19.866  0.00  0.00    -0.285 N 
ATOM     12  C   UNL     1       2.337   6.158  19.601  0.00  0.00    +0.219 C 
ATOM     13  O   UNL     1       1.524   5.544  18.917  0.00  0.00    -0.275 OA
ATOM     14  H   UNL     1       3.094   7.878  20.427  0.00  0.00    +0.155 HD
BRANCH  12  15
ATOM     15  C   UNL     1       3.478   5.434  20.289  0.00  0.00    +0.041 C 
ATOM     16  H   UNL     1       3.150   5.202  21.309  0.00  0.00    +0.037 HD
ATOM     17  H   UNL     1       4.357   6.078  20.385  0.00  0.00    +0.037 HD
BRANCH  15  18
ATOM     18  C   UNL     1       3.827   4.143  19.557  0.00  0.00    +0.031 C 
ATOM     19  H   UNL     1       4.482   3.539  20.197  0.00  0.00    +0.047 HD
ATOM     20  H   UNL     1       2.922   3.551  19.376  0.00  0.00    +0.047 HD
BRANCH  18  21
ATOM     21  N   UNL     1       4.528   4.325  18.294  0.00  0.00    -0.234 N 
ATOM     22  C   UNL     1       5.813   4.778  18.157  0.00  0.00    +0.254 C 
ATOM     23  O   UNL     1       6.589   5.168  19.012  0.00  0.00    -0.270 OA
ATOM     24  C   UNL     1       6.137   4.703  16.735  0.00  0.00    +0.049 A 
ATOM     25  C   UNL     1       7.279   5.075  16.053  0.00  0.00    -0.049 A 
ATOM     26  C   UNL     1       7.292   4.868  14.670  0.00  0.00    -0.061 A 
ATOM     27  C   UNL     1       6.182   4.300  14.012  0.00  0.00    -0.061 A 
ATOM     28  C   UNL     1       5.038   3.930  14.726  0.00  0.00    -0.049 A 
ATOM     29  C   UNL     1       5.047   4.149  16.089  0.00  0.00    +0.049 A 
ATOM     30  C   UNL     1       4.030   3.869  17.101  0.00  0.00    +0.254 C 
ATOM     31  O   UNL     1       2.980   3.302  16.868  0.00  0.00    -0.270 OA
ATOM     32  H   UNL     1       8.125   5.513  16.571  0.00  0.00    +0.063 HD
ATOM     33  H   UNL     1       8.171   5.150  14.091  0.00  0.00    +0.062 HD
ATOM     34  H   UNL     1       6.216   4.149  12.934  0.00  0.00    +0.062 HD
ATOM     35  H   UNL     1       4.173   3.492  14.233  0.00  0.00    +0.063 HD
ENDBRANCH  18  21
ENDBRANCH  15  18
ENDBRANCH  12  15
ENDBRANCH   4  11
BRANCH   1  36
ATOM     36  S   UNL     1      -1.750  11.551  18.146  0.00  0.00    +0.073 S 
ATOM     37  O   UNL     1      -2.693  11.698  19.235  0.00  0.00    -0.150 OA
ATOM     38  O   UNL     1      -2.199  11.188  16.817  0.00  0.00    -0.150 OA
BRANCH  36  42
ATOM     39  C   UNL     1      -0.585  14.595  21.238  0.00  0.00    +0.044 A 
ATOM     40  C   UNL     1      -1.208  14.149  20.096  0.00  0.00    +0.001 A 
ATOM     41  C   UNL     1      -0.384  13.547  19.177  0.00  0.00    +0.141 A 
ATOM     42  N   UNL     1      -0.869  12.982  17.980  0.00  0.00    -0.199 N 
ATOM     43  N   UNL     1       0.934  13.375  19.318  0.00  0.00    -0.216 NA
ATOM     44  C   UNL     1       1.448  13.820  20.476  0.00  0.00    +0.128 A 
ATOM     45  N   UNL     1       0.740  14.435  21.443  0.00  0.00    -0.237 NA
ATOM     46  H   UNL     1      -2.270  14.260  19.932  0.00  0.00    +0.067 HD
ATOM     47  H   UNL     1      -0.120  12.864  17.301  0.00  0.00    +0.175 HD
BRANCH  39  48
ATOM     48  C   UNL     1      -1.376  15.266  22.319  0.00  0.00    -0.022 C 
ATOM     49  H   UNL     1      -1.436  16.343  22.131  0.00  0.00    +0.029 HD
ATOM     50  H   UNL     1      -2.395  14.868  22.360  0.00  0.00    +0.029 HD
ATOM     51  H   UNL     1      -0.906  15.094  23.294  0.00  0.00    +0.029 HD
ENDBRANCH  39  48
BRANCH  44  52
ATOM     52  C   UNL     1       2.916  13.643  20.702  0.00  0.00    -0.005 C 
ATOM     53  H   UNL     1       3.091  12.777  21.346  0.00  0.00    +0.031 HD
ATOM     54  H   UNL     1       3.345  14.529  21.183  0.00  0.00    +0.031 HD
ATOM     55  H   UNL     1       3.433  13.488  19.749  0.00  0.00    +0.031 HD
ENDBRANCH  44  52
ENDBRANCH  36  42
ENDBRANCH   1  36
TORSDOF 8
ENDMDL
MODEL 19
REMARK VINA RESULT:    -7.796      2.279      9.183
REMARK INTER + INTRA:         -10.977
REMARK INTER:                 -10.943
REMARK INTRA:                  -0.034
REMARK UNBOUND:                 0.009
REMARK  Name = 
REMARK  8 active torsions:
REMARK  status: ('A' for Active; 'I' for Inactive)
REMARK    1  A    between atoms: C_1  and  C_2
REMARK    2  A    between atoms: N_5  and  S_6
REMARK    3  A    between atoms: S_6  and  C_9
REMARK    4  A    between atoms: C_12  and  N_13
REMARK    5  A    between atoms: C_14  and  C_16
REMARK    6  A    between atoms: C_16  and  C_17
REMARK    7  A    between atoms: C_17  and  N_18
REMARK    8  A    between atoms: C_32  and  C_33
REMARK                            x       y       z     vdW  Elec       q    Type
REMARK                         _______ _______ _______ _____ _____    ______ ____
ROOT
ATOM      1  C   UNL     1       1.375   7.988  20.696  0.00  0.00    +0.109 A 
ATOM      2  C   UNL     1       1.933   8.266  19.448  0.00  0.00    -0.033 A 
ATOM      3  C   UNL     1       2.286   7.214  18.597  0.00  0.00    -0.039 A 
ATOM      4  C   UNL     1       2.106   5.885  18.995  0.00  0.00    +0.033 A 
ATOM      5  C   UNL     1       1.574   5.622  20.266  0.00  0.00    -0.039 A 
ATOM      6  C   UNL     1       1.209   6.668  21.119  0.00  0.00    -0.033 A 
ATOM      7  H   UNL     1       2.088   9.291  19.116  0.00  0.00    +0.064 HD
ATOM      8  H   UNL     1       2.705   7.469  17.627  0.00  0.00    +0.064 HD
ATOM      9  H   UNL     1       1.432   4.600  20.610  0.00  0.00    +0.064 HD
ATOM     10  H   UNL     1       0.799   6.442  22.101  0.00  0.00    +0.064 HD
ENDROOT
BRANCH   4  11
ATOM     11  N   UNL     1       2.427   4.769  18.193  0.00  0.00    -0.285 N 
ATOM     12  C   UNL     1       1.760   3.559  18.130  0.00  0.00    +0.219 C 
ATOM     13  O   UNL     1       0.769   3.237  18.778  0.00  0.00    -0.275 OA
ATOM     14  H   UNL     1       3.215   4.891  17.566  0.00  0.00    +0.155 HD
BRANCH  12  15
ATOM     15  C   UNL     1       2.406   2.585  17.164  0.00  0.00    +0.041 C 
ATOM     16  H   UNL     1       2.520   3.103  16.204  0.00  0.00    +0.037 HD
ATOM     17  H   UNL     1       1.758   1.723  16.976  0.00  0.00    +0.037 HD
BRANCH  15  18
ATOM     18  C   UNL     1       3.772   2.137  17.669  0.00  0.00    +0.031 C 
ATOM     19  H   UNL     1       3.664   1.753  18.691  0.00  0.00    +0.047 HD
ATOM     20  H   UNL     1       4.153   1.311  17.057  0.00  0.00    +0.047 HD
BRANCH  18  21
ATOM     21  N   UNL     1       4.780   3.185  17.721  0.00  0.00    -0.234 N 
ATOM     22  C   UNL     1       5.264   3.876  16.642  0.00  0.00    +0.254 C 
ATOM     23  O   UNL     1       5.017   3.729  15.458  0.00  0.00    -0.270 OA
ATOM     24  C   UNL     1       6.171   4.894  17.166  0.00  0.00    +0.049 A 
ATOM     25  C   UNL     1       6.952   5.824  16.509  0.00  0.00    -0.049 A 
ATOM     26  C   UNL     1       7.722   6.684  17.299  0.00  0.00    -0.061 A 
ATOM     27  C   UNL     1       7.690   6.597  18.707  0.00  0.00    -0.061 A 
ATOM     28  C   UNL     1       6.890   5.647  19.348  0.00  0.00    -0.049 A 
ATOM     29  C   UNL     1       6.143   4.807  18.546  0.00  0.00    +0.049 A 
ATOM     30  C   UNL     1       5.216   3.734  18.900  0.00  0.00    +0.254 C 
ATOM     31  O   UNL     1       4.905   3.457  20.043  0.00  0.00    -0.270 OA
ATOM     32  H   UNL     1       6.969   5.880  15.426  0.00  0.00    +0.063 HD
ATOM     33  H   UNL     1       8.356   7.431  16.824  0.00  0.00    +0.062 HD
ATOM     34  H   UNL     1       8.299   7.277  19.300  0.00  0.00    +0.062 HD
ATOM     35  H   UNL     1       6.855   5.565  20.431  0.00  0.00    +0.063 HD
ENDBRANCH  18  21
ENDBRANCH  15  18
ENDBRANCH  12  15
ENDBRANCH   4  11
BRANCH   1  36
ATOM     36  S   UNL     1       0.900   9.321  21.775  0.00  0.00    +0.073 S 
ATOM     37  O   UNL     1       1.895   9.434  22.819  0.00  0.00    -0.150 OA
ATOM     38  O   UNL     1      -0.500   9.136  22.097  0.00  0.00    -0.150 OA
BRANCH  36  42
ATOM     39  C   UNL     1      -1.911  10.731  18.565  0.00  0.00    +0.044 A 
ATOM     40  C   UNL     1      -0.710  10.289  19.069  0.00  0.00    +0.001 A 
ATOM     41  C   UNL     1      -0.204  11.031  20.109  0.00  0.00    +0.141 A 
ATOM     42  N   UNL     1       0.987  10.682  20.778  0.00  0.00    -0.199 N 
ATOM     43  N   UNL     1      -0.784  12.111  20.639  0.00  0.00    -0.216 NA
ATOM     44  C   UNL     1      -1.965  12.451  20.098  0.00  0.00    +0.128 A 
ATOM     45  N   UNL     1      -2.550  11.806  19.070  0.00  0.00    -0.237 NA
ATOM     46  H   UNL     1      -0.200   9.420  18.679  0.00  0.00    +0.067 HD
ATOM     47  H   UNL     1       1.365  11.477  21.290  0.00  0.00    +0.175 HD
BRANCH  39  48
ATOM     48  C   UNL     1      -2.569  10.004  17.431  0.00  0.00    -0.022 C 
ATOM     49  H   UNL     1      -2.584   8.928  17.629  0.00  0.00    +0.029 HD
ATOM     50  H   UNL     1      -3.602  10.344  17.298  0.00  0.00    +0.029 HD
ATOM     51  H   UNL     1      -2.028  10.193  16.497  0.00  0.00    +0.029 HD
ENDBRANCH  39  48
BRANCH  44  52
ATOM     52  C   UNL     1      -2.673  13.644  20.659  0.00  0.00    -0.005 C 
ATOM     53  H   UNL     1      -2.241  13.910  21.627  0.00  0.00    +0.031 HD
ATOM     54  H   UNL     1      -3.739  13.433  20.797  0.00  0.00    +0.031 HD
ATOM     55  H   UNL     1      -2.578  14.497  19.980  0.00  0.00    +0.031 HD
ENDBRANCH  44  52
ENDBRANCH  36  42
ENDBRANCH   1  36
TORSDOF 8
ENDMDL
MODEL 20
REMARK VINA RESULT:    -7.774      2.142      9.138
REMARK INTER + INTRA:         -10.946
REMARK INTER:                 -10.252
REMARK INTRA:                  -0.693
REMARK UNBOUND:                 0.009
REMARK  Name = 
REMARK  8 active torsions:
REMARK  status: ('A' for Active; 'I' for Inactive)
REMARK    1  A    between atoms: C_1  and  C_2
REMARK    2  A    between atoms: N_5  and  S_6
REMARK    3  A    between atoms: S_6  and  C_9
REMARK    4  A    between atoms: C_12  and  N_13
REMARK    5  A    between atoms: C_14  and  C_16
REMARK    6  A    between atoms: C_16  and  C_17
REMARK    7  A    between atoms: C_17  and  N_18
REMARK    8  A    between atoms: C_32  and  C_33
REMARK                            x       y       z     vdW  Elec       q    Type
REMARK                         _______ _______ _______ _____ _____    ______ ____
ROOT
ATOM      1  C   UNL     1       1.363   7.913  20.610  0.00  0.00    +0.109 A 
ATOM      2  C   UNL     1       1.974   8.308  19.420  0.00  0.00    -0.033 A 
ATOM      3  C   UNL     1       2.727   7.385  18.687  0.00  0.00    -0.039 A 
ATOM      4  C   UNL     1       2.892   6.074  19.149  0.00  0.00    +0.033 A 
ATOM      5  C   UNL     1       2.299   5.702  20.365  0.00  0.00    -0.039 A 
ATOM      6  C   UNL     1       1.536   6.616  21.098  0.00  0.00    -0.033 A 
ATOM      7  H   UNL     1       1.865   9.322  19.041  0.00  0.00    +0.064 HD
ATOM      8  H   UNL     1       3.176   7.725  17.758  0.00  0.00    +0.064 HD
ATOM      9  H   UNL     1       2.417   4.695  20.757  0.00  0.00    +0.064 HD
ATOM     10  H   UNL     1       1.085   6.308  22.039  0.00  0.00    +0.064 HD
ENDROOT
BRANCH   4  11
ATOM     11  N   UNL     1       3.626   5.083  18.467  0.00  0.00    -0.285 N 
ATOM     12  C   UNL     1       3.145   4.150  17.565  0.00  0.00    +0.219 C 
ATOM     13  O   UNL     1       1.979   4.014  17.209  0.00  0.00    -0.275 OA
ATOM     14  H   UNL     1       4.628   5.086  18.631  0.00  0.00    +0.155 HD
BRANCH  12  15
ATOM     15  C   UNL     1       4.229   3.228  17.042  0.00  0.00    +0.041 C 
ATOM     16  H   UNL     1       3.733   2.419  16.492  0.00  0.00    +0.037 HD
ATOM     17  H   UNL     1       4.778   2.754  17.861  0.00  0.00    +0.037 HD
BRANCH  15  18
ATOM     18  C   UNL     1       5.179   3.973  16.111  0.00  0.00    +0.031 C 
ATOM     19  H   UNL     1       5.948   3.276  15.757  0.00  0.00    +0.047 HD
ATOM     20  H   UNL     1       4.641   4.331  15.225  0.00  0.00    +0.047 HD
BRANCH  18  21
ATOM     21  N   UNL     1       5.879   5.095  16.719  0.00  0.00    -0.234 N 
ATOM     22  C   UNL     1       6.921   4.996  17.602  0.00  0.00    +0.254 C 
ATOM     23  O   UNL     1       7.423   4.002  18.095  0.00  0.00    -0.270 OA
ATOM     24  C   UNL     1       7.378   6.358  17.868  0.00  0.00    +0.049 A 
ATOM     25  C   UNL     1       8.366   6.824  18.713  0.00  0.00    -0.049 A 
ATOM     26  C   UNL     1       8.579   8.207  18.744  0.00  0.00    -0.061 A 
ATOM     27  C   UNL     1       7.813   9.076  17.939  0.00  0.00    -0.061 A 
ATOM     28  C   UNL     1       6.819   8.578  17.091  0.00  0.00    -0.049 A 
ATOM     29  C   UNL     1       6.625   7.210  17.082  0.00  0.00    +0.049 A 
ATOM     30  C   UNL     1       5.689   6.391  16.314  0.00  0.00    +0.254 C 
ATOM     31  O   UNL     1       4.939   6.833  15.465  0.00  0.00    -0.270 OA
ATOM     32  H   UNL     1       8.947   6.145  19.327  0.00  0.00    +0.063 HD
ATOM     33  H   UNL     1       9.345   8.619  19.398  0.00  0.00    +0.062 HD
ATOM     34  H   UNL     1       7.996  10.148  17.982  0.00  0.00    +0.062 HD
ATOM     35  H   UNL     1       6.219   9.234  16.466  0.00  0.00    +0.063 HD
ENDBRANCH  18  21
ENDBRANCH  15  18
ENDBRANCH  12  15
ENDBRANCH   4  11
BRANCH   1  36
ATOM     36  S   UNL     1       0.383   9.075  21.535  0.00  0.00    +0.073 S 
ATOM     37  O   UNL     1       1.015   9.277  22.822  0.00  0.00    -0.150 OA
ATOM     38  O   UNL     1      -0.997   8.644  21.443  0.00  0.00    -0.150 OA
BRANCH  36  42
ATOM     39  C   UNL     1      -2.227  10.610  18.216  0.00  0.00    +0.044 A 
ATOM     40  C   UNL     1      -1.054  10.168  18.780  0.00  0.00    +0.001 A 
ATOM     41  C   UNL     1      -0.647  10.856  19.897  0.00  0.00    +0.141 A 
ATOM     42  N   UNL     1       0.502  10.496  20.632  0.00  0.00    -0.199 N 
ATOM     43  N   UNL     1      -1.294  11.888  20.447  0.00  0.00    -0.216 NA
ATOM     44  C   UNL     1      -2.442  12.231  19.841  0.00  0.00    +0.128 A 
ATOM     45  N   UNL     1      -2.933  11.637  18.736  0.00  0.00    -0.237 NA
ATOM     46  H   UNL     1      -0.492   9.337  18.379  0.00  0.00    +0.067 HD
ATOM     47  H   UNL     1       0.819  11.267  21.217  0.00  0.00    +0.175 HD
BRANCH  39  48
ATOM     48  C   UNL     1      -2.779   9.940  16.995  0.00  0.00    -0.022 C 
ATOM     49  H   UNL     1      -2.774   8.853  17.125  0.00  0.00    +0.029 HD
ATOM     50  H   UNL     1      -3.811  10.258  16.809  0.00  0.00    +0.029 HD
ATOM     51  H   UNL     1      -2.181  10.202  16.116  0.00  0.00    +0.029 HD
ENDBRANCH  39  48
BRANCH  44  52
ATOM     52  C   UNL     1      -3.223  13.369  20.418  0.00  0.00    -0.005 C 
ATOM     53  H   UNL     1      -4.237  13.369  20.008  0.00  0.00    +0.031 HD
ATOM     54  H   UNL     1      -2.749  14.327  20.177  0.00  0.00    +0.031 HD
ATOM     55  H   UNL     1      -3.279  13.280  21.507  0.00  0.00    +0.031 HD
ENDBRANCH  44  52
ENDBRANCH  36  42
ENDBRANCH   1  36
TORSDOF 8
ENDMDL
MODEL 21
REMARK VINA RESULT:    -7.701      2.904      9.542
REMARK INTER + INTRA:         -10.844
REMARK INTER:                 -10.930
REMARK INTRA:                   0.086
REMARK UNBOUND:                 0.009
REMARK  Name = 
REMARK  8 active torsions:
REMARK  status: ('A' for Active; 'I' for Inactive)
REMARK    1  A    between atoms: C_1  and  C_2
REMARK    2  A    between atoms: N_5  and  S_6
REMARK    3  A    between atoms: S_6  and  C_9
REMARK    4  A    between atoms: C_12  and  N_13
REMARK    5  A    between atoms: C_14  and  C_16
REMARK    6  A    between atoms: C_16  and  C_17
REMARK    7  A    between atoms: C_17  and  N_18
REMARK    8  A    between atoms: C_32  and  C_33
REMARK                            x       y       z     vdW  Elec       q    Type
REMARK                         _______ _______ _______ _____ _____    ______ ____
ROOT
ATOM      1  C   UNL     1      -0.828  11.381  22.530  0.00  0.00    +0.109 A 
ATOM      2  C   UNL     1       0.259  11.605  21.685  0.00  0.00    -0.033 A 
ATOM      3  C   UNL     1       1.058  10.530  21.282  0.00  0.00    -0.039 A 
ATOM      4  C   UNL     1       0.789   9.234  21.737  0.00  0.00    +0.033 A 
ATOM      5  C   UNL     1      -0.287   9.030  22.613  0.00  0.00    -0.039 A 
ATOM      6  C   UNL     1      -1.097  10.098  23.013  0.00  0.00    -0.033 A 
ATOM      7  H   UNL     1       0.492  12.604  21.321  0.00  0.00    +0.064 HD
ATOM      8  H   UNL     1       1.887  10.742  20.611  0.00  0.00    +0.064 HD
ATOM      9  H   UNL     1      -0.515   8.037  22.994  0.00  0.00    +0.064 HD
ATOM     10  H   UNL     1      -1.926   9.919  23.694  0.00  0.00    +0.064 HD
ENDROOT
BRANCH   4  11
ATOM     11  N   UNL     1       1.539   8.097  21.371  0.00  0.00    -0.285 N 
ATOM     12  C   UNL     1       1.882   7.691  20.093  0.00  0.00    +0.219 C 
ATOM     13  O   UNL     1       1.577   8.249  19.044  0.00  0.00    -0.275 OA
ATOM     14  H   UNL     1       1.899   7.541  22.139  0.00  0.00    +0.155 HD
BRANCH  12  15
ATOM     15  C   UNL     1       2.684   6.405  20.083  0.00  0.00    +0.041 C 
ATOM     16  H   UNL     1       2.473   5.880  21.022  0.00  0.00    +0.037 HD
ATOM     17  H   UNL     1       3.759   6.607  20.075  0.00  0.00    +0.037 HD
BRANCH  15  18
ATOM     18  C   UNL     1       2.289   5.522  18.904  0.00  0.00    +0.031 C 
ATOM     19  H   UNL     1       1.950   4.551  19.286  0.00  0.00    +0.047 HD
ATOM     20  H   UNL     1       1.444   5.965  18.363  0.00  0.00    +0.047 HD
BRANCH  18  21
ATOM     21  N   UNL     1       3.360   5.249  17.957  0.00  0.00    -0.234 N 
ATOM     22  C   UNL     1       3.719   4.009  17.500  0.00  0.00    +0.254 C 
ATOM     23  O   UNL     1       3.286   2.915  17.816  0.00  0.00    -0.270 OA
ATOM     24  C   UNL     1       4.760   4.215  16.497  0.00  0.00    +0.049 A 
ATOM     25  C   UNL     1       5.492   3.303  15.762  0.00  0.00    -0.049 A 
ATOM     26  C   UNL     1       6.428   3.816  14.858  0.00  0.00    -0.061 A 
ATOM     27  C   UNL     1       6.605   5.207  14.710  0.00  0.00    -0.061 A 
ATOM     28  C   UNL     1       5.850   6.110  15.465  0.00  0.00    -0.049 A 
ATOM     29  C   UNL     1       4.936   5.579  16.354  0.00  0.00    +0.049 A 
ATOM     30  C   UNL     1       4.005   6.241  17.265  0.00  0.00    +0.254 C 
ATOM     31  O   UNL     1       3.853   7.447  17.321  0.00  0.00    -0.270 OA
ATOM     32  H   UNL     1       5.347   2.236  15.887  0.00  0.00    +0.063 HD
ATOM     33  H   UNL     1       7.030   3.134  14.260  0.00  0.00    +0.062 HD
ATOM     34  H   UNL     1       7.340   5.582  14.000  0.00  0.00    +0.062 HD
ATOM     35  H   UNL     1       5.975   7.185  15.364  0.00  0.00    +0.063 HD
ENDBRANCH  18  21
ENDBRANCH  15  18
ENDBRANCH  12  15
ENDBRANCH   4  11
BRANCH   1  36
ATOM     36  S   UNL     1      -1.863  12.740  23.028  0.00  0.00    +0.073 S 
ATOM     37  O   UNL     1      -1.012  13.874  23.319  0.00  0.00    -0.150 OA
ATOM     38  O   UNL     1      -2.792  12.233  24.017  0.00  0.00    -0.150 OA
BRANCH  36  42
ATOM     39  C   UNL     1      -0.529  14.133  18.970  0.00  0.00    +0.044 A 
ATOM     40  C   UNL     1      -1.213  14.223  20.160  0.00  0.00    +0.001 A 
ATOM     41  C   UNL     1      -2.042  13.164  20.439  0.00  0.00    +0.141 A 
ATOM     42  N   UNL     1      -2.771  13.070  21.643  0.00  0.00    -0.199 N 
ATOM     43  N   UNL     1      -2.219  12.096  19.657  0.00  0.00    -0.216 NA
ATOM     44  C   UNL     1      -1.491  12.085  18.529  0.00  0.00    +0.128 A 
ATOM     45  N   UNL     1      -0.656  13.071  18.147  0.00  0.00    -0.237 NA
ATOM     46  H   UNL     1      -1.105  15.063  20.831  0.00  0.00    +0.067 HD
ATOM     47  H   UNL     1      -3.541  12.410  21.554  0.00  0.00    +0.175 HD
BRANCH  39  48
ATOM     48  C   UNL     1       0.411  15.223  18.553  0.00  0.00    -0.022 C 
ATOM     49  H   UNL     1      -0.107  15.945  17.914  0.00  0.00    +0.029 HD
ATOM     50  H   UNL     1       0.800  15.757  19.427  0.00  0.00    +0.029 HD
ATOM     51  H   UNL     1       1.262  14.800  18.008  0.00  0.00    +0.029 HD
ENDBRANCH  39  48
BRANCH  44  52
ATOM     52  C   UNL     1      -1.633  10.908  17.617  0.00  0.00    -0.005 C 
ATOM     53  H   UNL     1      -2.595  10.952  17.100  0.00  0.00    +0.031 HD
ATOM     54  H   UNL     1      -1.582   9.970  18.183  0.00  0.00    +0.031 HD
ATOM     55  H   UNL     1      -0.829  10.902  16.874  0.00  0.00    +0.031 HD
ENDBRANCH  44  52
ENDBRANCH  36  42
ENDBRANCH   1  36
TORSDOF 8
ENDMDL
MODEL 22
REMARK VINA RESULT:    -7.688      2.384      9.130
REMARK INTER + INTRA:         -10.825
REMARK INTER:                 -10.647
REMARK INTRA:                  -0.178
REMARK UNBOUND:                 0.009
REMARK  Name = 
REMARK  8 active torsions:
REMARK  status: ('A' for Active; 'I' for Inactive)
REMARK    1  A    between atoms: C_1  and  C_2
REMARK    2  A    between atoms: N_5  and  S_6
REMARK    3  A    between atoms: S_6  and  C_9
REMARK    4  A    between atoms: C_12  and  N_13
REMARK    5  A    between atoms: C_14  and  C_16
REMARK    6  A    between atoms: C_16  and  C_17
REMARK    7  A    between atoms: C_17  and  N_18
REMARK    8  A    between atoms: C_32  and  C_33
REMARK                            x       y       z     vdW  Elec       q    Type
REMARK                         _______ _______ _______ _____ _____    ______ ____
ROOT
ATOM      1  C   UNL     1       1.356   8.442  20.587  0.00  0.00    +0.109 A 
ATOM      2  C   UNL     1       1.770   8.677  19.276  0.00  0.00    -0.033 A 
ATOM      3  C   UNL     1       2.064   7.597  18.438  0.00  0.00    -0.039 A 
ATOM      4  C   UNL     1       1.968   6.283  18.909  0.00  0.00    +0.033 A 
ATOM      5  C   UNL     1       1.583   6.065  20.240  0.00  0.00    -0.039 A 
ATOM      6  C   UNL     1       1.277   7.139  21.082  0.00  0.00    -0.033 A 
ATOM      7  H   UNL     1       1.857   9.689  18.887  0.00  0.00    +0.064 HD
ATOM      8  H   UNL     1       2.370   7.819  17.419  0.00  0.00    +0.064 HD
ATOM      9  H   UNL     1       1.510   5.056  20.641  0.00  0.00    +0.064 HD
ATOM     10  H   UNL     1       0.981   6.947  22.111  0.00  0.00    +0.064 HD
ENDROOT
BRANCH   4  11
ATOM     11  N   UNL     1       2.238   5.141  18.127  0.00  0.00    -0.285 N 
ATOM     12  C   UNL     1       1.748   3.860  18.310  0.00  0.00    +0.219 C 
ATOM     13  O   UNL     1       0.995   3.489  19.205  0.00  0.00    -0.275 OA
ATOM     14  H   UNL     1       2.828   5.293  17.315  0.00  0.00    +0.155 HD
BRANCH  12  15
ATOM     15  C   UNL     1       2.270   2.880  17.278  0.00  0.00    +0.041 C 
ATOM     16  H   UNL     1       2.353   3.419  16.327  0.00  0.00    +0.037 HD
ATOM     17  H   UNL     1       1.561   2.064  17.111  0.00  0.00    +0.037 HD
BRANCH  15  18
ATOM     18  C   UNL     1       3.637   2.338  17.680  0.00  0.00    +0.031 C 
ATOM     19  H   UNL     1       3.562   1.890  18.678  0.00  0.00    +0.047 HD
ATOM     20  H   UNL     1       3.948   1.541  16.995  0.00  0.00    +0.047 HD
BRANCH  18  21
ATOM     21  N   UNL     1       4.696   3.335  17.748  0.00  0.00    -0.234 N 
ATOM     22  C   UNL     1       5.145   4.089  16.697  0.00  0.00    +0.254 C 
ATOM     23  O   UNL     1       4.820   4.049  15.523  0.00  0.00    -0.270 OA
ATOM     24  C   UNL     1       6.131   5.022  17.238  0.00  0.00    +0.049 A 
ATOM     25  C   UNL     1       6.914   5.968  16.606  0.00  0.00    -0.049 A 
ATOM     26  C   UNL     1       7.771   6.728  17.410  0.00  0.00    -0.061 A 
ATOM     27  C   UNL     1       7.820   6.529  18.806  0.00  0.00    -0.061 A 
ATOM     28  C   UNL     1       7.015   5.565  19.422  0.00  0.00    -0.049 A 
ATOM     29  C   UNL     1       6.182   4.825  18.606  0.00  0.00    +0.049 A 
ATOM     30  C   UNL     1       5.228   3.768  18.935  0.00  0.00    +0.254 C 
ATOM     31  O   UNL     1       4.974   3.413  20.071  0.00  0.00    -0.270 OA
ATOM     32  H   UNL     1       6.867   6.110  15.532  0.00  0.00    +0.063 HD
ATOM     33  H   UNL     1       8.409   7.482  16.954  0.00  0.00    +0.062 HD
ATOM     34  H   UNL     1       8.495   7.132  19.410  0.00  0.00    +0.062 HD
ATOM     35  H   UNL     1       7.043   5.398  20.495  0.00  0.00    +0.063 HD
ENDBRANCH  18  21
ENDBRANCH  15  18
ENDBRANCH  12  15
ENDBRANCH   4  11
BRANCH   1  36
ATOM     36  S   UNL     1       0.956   9.810  21.653  0.00  0.00    +0.073 S 
ATOM     37  O   UNL     1       1.762  10.945  21.254  0.00  0.00    -0.150 OA
ATOM     38  O   UNL     1       0.986   9.318  23.015  0.00  0.00    -0.150 OA
BRANCH  36  42
ATOM     39  C   UNL     1      -0.840  12.860  18.886  0.00  0.00    +0.044 A 
ATOM     40  C   UNL     1      -0.612  12.255  20.100  0.00  0.00    +0.001 A 
ATOM     41  C   UNL     1      -0.895  10.912  20.145  0.00  0.00    +0.141 A 
ATOM     42  N   UNL     1      -0.663  10.127  21.293  0.00  0.00    -0.199 N 
ATOM     43  N   UNL     1      -1.362  10.186  19.124  0.00  0.00    -0.216 NA
ATOM     44  C   UNL     1      -1.529  10.858  17.974  0.00  0.00    +0.128 A 
ATOM     45  N   UNL     1      -1.295  12.175  17.816  0.00  0.00    -0.237 NA
ATOM     46  H   UNL     1      -0.233  12.793  20.956  0.00  0.00    +0.067 HD
ATOM     47  H   UNL     1      -1.198   9.262  21.261  0.00  0.00    +0.175 HD
BRANCH  39  48
ATOM     48  C   UNL     1      -0.566  14.323  18.706  0.00  0.00    -0.022 C 
ATOM     49  H   UNL     1      -0.611  14.837  19.671  0.00  0.00    +0.029 HD
ATOM     50  H   UNL     1       0.430  14.482  18.278  0.00  0.00    +0.029 HD
ATOM     51  H   UNL     1      -1.302  14.764  18.025  0.00  0.00    +0.029 HD
ENDBRANCH  39  48
BRANCH  44  52
ATOM     52  C   UNL     1      -2.035  10.099  16.789  0.00  0.00    -0.005 C 
ATOM     53  H   UNL     1      -3.110  10.257  16.677  0.00  0.00    +0.031 HD
ATOM     54  H   UNL     1      -1.850   9.025  16.908  0.00  0.00    +0.031 HD
ATOM     55  H   UNL     1      -1.528  10.433  15.878  0.00  0.00    +0.031 HD
ENDBRANCH  44  52
ENDBRANCH  36  42
ENDBRANCH   1  36
TORSDOF 8
ENDMDL
MODEL 23
REMARK VINA RESULT:    -7.620      2.787      9.879
REMARK INTER + INTRA:         -10.729
REMARK INTER:                 -10.014
REMARK INTRA:                  -0.715
REMARK UNBOUND:                 0.009
REMARK  Name = 
REMARK  8 active torsions:
REMARK  status: ('A' for Active; 'I' for Inactive)
REMARK    1  A    between atoms: C_1  and  C_2
REMARK    2  A    between atoms: N_5  and  S_6
REMARK    3  A    between atoms: S_6  and  C_9
REMARK    4  A    between atoms: C_12  and  N_13
REMARK    5  A    between atoms: C_14  and  C_16
REMARK    6  A    between atoms: C_16  and  C_17
REMARK    7  A    between atoms: C_17  and  N_18
REMARK    8  A    between atoms: C_32  and  C_33
REMARK                            x       y       z     vdW  Elec       q    Type
REMARK                         _______ _______ _______ _____ _____    ______ ____
ROOT
ATOM      1  C   UNL     1       1.222   9.618  19.441  0.00  0.00    +0.109 A 
ATOM      2  C   UNL     1       1.298   8.655  20.448  0.00  0.00    -0.033 A 
ATOM      3  C   UNL     1       1.856   7.403  20.170  0.00  0.00    -0.039 A 
ATOM      4  C   UNL     1       2.318   7.100  18.885  0.00  0.00    +0.033 A 
ATOM      5  C   UNL     1       2.204   8.066  17.875  0.00  0.00    -0.039 A 
ATOM      6  C   UNL     1       1.657   9.324  18.147  0.00  0.00    -0.033 A 
ATOM      7  H   UNL     1       0.942   8.865  21.454  0.00  0.00    +0.064 HD
ATOM      8  H   UNL     1       1.911   6.685  20.984  0.00  0.00    +0.064 HD
ATOM      9  H   UNL     1       2.543   7.857  16.863  0.00  0.00    +0.064 HD
ATOM     10  H   UNL     1       1.576  10.060  17.349  0.00  0.00    +0.064 HD
ENDROOT
BRANCH   4  11
ATOM     11  N   UNL     1       2.900   5.866  18.526  0.00  0.00    -0.285 N 
ATOM     12  C   UNL     1       2.295   4.809  17.870  0.00  0.00    +0.219 C 
ATOM     13  O   UNL     1       1.128   4.756  17.494  0.00  0.00    -0.275 OA
ATOM     14  H   UNL     1       3.887   5.766  18.742  0.00  0.00    +0.155 HD
BRANCH  12  15
ATOM     15  C   UNL     1       3.230   3.633  17.667  0.00  0.00    +0.041 C 
ATOM     16  H   UNL     1       2.635   2.808  17.259  0.00  0.00    +0.037 HD
ATOM     17  H   UNL     1       3.637   3.280  18.620  0.00  0.00    +0.037 HD
BRANCH  15  18
ATOM     18  C   UNL     1       4.350   3.986  16.696  0.00  0.00    +0.031 C 
ATOM     19  H   UNL     1       4.945   3.086  16.497  0.00  0.00    +0.047 HD
ATOM     20  H   UNL     1       3.933   4.311  15.735  0.00  0.00    +0.047 HD
BRANCH  18  21
ATOM     21  N   UNL     1       5.277   5.002  17.172  0.00  0.00    -0.234 N 
ATOM     22  C   UNL     1       6.191   4.835  18.179  0.00  0.00    +0.254 C 
ATOM     23  O   UNL     1       6.375   3.872  18.901  0.00  0.00    -0.270 OA
ATOM     24  C   UNL     1       6.971   6.068  18.248  0.00  0.00    +0.049 A 
ATOM     25  C   UNL     1       7.985   6.441  19.109  0.00  0.00    -0.049 A 
ATOM     26  C   UNL     1       8.554   7.705  18.915  0.00  0.00    -0.061 A 
ATOM     27  C   UNL     1       8.104   8.550  17.879  0.00  0.00    -0.061 A 
ATOM     28  C   UNL     1       7.077   8.147  17.020  0.00  0.00    -0.049 A 
ATOM     29  C   UNL     1       6.529   6.898  17.234  0.00  0.00    +0.049 A 
ATOM     30  C   UNL     1       5.467   6.193  16.519  0.00  0.00    +0.254 C 
ATOM     31  O   UNL     1       4.924   6.621  15.519  0.00  0.00    -0.270 OA
ATOM     32  H   UNL     1       8.320   5.782  19.902  0.00  0.00    +0.063 HD
ATOM     33  H   UNL     1       9.353   8.042  19.572  0.00  0.00    +0.062 HD
ATOM     34  H   UNL     1       8.562   9.529  17.749  0.00  0.00    +0.062 HD
ATOM     35  H   UNL     1       6.718   8.787  16.218  0.00  0.00    +0.063 HD
ENDBRANCH  18  21
ENDBRANCH  15  18
ENDBRANCH  12  15
ENDBRANCH   4  11
BRANCH   1  36
ATOM     36  S   UNL     1       0.536  11.222  19.793  0.00  0.00    +0.073 S 
ATOM     37  O   UNL     1       0.140  11.829  18.540  0.00  0.00    -0.150 OA
ATOM     38  O   UNL     1       1.453  11.895  20.690  0.00  0.00    -0.150 OA
BRANCH  36  42
ATOM     39  C   UNL     1      -2.642  13.964  21.396  0.00  0.00    +0.044 A 
ATOM     40  C   UNL     1      -1.625  13.042  21.486  0.00  0.00    +0.001 A 
ATOM     41  C   UNL     1      -1.815  11.890  20.763  0.00  0.00    +0.141 A 
ATOM     42  N   UNL     1      -0.845  10.868  20.697  0.00  0.00    -0.199 N 
ATOM     43  N   UNL     1      -2.885  11.619  20.009  0.00  0.00    -0.216 NA
ATOM     44  C   UNL     1      -3.813  12.589  19.964  0.00  0.00    +0.128 A 
ATOM     45  N   UNL     1      -3.738  13.752  20.638  0.00  0.00    -0.237 NA
ATOM     46  H   UNL     1      -0.737  13.211  22.078  0.00  0.00    +0.067 HD
ATOM     47  H   UNL     1      -1.259   9.990  20.390  0.00  0.00    +0.175 HD
BRANCH  39  48
ATOM     48  C   UNL     1      -2.552  15.264  22.136  0.00  0.00    -0.022 C 
ATOM     49  H   UNL     1      -3.441  15.872  21.941  0.00  0.00    +0.029 HD
ATOM     50  H   UNL     1      -2.483  15.094  23.216  0.00  0.00    +0.029 HD
ATOM     51  H   UNL     1      -1.658  15.815  21.823  0.00  0.00    +0.029 HD
ENDBRANCH  39  48
BRANCH  44  52
ATOM     52  C   UNL     1      -5.028  12.353  19.124  0.00  0.00    -0.005 C 
ATOM     53  H   UNL     1      -5.905  12.793  19.608  0.00  0.00    +0.031 HD
ATOM     54  H   UNL     1      -5.205  11.280  18.989  0.00  0.00    +0.031 HD
ATOM     55  H   UNL     1      -4.902  12.806  18.136  0.00  0.00    +0.031 HD
ENDBRANCH  44  52
ENDBRANCH  36  42
ENDBRANCH   1  36
TORSDOF 8
ENDMDL
MODEL 24
REMARK VINA RESULT:    -7.616      2.844      9.625
REMARK INTER + INTRA:         -10.724
REMARK INTER:                 -10.247
REMARK INTRA:                  -0.477
REMARK UNBOUND:                 0.009
REMARK  Name = 
REMARK  8 active torsions:
REMARK  status: ('A' for Active; 'I' for Inactive)
REMARK    1  A    between atoms: C_1  and  C_2
REMARK    2  A    between atoms: N_5  and  S_6
REMARK    3  A    between atoms: S_6  and  C_9
REMARK    4  A    between atoms: C_12  and  N_13
REMARK    5  A    between atoms: C_14  and  C_16
REMARK    6  A    between atoms: C_16  and  C_17
REMARK    7  A    between atoms: C_17  and  N_18
REMARK    8  A    between atoms: C_32  and  C_33
REMARK                            x       y       z     vdW  Elec       q    Type
REMARK                         _______ _______ _______ _____ _____    ______ ____
ROOT
ATOM      1  C   UNL     1       1.108   8.686  20.426  0.00  0.00    +0.109 A 
ATOM      2  C   UNL     1       1.650   8.793  19.145  0.00  0.00    -0.033 A 
ATOM      3  C   UNL     1       2.245   7.676  18.548  0.00  0.00    -0.039 A 
ATOM      4  C   UNL     1       2.320   6.459  19.234  0.00  0.00    +0.033 A 
ATOM      5  C   UNL     1       1.800   6.377  20.534  0.00  0.00    -0.039 A 
ATOM      6  C   UNL     1       1.195   7.486  21.134  0.00  0.00    -0.033 A 
ATOM      7  H   UNL     1       1.608   9.730  18.593  0.00  0.00    +0.064 HD
ATOM      8  H   UNL     1       2.643   7.794  17.544  0.00  0.00    +0.064 HD
ATOM      9  H   UNL     1       1.854   5.448  21.098  0.00  0.00    +0.064 HD
ATOM     10  H   UNL     1       0.799   7.401  22.144  0.00  0.00    +0.064 HD
ENDROOT
BRANCH   4  11
ATOM     11  N   UNL     1       2.894   5.286  18.700  0.00  0.00    -0.285 N 
ATOM     12  C   UNL     1       2.289   4.353  17.877  0.00  0.00    +0.219 C 
ATOM     13  O   UNL     1       1.129   4.377  17.476  0.00  0.00    -0.275 OA
ATOM     14  H   UNL     1       3.874   5.138  18.916  0.00  0.00    +0.155 HD
BRANCH  12  15
ATOM     15  C   UNL     1       3.212   3.207  17.512  0.00  0.00    +0.041 C 
ATOM     16  H   UNL     1       2.598   2.426  17.049  0.00  0.00    +0.037 HD
ATOM     17  H   UNL     1       3.662   2.760  18.404  0.00  0.00    +0.037 HD
BRANCH  15  18
ATOM     18  C   UNL     1       4.287   3.662  16.532  0.00  0.00    +0.031 C 
ATOM     19  H   UNL     1       4.887   2.793  16.234  0.00  0.00    +0.047 HD
ATOM     20  H   UNL     1       3.827   4.060  15.620  0.00  0.00    +0.047 HD
BRANCH  18  21
ATOM     21  N   UNL     1       5.217   4.651  17.057  0.00  0.00    -0.234 N 
ATOM     22  C   UNL     1       5.932   4.531  18.219  0.00  0.00    +0.254 C 
ATOM     23  O   UNL     1       5.900   3.646  19.057  0.00  0.00    -0.270 OA
ATOM     24  C   UNL     1       6.806   5.698  18.299  0.00  0.00    +0.049 A 
ATOM     25  C   UNL     1       7.696   6.088  19.281  0.00  0.00    -0.049 A 
ATOM     26  C   UNL     1       8.409   7.272  19.062  0.00  0.00    -0.061 A 
ATOM     27  C   UNL     1       8.220   8.024  17.884  0.00  0.00    -0.061 A 
ATOM     28  C   UNL     1       7.314   7.606  16.904  0.00  0.00    -0.049 A 
ATOM     29  C   UNL     1       6.620   6.437  17.145  0.00  0.00    +0.049 A 
ATOM     30  C   UNL     1       5.627   5.739  16.331  0.00  0.00    +0.254 C 
ATOM     31  O   UNL     1       5.300   6.089  15.213  0.00  0.00    -0.270 OA
ATOM     32  H   UNL     1       7.830   5.502  20.183  0.00  0.00    +0.063 HD
ATOM     33  H   UNL     1       9.118   7.620  19.811  0.00  0.00    +0.062 HD
ATOM     34  H   UNL     1       8.786   8.942  17.737  0.00  0.00    +0.062 HD
ATOM     35  H   UNL     1       7.157   8.175  15.991  0.00  0.00    +0.063 HD
ENDBRANCH  18  21
ENDBRANCH  15  18
ENDBRANCH  12  15
ENDBRANCH   4  11
BRANCH   1  36
ATOM     36  S   UNL     1       0.328  10.095  21.183  0.00  0.00    +0.073 S 
ATOM     37  O   UNL     1       1.357  11.058  21.514  0.00  0.00    -0.150 OA
ATOM     38  O   UNL     1      -0.576   9.594  22.197  0.00  0.00    -0.150 OA
BRANCH  36  42
ATOM     39  C   UNL     1      -2.278  13.755  21.129  0.00  0.00    +0.044 A 
ATOM     40  C   UNL     1      -2.014  12.407  21.048  0.00  0.00    +0.001 A 
ATOM     41  C   UNL     1      -1.069  12.052  20.117  0.00  0.00    +0.141 A 
ATOM     42  N   UNL     1      -0.637  10.721  19.947  0.00  0.00    -0.199 N 
ATOM     43  N   UNL     1      -0.417  12.900  19.316  0.00  0.00    -0.216 NA
ATOM     44  C   UNL     1      -0.724  14.196  19.485  0.00  0.00    +0.128 A 
ATOM     45  N   UNL     1      -1.641  14.660  20.357  0.00  0.00    -0.237 NA
ATOM     46  H   UNL     1      -2.509  11.679  21.674  0.00  0.00    +0.067 HD
ATOM     47  H   UNL     1      -0.186  10.595  19.043  0.00  0.00    +0.175 HD
BRANCH  39  48
ATOM     48  C   UNL     1      -3.288  14.270  22.109  0.00  0.00    -0.022 C 
ATOM     49  H   UNL     1      -3.328  13.619  22.988  0.00  0.00    +0.029 HD
ATOM     50  H   UNL     1      -3.026  15.280  22.442  0.00  0.00    +0.029 HD
ATOM     51  H   UNL     1      -4.279  14.314  21.644  0.00  0.00    +0.029 HD
ENDBRANCH  39  48
BRANCH  44  52
ATOM     52  C   UNL     1      -0.017  15.199  18.628  0.00  0.00    -0.005 C 
ATOM     53  H   UNL     1      -0.746  15.854  18.144  0.00  0.00    +0.031 HD
ATOM     54  H   UNL     1       0.573  14.698  17.852  0.00  0.00    +0.031 HD
ATOM     55  H   UNL     1       0.661  15.807  19.234  0.00  0.00    +0.031 HD
ENDBRANCH  44  52
ENDBRANCH  36  42
ENDBRANCH   1  36
TORSDOF 8
ENDMDL
MODEL 25
REMARK VINA RESULT:    -7.605      2.810      4.062
REMARK INTER + INTRA:         -10.708
REMARK INTER:                 -10.092
REMARK INTRA:                  -0.615
REMARK UNBOUND:                 0.009
REMARK  Name = 
REMARK  8 active torsions:
REMARK  status: ('A' for Active; 'I' for Inactive)
REMARK    1  A    between atoms: C_1  and  C_2
REMARK    2  A    between atoms: N_5  and  S_6
REMARK    3  A    between atoms: S_6  and  C_9
REMARK    4  A    between atoms: C_12  and  N_13
REMARK    5  A    between atoms: C_14  and  C_16
REMARK    6  A    between atoms: C_16  and  C_17
REMARK    7  A    between atoms: C_17  and  N_18
REMARK    8  A    between atoms: C_32  and  C_33
REMARK                            x       y       z     vdW  Elec       q    Type
REMARK                         _______ _______ _______ _____ _____    ______ ____
ROOT
ATOM      1  C   UNL     1       2.233   7.702  18.937  0.00  0.00    +0.109 A 
ATOM      2  C   UNL     1       1.960   7.576  20.299  0.00  0.00    -0.033 A 
ATOM      3  C   UNL     1       1.243   8.580  20.958  0.00  0.00    -0.039 A 
ATOM      4  C   UNL     1       0.816   9.720  20.268  0.00  0.00    +0.033 A 
ATOM      5  C   UNL     1       1.127   9.847  18.907  0.00  0.00    -0.039 A 
ATOM      6  C   UNL     1       1.835   8.844  18.237  0.00  0.00    -0.033 A 
ATOM      7  H   UNL     1       2.285   6.702  20.859  0.00  0.00    +0.064 HD
ATOM      8  H   UNL     1       1.037   8.439  22.016  0.00  0.00    +0.064 HD
ATOM      9  H   UNL     1       0.820  10.726  18.345  0.00  0.00    +0.064 HD
ATOM     10  H   UNL     1       2.067   8.963  17.181  0.00  0.00    +0.064 HD
ENDROOT
BRANCH   4  11
ATOM     11  N   UNL     1       0.082  10.770  20.857  0.00  0.00    -0.285 N 
ATOM     12  C   UNL     1       0.525  12.049  21.145  0.00  0.00    +0.219 C 
ATOM     13  O   UNL     1       1.652  12.492  20.947  0.00  0.00    -0.275 OA
ATOM     14  H   UNL     1      -0.893  10.569  21.053  0.00  0.00    +0.155 HD
BRANCH  12  15
ATOM     15  C   UNL     1      -0.543  12.907  21.794  0.00  0.00    +0.041 C 
ATOM     16  H   UNL     1      -0.043  13.550  22.529  0.00  0.00    +0.037 HD
ATOM     17  H   UNL     1      -1.258  12.296  22.354  0.00  0.00    +0.037 HD
BRANCH  15  18
ATOM     18  C   UNL     1      -1.257  13.769  20.760  0.00  0.00    +0.031 C 
ATOM     19  H   UNL     1      -2.032  14.359  21.264  0.00  0.00    +0.047 HD
ATOM     20  H   UNL     1      -0.556  14.481  20.308  0.00  0.00    +0.047 HD
BRANCH  18  21
ATOM     21  N   UNL     1      -1.921  13.027  19.698  0.00  0.00    -0.234 N 
ATOM     22  C   UNL     1      -1.337  12.620  18.528  0.00  0.00    +0.254 C 
ATOM     23  O   UNL     1      -0.211  12.832  18.113  0.00  0.00    -0.270 OA
ATOM     24  C   UNL     1      -2.333  11.826  17.814  0.00  0.00    +0.049 A 
ATOM     25  C   UNL     1      -2.277  11.220  16.574  0.00  0.00    -0.049 A 
ATOM     26  C   UNL     1      -3.409  10.510  16.159  0.00  0.00    -0.061 A 
ATOM     27  C   UNL     1      -4.551  10.422  16.982  0.00  0.00    -0.061 A 
ATOM     28  C   UNL     1      -4.582  11.044  18.234  0.00  0.00    -0.049 A 
ATOM     29  C   UNL     1      -3.454  11.743  18.619  0.00  0.00    +0.049 A 
ATOM     30  C   UNL     1      -3.170  12.482  19.847  0.00  0.00    +0.254 C 
ATOM     31  O   UNL     1      -3.926  12.532  20.799  0.00  0.00    -0.270 OA
ATOM     32  H   UNL     1      -1.393  11.296  15.951  0.00  0.00    +0.063 HD
ATOM     33  H   UNL     1      -3.411  10.018  15.188  0.00  0.00    +0.062 HD
ATOM     34  H   UNL     1      -5.420   9.864  16.637  0.00  0.00    +0.062 HD
ATOM     35  H   UNL     1      -5.454  10.988  18.880  0.00  0.00    +0.063 HD
ENDBRANCH  18  21
ENDBRANCH  15  18
ENDBRANCH  12  15
ENDBRANCH   4  11
BRANCH   1  36
ATOM     36  S   UNL     1       3.124   6.418  18.085  0.00  0.00    +0.073 S 
ATOM     37  O   UNL     1       3.963   7.039  17.081  0.00  0.00    -0.150 OA
ATOM     38  O   UNL     1       2.164   5.395  17.724  0.00  0.00    -0.150 OA
BRANCH  36  42
ATOM     39  C   UNL     1       2.274   3.092  20.983  0.00  0.00    +0.044 A 
ATOM     40  C   UNL     1       2.581   4.381  20.615  0.00  0.00    +0.001 A 
ATOM     41  C   UNL     1       3.684   4.510  19.806  0.00  0.00    +0.141 A 
ATOM     42  N   UNL     1       4.102   5.754  19.290  0.00  0.00    -0.199 N 
ATOM     43  N   UNL     1       4.445   3.502  19.371  0.00  0.00    -0.216 NA
ATOM     44  C   UNL     1       4.052   2.279  19.762  0.00  0.00    +0.128 A 
ATOM     45  N   UNL     1       2.997   2.033  20.562  0.00  0.00    -0.237 NA
ATOM     46  H   UNL     1       1.998   5.232  20.935  0.00  0.00    +0.067 HD
ATOM     47  H   UNL     1       5.072   5.715  18.982  0.00  0.00    +0.175 HD
BRANCH  39  48
ATOM     48  C   UNL     1       1.091   2.818  21.862  0.00  0.00    -0.022 C 
ATOM     49  H   UNL     1       1.354   2.983  22.912  0.00  0.00    +0.029 HD
ATOM     50  H   UNL     1       0.256   3.479  21.608  0.00  0.00    +0.029 HD
ATOM     51  H   UNL     1       0.755   1.783  21.730  0.00  0.00    +0.029 HD
ENDBRANCH  39  48
BRANCH  44  52
ATOM     52  C   UNL     1       4.854   1.105  19.296  0.00  0.00    -0.005 C 
ATOM     53  H   UNL     1       5.421   1.375  18.401  0.00  0.00    +0.031 HD
ATOM     54  H   UNL     1       4.201   0.259  19.054  0.00  0.00    +0.031 HD
ATOM     55  H   UNL     1       5.551   0.786  20.077  0.00  0.00    +0.031 HD
ENDBRANCH  44  52
ENDBRANCH  36  42
ENDBRANCH   1  36
TORSDOF 8
ENDMDL
MODEL 26
REMARK VINA RESULT:    -7.592      2.849      9.509
REMARK INTER + INTRA:         -10.690
REMARK INTER:                  -9.961
REMARK INTRA:                  -0.729
REMARK UNBOUND:                 0.009
REMARK  Name = 
REMARK  8 active torsions:
REMARK  status: ('A' for Active; 'I' for Inactive)
REMARK    1  A    between atoms: C_1  and  C_2
REMARK    2  A    between atoms: N_5  and  S_6
REMARK    3  A    between atoms: S_6  and  C_9
REMARK    4  A    between atoms: C_12  and  N_13
REMARK    5  A    between atoms: C_14  and  C_16
REMARK    6  A    between atoms: C_16  and  C_17
REMARK    7  A    between atoms: C_17  and  N_18
REMARK    8  A    between atoms: C_32  and  C_33
REMARK                            x       y       z     vdW  Elec       q    Type
REMARK                         _______ _______ _______ _____ _____    ______ ____
ROOT
ATOM      1  C   UNL     1       1.574   9.631  19.414  0.00  0.00    +0.109 A 
ATOM      2  C   UNL     1       1.165   9.124  20.647  0.00  0.00    -0.033 A 
ATOM      3  C   UNL     1       1.392   7.778  20.953  0.00  0.00    -0.039 A 
ATOM      4  C   UNL     1       2.006   6.931  20.024  0.00  0.00    +0.033 A 
ATOM      5  C   UNL     1       2.381   7.448  18.776  0.00  0.00    -0.039 A 
ATOM      6  C   UNL     1       2.167   8.795  18.465  0.00  0.00    -0.033 A 
ATOM      7  H   UNL     1       0.681   9.761  21.385  0.00  0.00    +0.064 HD
ATOM      8  H   UNL     1       1.072   7.423  21.929  0.00  0.00    +0.064 HD
ATOM      9  H   UNL     1       2.850   6.813  18.027  0.00  0.00    +0.064 HD
ATOM     10  H   UNL     1       2.464   9.176  17.491  0.00  0.00    +0.064 HD
ENDROOT
BRANCH   4  11
ATOM     11  N   UNL     1       2.278   5.567  20.259  0.00  0.00    -0.285 N 
ATOM     12  C   UNL     1       1.915   4.489  19.471  0.00  0.00    +0.219 C 
ATOM     13  O   UNL     1       1.274   4.532  18.426  0.00  0.00    -0.275 OA
ATOM     14  H   UNL     1       2.838   5.365  21.080  0.00  0.00    +0.155 HD
BRANCH  12  15
ATOM     15  C   UNL     1       2.368   3.162  20.049  0.00  0.00    +0.041 C 
ATOM     16  H   UNL     1       1.913   2.369  19.443  0.00  0.00    +0.037 HD
ATOM     17  H   UNL     1       1.996   3.025  21.069  0.00  0.00    +0.037 HD
BRANCH  15  18
ATOM     18  C   UNL     1       3.886   3.035  20.002  0.00  0.00    +0.031 C 
ATOM     19  H   UNL     1       4.313   3.570  20.859  0.00  0.00    +0.047 HD
ATOM     20  H   UNL     1       4.184   1.984  20.101  0.00  0.00    +0.047 HD
BRANCH  18  21
ATOM     21  N   UNL     1       4.511   3.589  18.810  0.00  0.00    -0.234 N 
ATOM     22  C   UNL     1       5.393   4.636  18.789  0.00  0.00    +0.254 C 
ATOM     23  O   UNL     1       5.780   5.338  19.707  0.00  0.00    -0.270 OA
ATOM     24  C   UNL     1       5.841   4.782  17.407  0.00  0.00    +0.049 A 
ATOM     25  C   UNL     1       6.693   5.705  16.831  0.00  0.00    -0.049 A 
ATOM     26  C   UNL     1       6.938   5.579  15.460  0.00  0.00    -0.061 A 
ATOM     27  C   UNL     1       6.339   4.547  14.709  0.00  0.00    -0.061 A 
ATOM     28  C   UNL     1       5.481   3.624  15.316  0.00  0.00    -0.049 A 
ATOM     29  C   UNL     1       5.251   3.773  16.669  0.00  0.00    +0.049 A 
ATOM     30  C   UNL     1       4.428   2.983  17.583  0.00  0.00    +0.254 C 
ATOM     31  O   UNL     1       3.839   1.969  17.261  0.00  0.00    -0.270 OA
ATOM     32  H   UNL     1       7.146   6.495  17.420  0.00  0.00    +0.063 HD
ATOM     33  H   UNL     1       7.600   6.286  14.964  0.00  0.00    +0.062 HD
ATOM     34  H   UNL     1       6.545   4.470  13.643  0.00  0.00    +0.062 HD
ATOM     35  H   UNL     1       5.009   2.824  14.751  0.00  0.00    +0.063 HD
ENDBRANCH  18  21
ENDBRANCH  15  18
ENDBRANCH  12  15
ENDBRANCH   4  11
BRANCH   1  36
ATOM     36  S   UNL     1       1.310  11.348  19.026  0.00  0.00    +0.073 S 
ATOM     37  O   UNL     1       1.963  11.633  17.766  0.00  0.00    -0.150 OA
ATOM     38  O   UNL     1       1.625  12.111  20.217  0.00  0.00    -0.150 OA
BRANCH  36  42
ATOM     39  C   UNL     1      -1.933  12.057  22.054  0.00  0.00    +0.044 A 
ATOM     40  C   UNL     1      -1.260  11.349  21.086  0.00  0.00    +0.001 A 
ATOM     41  C   UNL     1      -1.082  12.010  19.896  0.00  0.00    +0.141 A 
ATOM     42  N   UNL     1      -0.362  11.452  18.819  0.00  0.00    -0.199 N 
ATOM     43  N   UNL     1      -1.505  13.249  19.631  0.00  0.00    -0.216 NA
ATOM     44  C   UNL     1      -2.129  13.870  20.645  0.00  0.00    +0.128 A 
ATOM     45  N   UNL     1      -2.370  13.317  21.849  0.00  0.00    -0.237 NA
ATOM     46  H   UNL     1      -0.893  10.345  21.248  0.00  0.00    +0.067 HD
ATOM     47  H   UNL     1      -0.586  11.923  17.945  0.00  0.00    +0.175 HD
BRANCH  39  48
ATOM     48  C   UNL     1      -2.187  11.446  23.399  0.00  0.00    -0.022 C 
ATOM     49  H   UNL     1      -1.242  11.291  23.929  0.00  0.00    +0.029 HD
ATOM     50  H   UNL     1      -2.820  12.100  24.010  0.00  0.00    +0.029 HD
ATOM     51  H   UNL     1      -2.703  10.486  23.286  0.00  0.00    +0.029 HD
ENDBRANCH  39  48
BRANCH  44  52
ATOM     52  C   UNL     1      -2.615  15.267  20.416  0.00  0.00    -0.005 C 
ATOM     53  H   UNL     1      -1.922  15.797  19.757  0.00  0.00    +0.031 HD
ATOM     54  H   UNL     1      -2.684  15.813  21.363  0.00  0.00    +0.031 HD
ATOM     55  H   UNL     1      -3.607  15.255  19.955  0.00  0.00    +0.031 HD
ENDBRANCH  44  52
ENDBRANCH  36  42
ENDBRANCH   1  36
TORSDOF 8
ENDMDL
MODEL 27
REMARK VINA RESULT:    -7.591      3.541     10.027
REMARK INTER + INTRA:         -10.688
REMARK INTER:                  -9.833
REMARK INTRA:                  -0.855
REMARK UNBOUND:                 0.009
REMARK  Name = 
REMARK  8 active torsions:
REMARK  status: ('A' for Active; 'I' for Inactive)
REMARK    1  A    between atoms: C_1  and  C_2
REMARK    2  A    between atoms: N_5  and  S_6
REMARK    3  A    between atoms: S_6  and  C_9
REMARK    4  A    between atoms: C_12  and  N_13
REMARK    5  A    between atoms: C_14  and  C_16
REMARK    6  A    between atoms: C_16  and  C_17
REMARK    7  A    between atoms: C_17  and  N_18
REMARK    8  A    between atoms: C_32  and  C_33
REMARK                            x       y       z     vdW  Elec       q    Type
REMARK                         _______ _______ _______ _____ _____    ______ ____
ROOT
ATOM      1  C   UNL     1      -2.511  11.921  19.743  0.00  0.00    +0.109 A 
ATOM      2  C   UNL     1      -2.462  11.745  18.360  0.00  0.00    -0.033 A 
ATOM      3  C   UNL     1      -1.498  10.900  17.802  0.00  0.00    -0.039 A 
ATOM      4  C   UNL     1      -0.567  10.246  18.616  0.00  0.00    +0.033 A 
ATOM      5  C   UNL     1      -0.608  10.460  20.002  0.00  0.00    -0.039 A 
ATOM      6  C   UNL     1      -1.575  11.295  20.570  0.00  0.00    -0.033 A 
ATOM      7  H   UNL     1      -3.172  12.246  17.704  0.00  0.00    +0.064 HD
ATOM      8  H   UNL     1      -1.501  10.778  16.722  0.00  0.00    +0.064 HD
ATOM      9  H   UNL     1       0.109   9.975  20.662  0.00  0.00    +0.064 HD
ATOM     10  H   UNL     1      -1.589  11.448  21.647  0.00  0.00    +0.064 HD
ENDROOT
BRANCH   4  11
ATOM     11  N   UNL     1       0.429   9.373  18.133  0.00  0.00    -0.285 N 
ATOM     12  C   UNL     1       1.767   9.655  17.924  0.00  0.00    +0.219 C 
ATOM     13  O   UNL     1       2.323  10.733  18.113  0.00  0.00    -0.275 OA
ATOM     14  H   UNL     1       0.130   8.419  17.958  0.00  0.00    +0.155 HD
BRANCH  12  15
ATOM     15  C   UNL     1       2.538   8.470  17.378  0.00  0.00    +0.041 C 
ATOM     16  H   UNL     1       3.262   8.856  16.651  0.00  0.00    +0.037 HD
ATOM     17  H   UNL     1       1.882   7.788  16.828  0.00  0.00    +0.037 HD
BRANCH  15  18
ATOM     18  C   UNL     1       3.274   7.735  18.492  0.00  0.00    +0.031 C 
ATOM     19  H   UNL     1       4.336   7.663  18.229  0.00  0.00    +0.047 HD
ATOM     20  H   UNL     1       3.215   8.304  19.428  0.00  0.00    +0.047 HD
BRANCH  18  21
ATOM     21  N   UNL     1       2.812   6.377  18.740  0.00  0.00    -0.234 N 
ATOM     22  C   UNL     1       3.190   5.267  18.033  0.00  0.00    +0.254 C 
ATOM     23  O   UNL     1       3.909   5.185  17.052  0.00  0.00    -0.270 OA
ATOM     24  C   UNL     1       2.569   4.118  18.687  0.00  0.00    +0.049 A 
ATOM     25  C   UNL     1       2.590   2.777  18.357  0.00  0.00    -0.049 A 
ATOM     26  C   UNL     1       1.894   1.902  19.198  0.00  0.00    -0.061 A 
ATOM     27  C   UNL     1       1.208   2.381  20.333  0.00  0.00    -0.061 A 
ATOM     28  C   UNL     1       1.204   3.744  20.646  0.00  0.00    -0.049 A 
ATOM     29  C   UNL     1       1.894   4.588  19.799  0.00  0.00    +0.049 A 
ATOM     30  C   UNL     1       2.086   6.035  19.852  0.00  0.00    +0.254 C 
ATOM     31  O   UNL     1       1.684   6.739  20.759  0.00  0.00    -0.270 OA
ATOM     32  H   UNL     1       3.121   2.423  17.480  0.00  0.00    +0.063 HD
ATOM     33  H   UNL     1       1.881   0.837  18.974  0.00  0.00    +0.062 HD
ATOM     34  H   UNL     1       0.674   1.680  20.972  0.00  0.00    +0.062 HD
ATOM     35  H   UNL     1       0.678   4.129  21.517  0.00  0.00    +0.063 HD
ENDBRANCH  18  21
ENDBRANCH  15  18
ENDBRANCH  12  15
ENDBRANCH   4  11
BRANCH   1  36
ATOM     36  S   UNL     1      -3.750  12.976  20.463  0.00  0.00    +0.073 S 
ATOM     37  O   UNL     1      -3.923  12.590  21.848  0.00  0.00    -0.150 OA
ATOM     38  O   UNL     1      -4.875  13.003  19.552  0.00  0.00    -0.150 OA
BRANCH  36  42
ATOM     39  C   UNL     1      -1.161  15.086  23.468  0.00  0.00    +0.044 A 
ATOM     40  C   UNL     1      -2.275  14.914  22.680  0.00  0.00    +0.001 A 
ATOM     41  C   UNL     1      -2.022  14.754  21.339  0.00  0.00    +0.141 A 
ATOM     42  N   UNL     1      -3.045  14.509  20.401  0.00  0.00    -0.199 N 
ATOM     43  N   UNL     1      -0.811  14.756  20.776  0.00  0.00    -0.216 NA
ATOM     44  C   UNL     1       0.216  14.905  21.629  0.00  0.00    +0.128 A 
ATOM     45  N   UNL     1       0.089  15.081  22.958  0.00  0.00    -0.237 NA
ATOM     46  H   UNL     1      -3.277  14.902  23.084  0.00  0.00    +0.067 HD
ATOM     47  H   UNL     1      -2.733  14.721  19.455  0.00  0.00    +0.175 HD
BRANCH  39  48
ATOM     48  C   UNL     1      -1.303  15.267  24.949  0.00  0.00    -0.022 C 
ATOM     49  H   UNL     1      -1.239  14.299  25.457  0.00  0.00    +0.029 HD
ATOM     50  H   UNL     1      -0.508  15.912  25.340  0.00  0.00    +0.029 HD
ATOM     51  H   UNL     1      -2.265  15.736  25.182  0.00  0.00    +0.029 HD
ENDBRANCH  39  48
BRANCH  44  52
ATOM     52  C   UNL     1       1.601  14.900  21.062  0.00  0.00    -0.005 C 
ATOM     53  H   UNL     1       1.612  15.427  20.104  0.00  0.00    +0.031 HD
ATOM     54  H   UNL     1       1.950  13.874  20.901  0.00  0.00    +0.031 HD
ATOM     55  H   UNL     1       2.295  15.394  21.748  0.00  0.00    +0.031 HD
ENDBRANCH  44  52
ENDBRANCH  36  42
ENDBRANCH   1  36
TORSDOF 8
ENDMDL
MODEL 28
REMARK VINA RESULT:    -7.576      2.864      9.447
REMARK INTER + INTRA:         -10.666
REMARK INTER:                  -9.926
REMARK INTRA:                  -0.740
REMARK UNBOUND:                 0.009
REMARK  Name = 
REMARK  8 active torsions:
REMARK  status: ('A' for Active; 'I' for Inactive)
REMARK    1  A    between atoms: C_1  and  C_2
REMARK    2  A    between atoms: N_5  and  S_6
REMARK    3  A    between atoms: S_6  and  C_9
REMARK    4  A    between atoms: C_12  and  N_13
REMARK    5  A    between atoms: C_14  and  C_16
REMARK    6  A    between atoms: C_16  and  C_17
REMARK    7  A    between atoms: C_17  and  N_18
REMARK    8  A    between atoms: C_32  and  C_33
REMARK                            x       y       z     vdW  Elec       q    Type
REMARK                         _______ _______ _______ _____ _____    ______ ____
ROOT
ATOM      1  C   UNL     1       1.128   8.815  20.068  0.00  0.00    +0.109 A 
ATOM      2  C   UNL     1       1.649   8.813  18.774  0.00  0.00    -0.033 A 
ATOM      3  C   UNL     1       2.277   7.665  18.282  0.00  0.00    -0.039 A 
ATOM      4  C   UNL     1       2.407   6.525  19.083  0.00  0.00    +0.033 A 
ATOM      5  C   UNL     1       1.907   6.555  20.393  0.00  0.00    -0.039 A 
ATOM      6  C   UNL     1       1.268   7.696  20.890  0.00  0.00    -0.033 A 
ATOM      7  H   UNL     1       1.565   9.688  18.133  0.00  0.00    +0.064 HD
ATOM      8  H   UNL     1       2.658   7.696  17.264  0.00  0.00    +0.064 HD
ATOM      9  H   UNL     1       2.002   5.689  21.046  0.00  0.00    +0.064 HD
ATOM     10  H   UNL     1       0.889   7.698  21.910  0.00  0.00    +0.064 HD
ENDROOT
BRANCH   4  11
ATOM     11  N   UNL     1       3.017   5.327  18.659  0.00  0.00    -0.285 N 
ATOM     12  C   UNL     1       2.472   4.346  17.848  0.00  0.00    +0.219 C 
ATOM     13  O   UNL     1       1.346   4.344  17.363  0.00  0.00    -0.275 OA
ATOM     14  H   UNL     1       3.979   5.194  18.954  0.00  0.00    +0.155 HD
BRANCH  12  15
ATOM     15  C   UNL     1       3.420   3.185  17.617  0.00  0.00    +0.041 C 
ATOM     16  H   UNL     1       2.817   2.332  17.283  0.00  0.00    +0.037 HD
ATOM     17  H   UNL     1       3.905   2.876  18.547  0.00  0.00    +0.037 HD
BRANCH  15  18
ATOM     18  C   UNL     1       4.455   3.528  16.551  0.00  0.00    +0.031 C 
ATOM     19  H   UNL     1       5.034   2.626  16.317  0.00  0.00    +0.047 HD
ATOM     20  H   UNL     1       3.959   3.839  15.624  0.00  0.00    +0.047 HD
BRANCH  18  21
ATOM     21  N   UNL     1       5.414   4.553  16.937  0.00  0.00    -0.234 N 
ATOM     22  C   UNL     1       5.558   5.774  16.333  0.00  0.00    +0.254 C 
ATOM     23  O   UNL     1       4.988   6.222  15.353  0.00  0.00    -0.270 OA
ATOM     24  C   UNL     1       6.555   6.511  17.105  0.00  0.00    +0.049 A 
ATOM     25  C   UNL     1       7.097   7.765  16.905  0.00  0.00    -0.049 A 
ATOM     26  C   UNL     1       8.042   8.208  17.838  0.00  0.00    -0.061 A 
ATOM     27  C   UNL     1       8.412   7.400  18.933  0.00  0.00    -0.061 A 
ATOM     28  C   UNL     1       7.846   6.134  19.113  0.00  0.00    -0.049 A 
ATOM     29  C   UNL     1       6.920   5.718  18.177  0.00  0.00    +0.049 A 
ATOM     30  C   UNL     1       6.155   4.476  18.088  0.00  0.00    +0.254 C 
ATOM     31  O   UNL     1       6.186   3.598  18.930  0.00  0.00    -0.270 OA
ATOM     32  H   UNL     1       6.805   8.375  16.058  0.00  0.00    +0.063 HD
ATOM     33  H   UNL     1       8.498   9.189  17.718  0.00  0.00    +0.062 HD
ATOM     34  H   UNL     1       9.149   7.766  19.645  0.00  0.00    +0.062 HD
ATOM     35  H   UNL     1       8.122   5.499  19.951  0.00  0.00    +0.063 HD
ENDBRANCH  18  21
ENDBRANCH  15  18
ENDBRANCH  12  15
ENDBRANCH   4  11
BRANCH   1  36
ATOM     36  S   UNL     1       0.305  10.265  20.694  0.00  0.00    +0.073 S 
ATOM     37  O   UNL     1       1.260  11.027  21.470  0.00  0.00    -0.150 OA
ATOM     38  O   UNL     1      -0.949   9.831  21.274  0.00  0.00    -0.150 OA
BRANCH  36  42
ATOM     39  C   UNL     1      -1.133  14.495  20.224  0.00  0.00    +0.044 A 
ATOM     40  C   UNL     1      -1.220  13.126  20.118  0.00  0.00    +0.001 A 
ATOM     41  C   UNL     1      -0.183  12.526  19.445  0.00  0.00    +0.141 A 
ATOM     42  N   UNL     1      -0.086  11.128  19.296  0.00  0.00    -0.199 N 
ATOM     43  N   UNL     1       0.861  13.165  18.908  0.00  0.00    -0.216 NA
ATOM     44  C   UNL     1       0.870  14.496  19.085  0.00  0.00    +0.128 A 
ATOM     45  N   UNL     1      -0.095  15.191  19.716  0.00  0.00    -0.237 NA
ATOM     46  H   UNL     1      -2.040  12.561  20.535  0.00  0.00    +0.067 HD
ATOM     47  H   UNL     1       0.545  10.883  18.536  0.00  0.00    +0.175 HD
BRANCH  39  48
ATOM     48  C   UNL     1      -2.200  15.267  20.940  0.00  0.00    -0.022 C 
ATOM     49  H   UNL     1      -2.164  15.056  22.013  0.00  0.00    +0.029 HD
ATOM     50  H   UNL     1      -2.063  16.344  20.797  0.00  0.00    +0.029 HD
ATOM     51  H   UNL     1      -3.188  14.997  20.549  0.00  0.00    +0.029 HD
ENDBRANCH  39  48
BRANCH  44  52
ATOM     52  C   UNL     1       2.022  15.267  18.520  0.00  0.00    -0.005 C 
ATOM     53  H   UNL     1       2.369  14.794  17.598  0.00  0.00    +0.031 HD
ATOM     54  H   UNL     1       2.854  15.298  19.232  0.00  0.00    +0.031 HD
ATOM     55  H   UNL     1       1.720  16.296  18.302  0.00  0.00    +0.031 HD
ENDBRANCH  44  52
ENDBRANCH  36  42
ENDBRANCH   1  36
TORSDOF 8
ENDMDL
MODEL 29
REMARK VINA RESULT:    -7.499      3.111      4.688
REMARK INTER + INTRA:         -10.558
REMARK INTER:                 -10.103
REMARK INTRA:                  -0.456
REMARK UNBOUND:                 0.009
REMARK  Name = 
REMARK  8 active torsions:
REMARK  status: ('A' for Active; 'I' for Inactive)
REMARK    1  A    between atoms: C_1  and  C_2
REMARK    2  A    between atoms: N_5  and  S_6
REMARK    3  A    between atoms: S_6  and  C_9
REMARK    4  A    between atoms: C_12  and  N_13
REMARK    5  A    between atoms: C_14  and  C_16
REMARK    6  A    between atoms: C_16  and  C_17
REMARK    7  A    between atoms: C_17  and  N_18
REMARK    8  A    between atoms: C_32  and  C_33
REMARK                            x       y       z     vdW  Elec       q    Type
REMARK                         _______ _______ _______ _____ _____    ______ ____
ROOT
ATOM      1  C   UNL     1       2.304   5.720  19.056  0.00  0.00    +0.109 A 
ATOM      2  C   UNL     1       1.945   5.820  20.400  0.00  0.00    -0.033 A 
ATOM      3  C   UNL     1       1.580   7.061  20.930  0.00  0.00    -0.039 A 
ATOM      4  C   UNL     1       1.593   8.209  20.130  0.00  0.00    +0.033 A 
ATOM      5  C   UNL     1       1.988   8.097  18.788  0.00  0.00    -0.039 A 
ATOM      6  C   UNL     1       2.345   6.858  18.248  0.00  0.00    -0.033 A 
ATOM      7  H   UNL     1       1.931   4.943  21.045  0.00  0.00    +0.064 HD
ATOM      8  H   UNL     1       1.292   7.097  21.978  0.00  0.00    +0.064 HD
ATOM      9  H   UNL     1       2.020   8.972  18.143  0.00  0.00    +0.064 HD
ATOM     10  H   UNL     1       2.650   6.793  17.206  0.00  0.00    +0.064 HD
ENDROOT
BRANCH   4  11
ATOM     11  N   UNL     1       1.230   9.493  20.584  0.00  0.00    -0.285 N 
ATOM     12  C   UNL     1       0.728  10.541  19.833  0.00  0.00    +0.219 C 
ATOM     13  O   UNL     1       0.520  10.538  18.624  0.00  0.00    -0.275 OA
ATOM     14  H   UNL     1       1.313   9.646  21.584  0.00  0.00    +0.155 HD
BRANCH  12  15
ATOM     15  C   UNL     1       0.467  11.784  20.662  0.00  0.00    +0.041 C 
ATOM     16  H   UNL     1       1.190  11.785  21.486  0.00  0.00    +0.037 HD
ATOM     17  H   UNL     1      -0.526  11.754  21.121  0.00  0.00    +0.037 HD
BRANCH  15  18
ATOM     18  C   UNL     1       0.641  13.046  19.826  0.00  0.00    +0.031 C 
ATOM     19  H   UNL     1       0.225  12.870  18.826  0.00  0.00    +0.047 HD
ATOM     20  H   UNL     1       0.076  13.876  20.266  0.00  0.00    +0.047 HD
BRANCH  18  21
ATOM     21  N   UNL     1       2.021  13.469  19.635  0.00  0.00    -0.234 N 
ATOM     22  C   UNL     1       2.688  13.489  18.440  0.00  0.00    +0.254 C 
ATOM     23  O   UNL     1       2.314  13.118  17.341  0.00  0.00    -0.270 OA
ATOM     24  C   UNL     1       4.000  14.078  18.699  0.00  0.00    +0.049 A 
ATOM     25  C   UNL     1       5.071  14.290  17.853  0.00  0.00    -0.049 A 
ATOM     26  C   UNL     1       6.208  14.893  18.403  0.00  0.00    -0.061 A 
ATOM     27  C   UNL     1       6.244  15.267  19.762  0.00  0.00    -0.061 A 
ATOM     28  C   UNL     1       5.144  15.042  20.597  0.00  0.00    -0.049 A 
ATOM     29  C   UNL     1       4.036  14.442  20.032  0.00  0.00    +0.049 A 
ATOM     30  C   UNL     1       2.747  14.086  20.622  0.00  0.00    +0.254 C 
ATOM     31  O   UNL     1       2.429  14.350  21.765  0.00  0.00    -0.270 OA
ATOM     32  H   UNL     1       5.031  13.996  16.811  0.00  0.00    +0.063 HD
ATOM     33  H   UNL     1       7.078  15.076  17.775  0.00  0.00    +0.062 HD
ATOM     34  H   UNL     1       7.140  15.733  20.167  0.00  0.00    +0.062 HD
ATOM     35  H   UNL     1       5.156  15.323  21.647  0.00  0.00    +0.063 HD
ENDBRANCH  18  21
ENDBRANCH  15  18
ENDBRANCH  12  15
ENDBRANCH   4  11
BRANCH   1  36
ATOM     36  S   UNL     1       2.746   4.139  18.368  0.00  0.00    +0.073 S 
ATOM     37  O   UNL     1       2.543   4.196  16.936  0.00  0.00    -0.150 OA
ATOM     38  O   UNL     1       2.099   3.123  19.173  0.00  0.00    -0.150 OA
BRANCH  36  42
ATOM     39  C   UNL     1       6.258   4.584  15.600  0.00  0.00    +0.044 A 
ATOM     40  C   UNL     1       5.436   3.919  16.481  0.00  0.00    +0.001 A 
ATOM     41  C   UNL     1       5.257   4.538  17.694  0.00  0.00    +0.141 A 
ATOM     42  N   UNL     1       4.400   4.021  18.688  0.00  0.00    -0.199 N 
ATOM     43  N   UNL     1       5.809   5.699  18.057  0.00  0.00    -0.216 NA
ATOM     44  C   UNL     1       6.574   6.286  17.123  0.00  0.00    +0.128 A 
ATOM     45  N   UNL     1       6.830   5.768  15.906  0.00  0.00    -0.237 NA
ATOM     46  H   UNL     1       4.963   2.979  16.237  0.00  0.00    +0.067 HD
ATOM     47  H   UNL     1       4.618   4.417  19.600  0.00  0.00    +0.175 HD
BRANCH  39  48
ATOM     48  C   UNL     1       6.530   4.014  14.242  0.00  0.00    -0.022 C 
ATOM     49  H   UNL     1       7.495   4.372  13.868  0.00  0.00    +0.029 HD
ATOM     50  H   UNL     1       6.561   2.920  14.278  0.00  0.00    +0.029 HD
ATOM     51  H   UNL     1       5.739   4.307  13.543  0.00  0.00    +0.029 HD
ENDBRANCH  39  48
BRANCH  44  52
ATOM     52  C   UNL     1       7.208   7.598  17.462  0.00  0.00    -0.005 C 
ATOM     53  H   UNL     1       8.279   7.459  17.634  0.00  0.00    +0.031 HD
ATOM     54  H   UNL     1       6.761   8.022  18.368  0.00  0.00    +0.031 HD
ATOM     55  H   UNL     1       7.068   8.312  16.645  0.00  0.00    +0.031 HD
ENDBRANCH  44  52
ENDBRANCH  36  42
ENDBRANCH   1  36
TORSDOF 8
ENDMDL
MODEL 30
REMARK VINA RESULT:    -7.484      2.763      4.239
REMARK INTER + INTRA:         -10.537
REMARK INTER:                 -10.336
REMARK INTRA:                  -0.201
REMARK UNBOUND:                 0.009
REMARK  Name = 
REMARK  8 active torsions:
REMARK  status: ('A' for Active; 'I' for Inactive)
REMARK    1  A    between atoms: C_1  and  C_2
REMARK    2  A    between atoms: N_5  and  S_6
REMARK    3  A    between atoms: S_6  and  C_9
REMARK    4  A    between atoms: C_12  and  N_13
REMARK    5  A    between atoms: C_14  and  C_16
REMARK    6  A    between atoms: C_16  and  C_17
REMARK    7  A    between atoms: C_17  and  N_18
REMARK    8  A    between atoms: C_32  and  C_33
REMARK                            x       y       z     vdW  Elec       q    Type
REMARK                         _______ _______ _______ _____ _____    ______ ____
ROOT
ATOM      1  C   UNL     1       1.982   7.117  19.700  0.00  0.00    +0.109 A 
ATOM      2  C   UNL     1       1.606   7.191  21.041  0.00  0.00    -0.033 A 
ATOM      3  C   UNL     1       1.035   8.368  21.537  0.00  0.00    -0.039 A 
ATOM      4  C   UNL     1       0.858   9.479  20.706  0.00  0.00    +0.033 A 
ATOM      5  C   UNL     1       1.272   9.399  19.368  0.00  0.00    -0.039 A 
ATOM      6  C   UNL     1       1.835   8.223  18.861  0.00  0.00    -0.033 A 
ATOM      7  H   UNL     1       1.737   6.343  21.710  0.00  0.00    +0.064 HD
ATOM      8  H   UNL     1       0.741   8.382  22.584  0.00  0.00    +0.064 HD
ATOM      9  H   UNL     1       1.159  10.249  18.698  0.00  0.00    +0.064 HD
ATOM     10  H   UNL     1       2.150   8.183  17.821  0.00  0.00    +0.064 HD
ENDROOT
BRANCH   4  11
ATOM     11  N   UNL     1       0.283  10.696  21.125  0.00  0.00    -0.285 N 
ATOM     12  C   UNL     1      -0.595  10.893  22.177  0.00  0.00    +0.219 C 
ATOM     13  O   UNL     1      -1.041  10.030  22.927  0.00  0.00    -0.275 OA
ATOM     14  H   UNL     1       0.582  11.522  20.618  0.00  0.00    +0.155 HD
BRANCH  12  15
ATOM     15  C   UNL     1      -1.019  12.341  22.322  0.00  0.00    +0.041 C 
ATOM     16  H   UNL     1      -0.246  12.851  22.910  0.00  0.00    +0.037 HD
ATOM     17  H   UNL     1      -1.949  12.428  22.891  0.00  0.00    +0.037 HD
BRANCH  15  18
ATOM     18  C   UNL     1      -1.150  13.012  20.959  0.00  0.00    +0.031 C 
ATOM     19  H   UNL     1      -1.524  12.277  20.236  0.00  0.00    +0.047 HD
ATOM     20  H   UNL     1      -1.889  13.821  21.003  0.00  0.00    +0.047 HD
BRANCH  18  21
ATOM     21  N   UNL     1       0.091  13.541  20.414  0.00  0.00    -0.234 N 
ATOM     22  C   UNL     1       0.993  14.314  21.096  0.00  0.00    +0.254 C 
ATOM     23  O   UNL     1       0.927  14.759  22.229  0.00  0.00    -0.270 OA
ATOM     24  C   UNL     1       2.128  14.526  20.202  0.00  0.00    +0.049 A 
ATOM     25  C   UNL     1       3.283  15.264  20.376  0.00  0.00    -0.049 A 
ATOM     26  C   UNL     1       4.203  15.266  19.323  0.00  0.00    -0.061 A 
ATOM     27  C   UNL     1       3.953  14.539  18.140  0.00  0.00    -0.061 A 
ATOM     28  C   UNL     1       2.776  13.799  17.990  0.00  0.00    -0.049 A 
ATOM     29  C   UNL     1       1.881  13.816  19.042  0.00  0.00    +0.049 A 
ATOM     30  C   UNL     1       0.590  13.151  19.198  0.00  0.00    +0.254 C 
ATOM     31  O   UNL     1       0.121  12.380  18.382  0.00  0.00    -0.270 OA
ATOM     32  H   UNL     1       3.462  15.819  21.290  0.00  0.00    +0.063 HD
ATOM     33  H   UNL     1       5.126  15.837  19.415  0.00  0.00    +0.062 HD
ATOM     34  H   UNL     1       4.684  14.557  17.335  0.00  0.00    +0.062 HD
ATOM     35  H   UNL     1       2.568  13.235  17.084  0.00  0.00    +0.063 HD
ENDBRANCH  18  21
ENDBRANCH  15  18
ENDBRANCH  12  15
ENDBRANCH   4  11
BRANCH   1  36
ATOM     36  S   UNL     1       2.687   5.615  19.055  0.00  0.00    +0.073 S 
ATOM     37  O   UNL     1       1.669   4.587  19.088  0.00  0.00    -0.150 OA
ATOM     38  O   UNL     1       3.963   5.421  19.713  0.00  0.00    -0.150 OA
BRANCH  36  42
ATOM     39  C   UNL     1       6.588   6.736  17.128  0.00  0.00    +0.044 A 
ATOM     40  C   UNL     1       5.284   6.935  17.519  0.00  0.00    +0.001 A 
ATOM     41  C   UNL     1       4.394   5.981  17.088  0.00  0.00    +0.141 A 
ATOM     42  N   UNL     1       3.030   6.002  17.448  0.00  0.00    -0.199 N 
ATOM     43  N   UNL     1       4.703   4.916  16.343  0.00  0.00    -0.216 NA
ATOM     44  C   UNL     1       6.004   4.794  16.033  0.00  0.00    +0.128 A 
ATOM     45  N   UNL     1       6.962   5.670  16.389  0.00  0.00    -0.237 NA
ATOM     46  H   UNL     1       4.980   7.777  18.123  0.00  0.00    +0.067 HD
ATOM     47  H   UNL     1       2.476   5.428  16.815  0.00  0.00    +0.175 HD
BRANCH  39  48
ATOM     48  C   UNL     1       7.656   7.704  17.537  0.00  0.00    -0.022 C 
ATOM     49  H   UNL     1       7.954   7.523  18.574  0.00  0.00    +0.029 HD
ATOM     50  H   UNL     1       8.543   7.597  16.902  0.00  0.00    +0.029 HD
ATOM     51  H   UNL     1       7.292   8.733  17.438  0.00  0.00    +0.029 HD
ENDBRANCH  39  48
BRANCH  44  52
ATOM     52  C   UNL     1       6.418   3.612  15.213  0.00  0.00    -0.005 C 
ATOM     53  H   UNL     1       5.753   2.768  15.416  0.00  0.00    +0.031 HD
ATOM     54  H   UNL     1       7.445   3.315  15.452  0.00  0.00    +0.031 HD
ATOM     55  H   UNL     1       6.371   3.854  14.146  0.00  0.00    +0.031 HD
ENDBRANCH  44  52
ENDBRANCH  36  42
ENDBRANCH   1  36
TORSDOF 8
ENDMDL
MODEL 31
REMARK VINA RESULT:    -7.475      5.219      8.272
REMARK INTER + INTRA:         -10.525
REMARK INTER:                 -10.097
REMARK INTRA:                  -0.428
REMARK UNBOUND:                 0.009
REMARK  Name = 
REMARK  8 active torsions:
REMARK  status: ('A' for Active; 'I' for Inactive)
REMARK    1  A    between atoms: C_1  and  C_2
REMARK    2  A    between atoms: N_5  and  S_6
REMARK    3  A    between atoms: S_6  and  C_9
REMARK    4  A    between atoms: C_12  and  N_13
REMARK    5  A    between atoms: C_14  and  C_16
REMARK    6  A    between atoms: C_16  and  C_17
REMARK    7  A    between atoms: C_17  and  N_18
REMARK    8  A    between atoms: C_32  and  C_33
REMARK                            x       y       z     vdW  Elec       q    Type
REMARK                         _______ _______ _______ _____ _____    ______ ____
ROOT
ATOM      1  C   UNL     1       5.817   5.511  17.487  0.00  0.00    +0.109 A 
ATOM      2  C   UNL     1       7.084   5.629  18.059  0.00  0.00    -0.033 A 
ATOM      3  C   UNL     1       7.728   6.871  18.067  0.00  0.00    -0.039 A 
ATOM      4  C   UNL     1       7.122   7.991  17.488  0.00  0.00    +0.033 A 
ATOM      5  C   UNL     1       5.863   7.848  16.887  0.00  0.00    -0.039 A 
ATOM      6  C   UNL     1       5.207   6.612  16.883  0.00  0.00    -0.033 A 
ATOM      7  H   UNL     1       7.579   4.772  18.512  0.00  0.00    +0.064 HD
ATOM      8  H   UNL     1       8.708   6.926  18.535  0.00  0.00    +0.064 HD
ATOM      9  H   UNL     1       5.370   8.697  16.418  0.00  0.00    +0.064 HD
ATOM     10  H   UNL     1       4.231   6.523  16.411  0.00  0.00    +0.064 HD
ENDROOT
BRANCH   4  11
ATOM     11  N   UNL     1       7.700   9.277  17.463  0.00  0.00    -0.285 N 
ATOM     12  C   UNL     1       8.638   9.795  18.339  0.00  0.00    +0.219 C 
ATOM     13  O   UNL     1       9.126   9.221  19.308  0.00  0.00    -0.275 OA
ATOM     14  H   UNL     1       7.420   9.871  16.690  0.00  0.00    +0.155 HD
BRANCH  12  15
ATOM     15  C   UNL     1       9.018  11.225  18.011  0.00  0.00    +0.041 C 
ATOM     16  H   UNL     1       8.087  11.792  17.892  0.00  0.00    +0.037 HD
ATOM     17  H   UNL     1       9.543  11.288  17.053  0.00  0.00    +0.037 HD
BRANCH  15  18
ATOM     18  C   UNL     1       9.852  11.840  19.129  0.00  0.00    +0.031 C 
ATOM     19  H   UNL     1      10.363  11.037  19.674  0.00  0.00    +0.047 HD
ATOM     20  H   UNL     1      10.631  12.488  18.711  0.00  0.00    +0.047 HD
BRANCH  18  21
ATOM     21  N   UNL     1       9.093  12.596  20.115  0.00  0.00    -0.234 N 
ATOM     22  C   UNL     1       8.434  13.773  19.878  0.00  0.00    +0.254 C 
ATOM     23  O   UNL     1       8.392  14.443  18.861  0.00  0.00    -0.270 OA
ATOM     24  C   UNL     1       7.729  14.116  21.110  0.00  0.00    +0.049 A 
ATOM     25  C   UNL     1       6.955  15.216  21.425  0.00  0.00    -0.049 A 
ATOM     26  C   UNL     1       6.396  15.258  22.708  0.00  0.00    -0.061 A 
ATOM     27  C   UNL     1       6.618  14.213  23.628  0.00  0.00    -0.061 A 
ATOM     28  C   UNL     1       7.405  13.109  23.284  0.00  0.00    -0.049 A 
ATOM     29  C   UNL     1       7.949  13.093  22.014  0.00  0.00    +0.049 A 
ATOM     30  C   UNL     1       8.793  12.098  21.357  0.00  0.00    +0.254 C 
ATOM     31  O   UNL     1       9.102  11.034  21.858  0.00  0.00    -0.270 OA
ATOM     32  H   UNL     1       6.793  16.013  20.708  0.00  0.00    +0.063 HD
ATOM     33  H   UNL     1       5.782  16.107  23.000  0.00  0.00    +0.062 HD
ATOM     34  H   UNL     1       6.173  14.268  24.620  0.00  0.00    +0.062 HD
ATOM     35  H   UNL     1       7.587  12.296  23.982  0.00  0.00    +0.063 HD
ENDBRANCH  18  21
ENDBRANCH  15  18
ENDBRANCH  12  15
ENDBRANCH   4  11
BRANCH   1  36
ATOM     36  S   UNL     1       4.981   3.940  17.493  0.00  0.00    +0.073 S 
ATOM     37  O   UNL     1       5.252   3.288  18.757  0.00  0.00    -0.150 OA
ATOM     38  O   UNL     1       5.285   3.285  16.237  0.00  0.00    -0.150 OA
BRANCH  36  42
ATOM     39  C   UNL     1       1.813   3.705  20.671  0.00  0.00    +0.044 A 
ATOM     40  C   UNL     1       2.394   3.406  19.461  0.00  0.00    +0.001 A 
ATOM     41  C   UNL     1       2.697   4.490  18.674  0.00  0.00    +0.141 A 
ATOM     42  N   UNL     1       3.348   4.365  17.430  0.00  0.00    -0.199 N 
ATOM     43  N   UNL     1       2.470   5.766  18.998  0.00  0.00    -0.216 NA
ATOM     44  C   UNL     1       1.923   5.961  20.209  0.00  0.00    +0.128 A 
ATOM     45  N   UNL     1       1.575   4.975  21.059  0.00  0.00    -0.237 NA
ATOM     46  H   UNL     1       2.602   2.392  19.150  0.00  0.00    +0.067 HD
ATOM     47  H   UNL     1       3.217   5.200  16.862  0.00  0.00    +0.175 HD
BRANCH  39  48
ATOM     48  C   UNL     1       1.440   2.609  21.622  0.00  0.00    -0.022 C 
ATOM     49  H   UNL     1       0.405   2.297  21.452  0.00  0.00    +0.029 HD
ATOM     50  H   UNL     1       2.088   1.737  21.486  0.00  0.00    +0.029 HD
ATOM     51  H   UNL     1       1.549   2.953  22.657  0.00  0.00    +0.029 HD
ENDBRANCH  39  48
BRANCH  44  52
ATOM     52  C   UNL     1       1.658   7.369  20.638  0.00  0.00    -0.005 C 
ATOM     53  H   UNL     1       1.717   7.443  21.727  0.00  0.00    +0.031 HD
ATOM     54  H   UNL     1       0.661   7.691  20.320  0.00  0.00    +0.031 HD
ATOM     55  H   UNL     1       2.394   8.047  20.195  0.00  0.00    +0.031 HD
ENDBRANCH  44  52
ENDBRANCH  36  42
ENDBRANCH   1  36
TORSDOF 8
ENDMDL
MODEL 32
REMARK VINA RESULT:    -7.331      2.976      4.482
REMARK INTER + INTRA:         -10.321
REMARK INTER:                 -10.079
REMARK INTRA:                  -0.242
REMARK UNBOUND:                 0.009
REMARK  Name = 
REMARK  8 active torsions:
REMARK  status: ('A' for Active; 'I' for Inactive)
REMARK    1  A    between atoms: C_1  and  C_2
REMARK    2  A    between atoms: N_5  and  S_6
REMARK    3  A    between atoms: S_6  and  C_9
REMARK    4  A    between atoms: C_12  and  N_13
REMARK    5  A    between atoms: C_14  and  C_16
REMARK    6  A    between atoms: C_16  and  C_17
REMARK    7  A    between atoms: C_17  and  N_18
REMARK    8  A    between atoms: C_32  and  C_33
REMARK                            x       y       z     vdW  Elec       q    Type
REMARK                         _______ _______ _______ _____ _____    ______ ____
ROOT
ATOM      1  C   UNL     1       3.679   6.673  18.056  0.00  0.00    +0.109 A 
ATOM      2  C   UNL     1       3.345   6.249  19.342  0.00  0.00    -0.033 A 
ATOM      3  C   UNL     1       2.351   6.923  20.059  0.00  0.00    -0.039 A 
ATOM      4  C   UNL     1       1.703   8.033  19.506  0.00  0.00    +0.033 A 
ATOM      5  C   UNL     1       2.074   8.467  18.225  0.00  0.00    -0.039 A 
ATOM      6  C   UNL     1       3.060   7.794  17.497  0.00  0.00    -0.033 A 
ATOM      7  H   UNL     1       3.837   5.391  19.796  0.00  0.00    +0.064 HD
ATOM      8  H   UNL     1       2.108   6.553  21.052  0.00  0.00    +0.064 HD
ATOM      9  H   UNL     1       1.598   9.335  17.772  0.00  0.00    +0.064 HD
ATOM     10  H   UNL     1       3.333   8.148  16.506  0.00  0.00    +0.064 HD
ENDROOT
BRANCH   4  11
ATOM     11  N   UNL     1       0.686   8.760  20.158  0.00  0.00    -0.285 N 
ATOM     12  C   UNL     1       0.735   9.329  21.419  0.00  0.00    +0.219 C 
ATOM     13  O   UNL     1       1.678   9.287  22.202  0.00  0.00    -0.275 OA
ATOM     14  H   UNL     1      -0.160   8.912  19.620  0.00  0.00    +0.155 HD
BRANCH  12  15
ATOM     15  C   UNL     1      -0.559  10.022  21.798  0.00  0.00    +0.041 C 
ATOM     16  H   UNL     1      -0.362  10.609  22.704  0.00  0.00    +0.037 HD
ATOM     17  H   UNL     1      -1.336   9.298  22.061  0.00  0.00    +0.037 HD
BRANCH  15  18
ATOM     18  C   UNL     1      -1.032  10.947  20.683  0.00  0.00    +0.031 C 
ATOM     19  H   UNL     1      -1.238  10.347  19.788  0.00  0.00    +0.047 HD
ATOM     20  H   UNL     1      -1.973  11.434  20.965  0.00  0.00    +0.047 HD
BRANCH  18  21
ATOM     21  N   UNL     1      -0.075  11.970  20.288  0.00  0.00    -0.234 N 
ATOM     22  C   UNL     1       0.404  12.965  21.097  0.00  0.00    +0.254 C 
ATOM     23  O   UNL     1       0.102  13.238  22.246  0.00  0.00    -0.270 OA
ATOM     24  C   UNL     1       1.409  13.690  20.325  0.00  0.00    +0.049 A 
ATOM     25  C   UNL     1       2.162  14.802  20.650  0.00  0.00    -0.049 A 
ATOM     26  C   UNL     1       3.064  15.266  19.687  0.00  0.00    -0.061 A 
ATOM     27  C   UNL     1       3.192  14.616  18.442  0.00  0.00    -0.061 A 
ATOM     28  C   UNL     1       2.419  13.491  18.137  0.00  0.00    -0.049 A 
ATOM     29  C   UNL     1       1.533  13.055  19.103  0.00  0.00    +0.049 A 
ATOM     30  C   UNL     1       0.606  11.925  19.098  0.00  0.00    +0.254 C 
ATOM     31  O   UNL     1       0.530  11.114  18.195  0.00  0.00    -0.270 OA
ATOM     32  H   UNL     1       2.053  15.292  21.611  0.00  0.00    +0.063 HD
ATOM     33  H   UNL     1       3.676  16.141  19.899  0.00  0.00    +0.062 HD
ATOM     34  H   UNL     1       3.900  14.996  17.708  0.00  0.00    +0.062 HD
ATOM     35  H   UNL     1       2.504  12.980  17.182  0.00  0.00    +0.063 HD
ENDBRANCH  18  21
ENDBRANCH  15  18
ENDBRANCH  12  15
ENDBRANCH   4  11
BRANCH   1  36
ATOM     36  S   UNL     1       4.925   5.806  17.128  0.00  0.00    +0.073 S 
ATOM     37  O   UNL     1       6.052   5.561  18.003  0.00  0.00    -0.150 OA
ATOM     38  O   UNL     1       5.096   6.511  15.873  0.00  0.00    -0.150 OA
BRANCH  36  42
ATOM     39  C   UNL     1       4.054   2.267  19.754  0.00  0.00    +0.044 A 
ATOM     40  C   UNL     1       4.633   2.924  18.693  0.00  0.00    +0.001 A 
ATOM     41  C   UNL     1       3.755   3.567  17.856  0.00  0.00    +0.141 A 
ATOM     42  N   UNL     1       4.185   4.336  16.754  0.00  0.00    -0.199 N 
ATOM     43  N   UNL     1       2.427   3.592  18.001  0.00  0.00    -0.216 NA
ATOM     44  C   UNL     1       1.957   2.944  19.079  0.00  0.00    +0.128 A 
ATOM     45  N   UNL     1       2.721   2.271  19.961  0.00  0.00    -0.237 NA
ATOM     46  H   UNL     1       5.701   2.937  18.530  0.00  0.00    +0.067 HD
ATOM     47  H   UNL     1       3.428   4.475  16.088  0.00  0.00    +0.175 HD
BRANCH  39  48
ATOM     48  C   UNL     1       4.906   1.529  20.743  0.00  0.00    -0.022 C 
ATOM     49  H   UNL     1       4.494   1.637  21.751  0.00  0.00    +0.029 HD
ATOM     50  H   UNL     1       4.948   0.462  20.501  0.00  0.00    +0.029 HD
ATOM     51  H   UNL     1       5.929   1.920  20.726  0.00  0.00    +0.029 HD
ENDBRANCH  39  48
BRANCH  44  52
ATOM     52  C   UNL     1       0.479   2.949  19.308  0.00  0.00    -0.005 C 
ATOM     53  H   UNL     1       0.268   3.025  20.378  0.00  0.00    +0.031 HD
ATOM     54  H   UNL     1       0.024   2.028  18.926  0.00  0.00    +0.031 HD
ATOM     55  H   UNL     1       0.016   3.797  18.793  0.00  0.00    +0.031 HD
ENDBRANCH  44  52
ENDBRANCH  36  42
ENDBRANCH   1  36
TORSDOF 8
ENDMDL
