MODEL 1
REMARK VINA RESULT:   -12.816      0.000      0.000
REMARK INTER + INTRA:         -11.812
REMARK INTER:                  -9.888
REMARK INTRA:                  -1.923
REMARK UNBOUND:                 4.002
REMARK  Name = 
REMARK  4 active torsions:
REMARK  status: ('A' for Active; 'I' for Inactive)
REMARK    1  A    between atoms: C_2  and  C_3
REMARK    2  A    between atoms: C_2  and  C_20
REMARK    3  A    between atoms: C_10  and  C_11
REMARK    4  A    between atoms: C_21  and  C_22
REMARK                            x       y       z     vdW  Elec       q    Type
REMARK                         _______ _______ _______ _____ _____    ______ ____
ROOT
ATOM      1  O   UNL     1       3.050   9.790  17.769  0.00  0.00    -0.285 OA
ATOM      2  C   UNL     1       2.132   9.147  18.266  0.00  0.00    +0.212 C 
ENDROOT
BRANCH   2   3
ATOM      3  C   UNL     1       2.357   7.851  18.896  0.00  0.00    +0.057 A 
ATOM      4  C   UNL     1       1.888   7.437  20.142  0.00  0.00    +0.058 A 
ATOM      5  N   UNL     1       2.324   6.146  20.329  0.00  0.00    -0.354 N 
ATOM      6  C   UNL     1       3.088   5.725  19.269  0.00  0.00    +0.048 A 
ATOM      7  C   UNL     1       3.735   4.503  19.053  0.00  0.00    -0.037 A 
ATOM      8  C   UNL     1       4.461   4.355  17.868  0.00  0.00    -0.046 A 
ATOM      9  C   UNL     1       4.535   5.394  16.945  0.00  0.00    +0.019 A 
ATOM     10 BR   UNL     1       5.528   5.159  15.350  0.00  0.00    -0.050 Br
ATOM     11  C   UNL     1       3.885   6.611  17.172  0.00  0.00    -0.038 A 
ATOM     12  C   UNL     1       3.144   6.780  18.360  0.00  0.00    +0.012 A 
ATOM     13  H   UNL     1       2.136   5.594  21.155  0.00  0.00    +0.166 HD
ATOM     14  H   UNL     1       3.680   3.694  19.776  0.00  0.00    +0.064 HD
ATOM     15  H   UNL     1       4.971   3.414  17.676  0.00  0.00    +0.063 HD
ATOM     16  H   UNL     1       3.949   7.419  16.450  0.00  0.00    +0.064 HD
BRANCH   4  17
ATOM     17  C   UNL     1       1.120   8.145  21.164  0.00  0.00    -0.001 A 
ATOM     18  C   UNL     1      -0.278   8.052  21.193  0.00  0.00    -0.053 A 
ATOM     19  C   UNL     1      -1.010   8.745  22.162  0.00  0.00    -0.061 A 
ATOM     20  C   UNL     1      -0.350   9.524  23.111  0.00  0.00    -0.062 A 
ATOM     21  C   UNL     1       1.040   9.617  23.090  0.00  0.00    -0.061 A 
ATOM     22  C   UNL     1       1.773   8.931  22.120  0.00  0.00    -0.053 A 
ATOM     23  H   UNL     1      -0.811   7.464  20.448  0.00  0.00    +0.062 HD
ATOM     24  H   UNL     1      -2.096   8.687  22.169  0.00  0.00    +0.062 HD
ATOM     25  H   UNL     1      -0.921  10.065  23.861  0.00  0.00    +0.062 HD
ATOM     26  H   UNL     1       1.554  10.225  23.831  0.00  0.00    +0.062 HD
ATOM     27  H   UNL     1       2.858   9.011  22.120  0.00  0.00    +0.062 HD
ENDBRANCH   4  17
ENDBRANCH   2   3
BRANCH   2  28
ATOM     28  C   UNL     1       0.759   9.616  18.215  0.00  0.00    +0.088 A 
ATOM     29  C   UNL     1      -0.305   9.308  17.379  0.00  0.00    -0.020 A 
ATOM     30  C   UNL     1      -1.414  10.086  17.785  0.00  0.00    +0.068 A 
ATOM     31  C   UNL     1      -2.779  10.156  17.314  0.00  0.00    +0.274 A 
ATOM     32  O   UNL     1      -3.210   9.486  16.381  0.00  0.00    -0.266 OA
ATOM     33  N   UNL     1      -3.567  11.054  18.025  0.00  0.00    -0.242 N 
ATOM     34  N   UNL     1      -3.158  11.876  19.065  0.00  0.00    -0.169 NA
ATOM     35  C   UNL     1      -1.910  11.823  19.453  0.00  0.00    +0.115 A 
ATOM     36  C   UNL     1      -1.005  10.889  18.826  0.00  0.00    +0.080 A 
ATOM     37  N   UNL     1       0.298  10.575  19.099  0.00  0.00    -0.350 N 
ATOM     38  H   UNL     1      -0.298   8.592  16.566  0.00  0.00    +0.065 HD
ATOM     39  H   UNL     1      -4.534  11.147  17.734  0.00  0.00    +0.192 HD
ATOM     40  H   UNL     1       0.875  10.974  19.829  0.00  0.00    +0.166 HD
BRANCH  35  41
ATOM     41  C   UNL     1      -1.450  12.727  20.537  0.00  0.00    +0.004 A 
ATOM     42  C   UNL     1      -0.713  13.886  20.251  0.00  0.00    -0.050 A 
ATOM     43  C   UNL     1      -0.308  14.725  21.291  0.00  0.00    -0.026 A 
ATOM     44  C   UNL     1      -0.653  14.412  22.602  0.00  0.00    +0.123 A 
ATOM     45  F   UNL     1      -0.266  15.219  23.596  0.00  0.00    -0.205 F 
ATOM     46  C   UNL     1      -1.404  13.277  22.895  0.00  0.00    -0.026 A 
ATOM     47  C   UNL     1      -1.810  12.433  21.859  0.00  0.00    -0.050 A 
ATOM     48  H   UNL     1      -0.478  14.163  19.226  0.00  0.00    +0.062 HD
ATOM     49  H   UNL     1       0.261  15.628  21.087  0.00  0.00    +0.065 HD
ATOM     50  H   UNL     1      -1.674  13.057  23.923  0.00  0.00    +0.065 HD
ATOM     51  H   UNL     1      -2.404  11.550  22.084  0.00  0.00    +0.062 HD
ENDBRANCH  35  41
ENDBRANCH   2  28
TORSDOF 4
ENDMDL
MODEL 2
REMARK VINA RESULT:   -12.651      1.284      1.438
REMARK INTER + INTRA:         -11.608
REMARK INTER:                 -10.193
REMARK INTRA:                  -1.415
REMARK UNBOUND:                 4.002
REMARK  Name = 
REMARK  4 active torsions:
REMARK  status: ('A' for Active; 'I' for Inactive)
REMARK    1  A    between atoms: C_2  and  C_3
REMARK    2  A    between atoms: C_2  and  C_20
REMARK    3  A    between atoms: C_10  and  C_11
REMARK    4  A    between atoms: C_21  and  C_22
REMARK                            x       y       z     vdW  Elec       q    Type
REMARK                         _______ _______ _______ _____ _____    ______ ____
ROOT
ATOM      1  O   UNL     1       2.328  10.317  17.792  0.00  0.00    -0.285 OA
ATOM      2  C   UNL     1       1.419   9.681  18.315  0.00  0.00    +0.212 C 
ENDROOT
BRANCH   2   3
ATOM      3  C   UNL     1       1.683   8.555  19.203  0.00  0.00    +0.057 A 
ATOM      4  C   UNL     1       1.269   8.424  20.527  0.00  0.00    +0.058 A 
ATOM      5  N   UNL     1       1.726   7.206  20.974  0.00  0.00    -0.354 N 
ATOM      6  C   UNL     1       2.452   6.564  20.001  0.00  0.00    +0.048 A 
ATOM      7  C   UNL     1       3.103   5.326  20.031  0.00  0.00    -0.037 A 
ATOM      8  C   UNL     1       3.784   4.923  18.879  0.00  0.00    -0.046 A 
ATOM      9  C   UNL     1       3.809   5.736  17.748  0.00  0.00    +0.019 A 
ATOM     10 BR   UNL     1       4.741   5.159  16.204  0.00  0.00    -0.050 Br
ATOM     11  C   UNL     1       3.156   6.971  17.730  0.00  0.00    -0.038 A 
ATOM     12  C   UNL     1       2.461   7.395  18.881  0.00  0.00    +0.012 A 
ATOM     13  H   UNL     1       1.577   6.847  21.908  0.00  0.00    +0.166 HD
ATOM     14  H   UNL     1       3.086   4.695  20.915  0.00  0.00    +0.064 HD
ATOM     15  H   UNL     1       4.296   3.965  18.876  0.00  0.00    +0.063 HD
ATOM     16  H   UNL     1       3.182   7.602  16.846  0.00  0.00    +0.064 HD
BRANCH   4  17
ATOM     17  C   UNL     1       0.534   9.336  21.400  0.00  0.00    -0.001 A 
ATOM     18  C   UNL     1      -0.456   8.850  22.264  0.00  0.00    -0.053 A 
ATOM     19  C   UNL     1      -1.170   9.729  23.084  0.00  0.00    -0.061 A 
ATOM     20  C   UNL     1      -0.890  11.094  23.054  0.00  0.00    -0.062 A 
ATOM     21  C   UNL     1       0.097  11.584  22.201  0.00  0.00    -0.061 A 
ATOM     22  C   UNL     1       0.806  10.709  21.376  0.00  0.00    -0.053 A 
ATOM     23  H   UNL     1      -0.701   7.790  22.286  0.00  0.00    +0.062 HD
ATOM     24  H   UNL     1      -1.952   9.351  23.738  0.00  0.00    +0.062 HD
ATOM     25  H   UNL     1      -1.447  11.777  23.690  0.00  0.00    +0.062 HD
ATOM     26  H   UNL     1       0.315  12.649  22.178  0.00  0.00    +0.062 HD
ATOM     27  H   UNL     1       1.577  11.107  20.718  0.00  0.00    +0.062 HD
ENDBRANCH   4  17
ENDBRANCH   2   3
BRANCH   2  28
ATOM     28  C   UNL     1       0.025   9.983  18.042  0.00  0.00    +0.088 A 
ATOM     29  C   UNL     1      -0.833   9.599  17.021  0.00  0.00    -0.020 A 
ATOM     30  C   UNL     1      -2.087  10.210  17.257  0.00  0.00    +0.068 A 
ATOM     31  C   UNL     1      -3.350  10.142  16.557  0.00  0.00    +0.274 A 
ATOM     32  O   UNL     1      -3.526   9.484  15.537  0.00  0.00    -0.266 OA
ATOM     33  N   UNL     1      -4.357  10.892  17.154  0.00  0.00    -0.242 N 
ATOM     34  N   UNL     1      -4.240  11.693  18.282  0.00  0.00    -0.169 NA
ATOM     35  C   UNL     1      -3.079  11.768  18.879  0.00  0.00    +0.115 A 
ATOM     36  C   UNL     1      -1.968  10.991  18.384  0.00  0.00    +0.080 A 
ATOM     37  N   UNL     1      -0.700  10.822  18.869  0.00  0.00    -0.350 N 
ATOM     38  H   UNL     1      -0.596   8.941  16.194  0.00  0.00    +0.065 HD
ATOM     39  H   UNL     1      -5.265  10.885  16.702  0.00  0.00    +0.192 HD
ATOM     40  H   UNL     1      -0.311  11.243  19.704  0.00  0.00    +0.166 HD
BRANCH  35  41
ATOM     41  C   UNL     1      -2.931  12.652  20.062  0.00  0.00    +0.004 A 
ATOM     42  C   UNL     1      -1.948  13.652  20.101  0.00  0.00    -0.050 A 
ATOM     43  C   UNL     1      -1.844  14.480  21.222  0.00  0.00    -0.026 A 
ATOM     44  C   UNL     1      -2.727  14.314  22.284  0.00  0.00    +0.123 A 
ATOM     45  F   UNL     1      -2.625  15.110  23.355  0.00  0.00    -0.205 F 
ATOM     46  C   UNL     1      -3.720  13.341  22.246  0.00  0.00    -0.026 A 
ATOM     47  C   UNL     1      -3.828  12.509  21.129  0.00  0.00    -0.050 A 
ATOM     48  H   UNL     1      -1.282  13.818  19.257  0.00  0.00    +0.062 HD
ATOM     49  H   UNL     1      -1.089  15.260  21.268  0.00  0.00    +0.065 HD
ATOM     50  H   UNL     1      -4.409  13.236  23.079  0.00  0.00    +0.065 HD
ATOM     51  H   UNL     1      -4.610  11.753  21.092  0.00  0.00    +0.062 HD
ENDBRANCH  35  41
ENDBRANCH   2  28
TORSDOF 4
ENDMDL
MODEL 3
REMARK VINA RESULT:   -12.221      1.998      3.006
REMARK INTER + INTRA:         -11.077
REMARK INTER:                  -8.675
REMARK INTRA:                  -2.401
REMARK UNBOUND:                 4.002
REMARK  Name = 
REMARK  4 active torsions:
REMARK  status: ('A' for Active; 'I' for Inactive)
REMARK    1  A    between atoms: C_2  and  C_3
REMARK    2  A    between atoms: C_2  and  C_20
REMARK    3  A    between atoms: C_10  and  C_11
REMARK    4  A    between atoms: C_21  and  C_22
REMARK                            x       y       z     vdW  Elec       q    Type
REMARK                         _______ _______ _______ _____ _____    ______ ____
ROOT
ATOM      1  O   UNL     1       0.613   8.701  17.059  0.00  0.00    -0.285 OA
ATOM      2  C   UNL     1       1.373   8.996  17.975  0.00  0.00    +0.212 C 
ENDROOT
BRANCH   2   3
ATOM      3  C   UNL     1       2.069   7.977  18.752  0.00  0.00    +0.057 A 
ATOM      4  C   UNL     1       1.899   7.701  20.107  0.00  0.00    +0.058 A 
ATOM      5  N   UNL     1       2.743   6.660  20.417  0.00  0.00    -0.354 N 
ATOM      6  C   UNL     1       3.480   6.281  19.321  0.00  0.00    +0.048 A 
ATOM      7  C   UNL     1       4.456   5.286  19.193  0.00  0.00    -0.037 A 
ATOM      8  C   UNL     1       5.056   5.125  17.941  0.00  0.00    -0.046 A 
ATOM      9  C   UNL     1       4.689   5.934  16.868  0.00  0.00    +0.019 A 
ATOM     10 BR   UNL     1       5.522   5.688  15.185  0.00  0.00    -0.050 Br
ATOM     11  C   UNL     1       3.713   6.924  17.009  0.00  0.00    -0.038 A 
ATOM     12  C   UNL     1       3.094   7.102  18.263  0.00  0.00    +0.012 A 
ATOM     13  H   UNL     1       2.836   6.254  21.338  0.00  0.00    +0.166 HD
ATOM     14  H   UNL     1       4.744   4.658  20.031  0.00  0.00    +0.064 HD
ATOM     15  H   UNL     1       5.815   4.358  17.814  0.00  0.00    +0.063 HD
ATOM     16  H   UNL     1       3.434   7.554  16.170  0.00  0.00    +0.064 HD
BRANCH   4  17
ATOM     17  C   UNL     1       1.063   8.340  21.121  0.00  0.00    -0.001 A 
ATOM     18  C   UNL     1      -0.327   8.163  21.111  0.00  0.00    -0.053 A 
ATOM     19  C   UNL     1      -1.125   8.791  22.072  0.00  0.00    -0.061 A 
ATOM     20  C   UNL     1      -0.538   9.587  23.053  0.00  0.00    -0.062 A 
ATOM     21  C   UNL     1       0.845   9.764  23.073  0.00  0.00    -0.061 A 
ATOM     22  C   UNL     1       1.643   9.143  22.110  0.00  0.00    -0.053 A 
ATOM     23  H   UNL     1      -0.804   7.560  20.340  0.00  0.00    +0.062 HD
ATOM     24  H   UNL     1      -2.205   8.668  22.048  0.00  0.00    +0.062 HD
ATOM     25  H   UNL     1      -1.159  10.078  23.799  0.00  0.00    +0.062 HD
ATOM     26  H   UNL     1       1.301  10.385  23.839  0.00  0.00    +0.062 HD
ATOM     27  H   UNL     1       2.721   9.288  22.142  0.00  0.00    +0.062 HD
ENDBRANCH   4  17
ENDBRANCH   2   3
BRANCH   2  28
ATOM     28  C   UNL     1       1.587  10.376  18.372  0.00  0.00    +0.088 A 
ATOM     29  C   UNL     1       2.570  11.301  18.050  0.00  0.00    -0.020 A 
ATOM     30  C   UNL     1       2.284  12.498  18.746  0.00  0.00    +0.068 A 
ATOM     31  C   UNL     1       2.930  13.791  18.766  0.00  0.00    +0.274 A 
ATOM     32  O   UNL     1       3.940  14.056  18.123  0.00  0.00    -0.266 OA
ATOM     33  N   UNL     1       2.292  14.718  19.583  0.00  0.00    -0.242 N 
ATOM     34  N   UNL     1       1.172  14.499  20.373  0.00  0.00    -0.169 NA
ATOM     35  C   UNL     1       0.624  13.311  20.367  0.00  0.00    +0.115 A 
ATOM     36  C   UNL     1       1.164  12.279  19.516  0.00  0.00    +0.080 A 
ATOM     37  N   UNL     1       0.732  11.006  19.259  0.00  0.00    -0.350 N 
ATOM     38  H   UNL     1       3.406  11.145  17.378  0.00  0.00    +0.065 HD
ATOM     39  H   UNL     1       2.706  15.643  19.639  0.00  0.00    +0.192 HD
ATOM     40  H   UNL     1      -0.084  10.554  19.651  0.00  0.00    +0.166 HD
BRANCH  35  41
ATOM     41  C   UNL     1      -0.550  13.053  21.238  0.00  0.00    +0.004 A 
ATOM     42  C   UNL     1      -0.516  13.352  22.608  0.00  0.00    -0.050 A 
ATOM     43  C   UNL     1      -1.642  13.113  23.399  0.00  0.00    -0.026 A 
ATOM     44  C   UNL     1      -2.794  12.593  22.817  0.00  0.00    +0.123 A 
ATOM     45  F   UNL     1      -3.871  12.367  23.578  0.00  0.00    -0.205 F 
ATOM     46  C   UNL     1      -2.846  12.314  21.455  0.00  0.00    -0.026 A 
ATOM     47  C   UNL     1      -1.722  12.549  20.659  0.00  0.00    -0.050 A 
ATOM     48  H   UNL     1       0.364  13.802  23.063  0.00  0.00    +0.062 HD
ATOM     49  H   UNL     1      -1.633  13.341  24.461  0.00  0.00    +0.065 HD
ATOM     50  H   UNL     1      -3.758  11.921  21.017  0.00  0.00    +0.065 HD
ATOM     51  H   UNL     1      -1.764  12.340  19.592  0.00  0.00    +0.062 HD
ENDBRANCH  35  41
ENDBRANCH   2  28
TORSDOF 4
ENDMDL
MODEL 4
REMARK VINA RESULT:   -12.039      0.908      1.476
REMARK INTER + INTRA:         -10.853
REMARK INTER:                  -9.120
REMARK INTRA:                  -1.733
REMARK UNBOUND:                 4.002
REMARK  Name = 
REMARK  4 active torsions:
REMARK  status: ('A' for Active; 'I' for Inactive)
REMARK    1  A    between atoms: C_2  and  C_3
REMARK    2  A    between atoms: C_2  and  C_20
REMARK    3  A    between atoms: C_10  and  C_11
REMARK    4  A    between atoms: C_21  and  C_22
REMARK                            x       y       z     vdW  Elec       q    Type
REMARK                         _______ _______ _______ _____ _____    ______ ____
ROOT
ATOM      1  O   UNL     1       3.356   8.811  17.447  0.00  0.00    -0.285 OA
ATOM      2  C   UNL     1       2.393   8.407  18.090  0.00  0.00    +0.212 C 
ENDROOT
BRANCH   2   3
ATOM      3  C   UNL     1       2.464   7.194  18.896  0.00  0.00    +0.057 A 
ATOM      4  C   UNL     1       1.921   7.005  20.166  0.00  0.00    +0.058 A 
ATOM      5  N   UNL     1       2.214   5.715  20.542  0.00  0.00    -0.354 N 
ATOM      6  C   UNL     1       2.958   5.078  19.580  0.00  0.00    +0.048 A 
ATOM      7  C   UNL     1       3.479   3.779  19.557  0.00  0.00    -0.037 A 
ATOM      8  C   UNL     1       4.218   3.397  18.433  0.00  0.00    -0.046 A 
ATOM      9  C   UNL     1       4.424   4.288  17.382  0.00  0.00    +0.019 A 
ATOM     10 BR   UNL     1       5.431   3.737  15.876  0.00  0.00    -0.050 Br
ATOM     11  C   UNL     1       3.900   5.582  17.418  0.00  0.00    -0.038 A 
ATOM     12  C   UNL     1       3.149   5.987  18.541  0.00  0.00    +0.012 A 
ATOM     13  H   UNL     1       1.947   5.303  21.426  0.00  0.00    +0.166 HD
ATOM     14  H   UNL     1       3.320   3.087  20.378  0.00  0.00    +0.064 HD
ATOM     15  H   UNL     1       4.631   2.393  18.390  0.00  0.00    +0.063 HD
ATOM     16  H   UNL     1       4.068   6.273  16.597  0.00  0.00    +0.064 HD
BRANCH   4  17
ATOM     17  C   UNL     1       1.203   7.920  21.051  0.00  0.00    -0.001 A 
ATOM     18  C   UNL     1       1.904   8.829  21.854  0.00  0.00    -0.053 A 
ATOM     19  C   UNL     1       1.214   9.689  22.713  0.00  0.00    -0.061 A 
ATOM     20  C   UNL     1      -0.178   9.653  22.765  0.00  0.00    -0.062 A 
ATOM     21  C   UNL     1      -0.883   8.755  21.966  0.00  0.00    -0.061 A 
ATOM     22  C   UNL     1      -0.195   7.890  21.112  0.00  0.00    -0.053 A 
ATOM     23  H   UNL     1       2.992   8.857  21.840  0.00  0.00    +0.062 HD
ATOM     24  H   UNL     1       1.762  10.379  23.350  0.00  0.00    +0.062 HD
ATOM     25  H   UNL     1      -0.714  10.320  23.436  0.00  0.00    +0.062 HD
ATOM     26  H   UNL     1      -1.969   8.728  22.007  0.00  0.00    +0.062 HD
ATOM     27  H   UNL     1      -0.760   7.197  20.492  0.00  0.00    +0.062 HD
ENDBRANCH   4  17
ENDBRANCH   2   3
BRANCH   2  28
ATOM     28  C   UNL     1       1.110   9.087  18.048  0.00  0.00    +0.088 A 
ATOM     29  C   UNL     1      -0.036   8.876  17.295  0.00  0.00    -0.020 A 
ATOM     30  C   UNL     1      -0.983   9.861  17.663  0.00  0.00    +0.068 A 
ATOM     31  C   UNL     1      -2.345  10.106  17.246  0.00  0.00    +0.274 A 
ATOM     32  O   UNL     1      -2.931   9.428  16.409  0.00  0.00    -0.266 OA
ATOM     33  N   UNL     1      -2.938  11.186  17.891  0.00  0.00    -0.242 N 
ATOM     34  N   UNL     1      -2.343  12.028  18.819  0.00  0.00    -0.169 NA
ATOM     35  C   UNL     1      -1.098  11.810  19.156  0.00  0.00    +0.115 A 
ATOM     36  C   UNL     1      -0.391  10.684  18.594  0.00  0.00    +0.080 A 
ATOM     37  N   UNL     1       0.860  10.191  18.843  0.00  0.00    -0.350 N 
ATOM     38  H   UNL     1      -0.191   8.092  16.563  0.00  0.00    +0.065 HD
ATOM     39  H   UNL     1      -3.893  11.406  17.633  0.00  0.00    +0.192 HD
ATOM     40  H   UNL     1       1.535  10.560  19.501  0.00  0.00    +0.166 HD
BRANCH  35  41
ATOM     41  C   UNL     1      -0.438  12.729  20.118  0.00  0.00    +0.004 A 
ATOM     42  C   UNL     1      -1.000  12.986  21.377  0.00  0.00    -0.050 A 
ATOM     43  C   UNL     1      -0.347  13.842  22.267  0.00  0.00    -0.026 A 
ATOM     44  C   UNL     1       0.864  14.422  21.900  0.00  0.00    +0.123 A 
ATOM     45  F   UNL     1       1.487  15.241  22.756  0.00  0.00    -0.205 F 
ATOM     46  C   UNL     1       1.441  14.157  20.662  0.00  0.00    -0.026 A 
ATOM     47  C   UNL     1       0.792  13.302  19.768  0.00  0.00    -0.050 A 
ATOM     48  H   UNL     1      -1.922  12.502  21.690  0.00  0.00    +0.062 HD
ATOM     49  H   UNL     1      -0.766  14.050  23.247  0.00  0.00    +0.065 HD
ATOM     50  H   UNL     1       2.393  14.608  20.400  0.00  0.00    +0.065 HD
ATOM     51  H   UNL     1       1.246  13.085  18.803  0.00  0.00    +0.062 HD
ENDBRANCH  35  41
ENDBRANCH   2  28
TORSDOF 4
ENDMDL
MODEL 5
REMARK VINA RESULT:   -11.553      3.302      5.301
REMARK INTER + INTRA:         -10.252
REMARK INTER:                  -9.685
REMARK INTRA:                  -0.567
REMARK UNBOUND:                 4.002
REMARK  Name = 
REMARK  4 active torsions:
REMARK  status: ('A' for Active; 'I' for Inactive)
REMARK    1  A    between atoms: C_2  and  C_3
REMARK    2  A    between atoms: C_2  and  C_20
REMARK    3  A    between atoms: C_10  and  C_11
REMARK    4  A    between atoms: C_21  and  C_22
REMARK                            x       y       z     vdW  Elec       q    Type
REMARK                         _______ _______ _______ _____ _____    ______ ____
ROOT
ATOM      1  O   UNL     1       0.909   9.617  22.987  0.00  0.00    -0.285 OA
ATOM      2  C   UNL     1       0.476  10.083  21.938  0.00  0.00    +0.212 C 
ENDROOT
BRANCH   2   3
ATOM      3  C   UNL     1       1.090   9.777  20.651  0.00  0.00    +0.057 A 
ATOM      4  C   UNL     1       1.411  10.686  19.645  0.00  0.00    +0.058 A 
ATOM      5  N   UNL     1       1.981   9.967  18.619  0.00  0.00    -0.354 N 
ATOM      6  C   UNL     1       2.002   8.625  18.910  0.00  0.00    +0.048 A 
ATOM      7  C   UNL     1       2.472   7.546  18.153  0.00  0.00    -0.037 A 
ATOM      8  C   UNL     1       2.356   6.268  18.705  0.00  0.00    -0.046 A 
ATOM      9  C   UNL     1       1.788   6.086  19.964  0.00  0.00    +0.019 A 
ATOM     10 BR   UNL     1       1.646   4.340  20.681  0.00  0.00    -0.050 Br
ATOM     11  C   UNL     1       1.321   7.171  20.710  0.00  0.00    -0.038 A 
ATOM     12  C   UNL     1       1.431   8.470  20.172  0.00  0.00    +0.012 A 
ATOM     13  H   UNL     1       2.306  10.370  17.751  0.00  0.00    +0.166 HD
ATOM     14  H   UNL     1       2.912   7.689  17.170  0.00  0.00    +0.064 HD
ATOM     15  H   UNL     1       2.716   5.413  18.138  0.00  0.00    +0.063 HD
ATOM     16  H   UNL     1       0.876   7.023  21.689  0.00  0.00    +0.064 HD
BRANCH   4  17
ATOM     17  C   UNL     1       1.201  12.128  19.548  0.00  0.00    -0.001 A 
ATOM     18  C   UNL     1       1.872  13.004  20.410  0.00  0.00    -0.053 A 
ATOM     19  C   UNL     1       1.654  14.383  20.325  0.00  0.00    -0.061 A 
ATOM     20  C   UNL     1       0.773  14.892  19.372  0.00  0.00    -0.062 A 
ATOM     21  C   UNL     1       0.105  14.027  18.508  0.00  0.00    -0.061 A 
ATOM     22  C   UNL     1       0.317  12.650  18.595  0.00  0.00    -0.053 A 
ATOM     23  H   UNL     1       2.548  12.622  21.173  0.00  0.00    +0.062 HD
ATOM     24  H   UNL     1       2.161  15.058  21.010  0.00  0.00    +0.062 HD
ATOM     25  H   UNL     1       0.602  15.964  19.309  0.00  0.00    +0.062 HD
ATOM     26  H   UNL     1      -0.581  14.425  17.765  0.00  0.00    +0.062 HD
ATOM     27  H   UNL     1      -0.209  11.988  17.910  0.00  0.00    +0.062 HD
ENDBRANCH   4  17
ENDBRANCH   2   3
BRANCH   2  28
ATOM     28  C   UNL     1      -0.646  11.006  21.921  0.00  0.00    +0.088 A 
ATOM     29  C   UNL     1      -1.178  11.849  22.886  0.00  0.00    -0.020 A 
ATOM     30  C   UNL     1      -2.290  12.512  22.317  0.00  0.00    +0.068 A 
ATOM     31  C   UNL     1      -3.194  13.516  22.830  0.00  0.00    +0.274 A 
ATOM     32  O   UNL     1      -3.124  13.974  23.966  0.00  0.00    -0.266 OA
ATOM     33  N   UNL     1      -4.152  13.925  21.910  0.00  0.00    -0.242 N 
ATOM     34  N   UNL     1      -4.329  13.438  20.622  0.00  0.00    -0.169 NA
ATOM     35  C   UNL     1      -3.523  12.504  20.189  0.00  0.00    +0.115 A 
ATOM     36  C   UNL     1      -2.451  12.035  21.035  0.00  0.00    +0.080 A 
ATOM     37  N   UNL     1      -1.436  11.151  20.795  0.00  0.00    -0.350 N 
ATOM     38  H   UNL     1      -0.808  11.988  23.895  0.00  0.00    +0.065 HD
ATOM     39  H   UNL     1      -4.816  14.626  22.219  0.00  0.00    +0.192 HD
ATOM     40  H   UNL     1      -1.262  10.650  19.933  0.00  0.00    +0.166 HD
BRANCH  35  41
ATOM     41  C   UNL     1      -3.727  11.946  18.829  0.00  0.00    +0.004 A 
ATOM     42  C   UNL     1      -4.989  11.973  18.217  0.00  0.00    -0.050 A 
ATOM     43  C   UNL     1      -5.147  11.455  16.928  0.00  0.00    -0.026 A 
ATOM     44  C   UNL     1      -4.046  10.931  16.258  0.00  0.00    +0.123 A 
ATOM     45  F   UNL     1      -4.201  10.438  15.024  0.00  0.00    -0.205 F 
ATOM     46  C   UNL     1      -2.785  10.921  16.847  0.00  0.00    -0.026 A 
ATOM     47  C   UNL     1      -2.622  11.435  18.135  0.00  0.00    -0.050 A 
ATOM     48  H   UNL     1      -5.845  12.422  18.715  0.00  0.00    +0.062 HD
ATOM     49  H   UNL     1      -6.116  11.470  16.439  0.00  0.00    +0.065 HD
ATOM     50  H   UNL     1      -1.936  10.520  16.302  0.00  0.00    +0.065 HD
ATOM     51  H   UNL     1      -1.635  11.437  18.595  0.00  0.00    +0.062 HD
ENDBRANCH  35  41
ENDBRANCH   2  28
TORSDOF 4
ENDMDL
MODEL 6
REMARK VINA RESULT:   -11.172      2.827      4.836
REMARK INTER + INTRA:          -9.782
REMARK INTER:                  -9.681
REMARK INTRA:                  -0.101
REMARK UNBOUND:                 4.002
REMARK  Name = 
REMARK  4 active torsions:
REMARK  status: ('A' for Active; 'I' for Inactive)
REMARK    1  A    between atoms: C_2  and  C_3
REMARK    2  A    between atoms: C_2  and  C_20
REMARK    3  A    between atoms: C_10  and  C_11
REMARK    4  A    between atoms: C_21  and  C_22
REMARK                            x       y       z     vdW  Elec       q    Type
REMARK                         _______ _______ _______ _____ _____    ______ ____
ROOT
ATOM      1  O   UNL     1       1.805  10.418  17.883  0.00  0.00    -0.285 OA
ATOM      2  C   UNL     1       0.840  10.039  18.537  0.00  0.00    +0.212 C 
ENDROOT
BRANCH   2   3
ATOM      3  C   UNL     1       1.000   9.313  19.792  0.00  0.00    +0.057 A 
ATOM      4  C   UNL     1       1.697   8.122  19.982  0.00  0.00    +0.058 A 
ATOM      5  N   UNL     1       1.601   7.806  21.317  0.00  0.00    -0.354 N 
ATOM      6  C   UNL     1       0.835   8.729  21.988  0.00  0.00    +0.048 A 
ATOM      7  C   UNL     1       0.472   8.786  23.338  0.00  0.00    -0.037 A 
ATOM      8  C   UNL     1      -0.336   9.852  23.746  0.00  0.00    -0.046 A 
ATOM      9  C   UNL     1      -0.759  10.814  22.831  0.00  0.00    +0.019 A 
ATOM     10 BR   UNL     1      -1.852  12.244  23.419  0.00  0.00    -0.050 Br
ATOM     11  C   UNL     1      -0.390  10.744  21.486  0.00  0.00    -0.038 A 
ATOM     12  C   UNL     1       0.427   9.679  21.053  0.00  0.00    +0.012 A 
ATOM     13  H   UNL     1       2.009   6.984  21.741  0.00  0.00    +0.166 HD
ATOM     14  H   UNL     1       0.799   8.034  24.049  0.00  0.00    +0.064 HD
ATOM     15  H   UNL     1      -0.631   9.921  24.790  0.00  0.00    +0.063 HD
ATOM     16  H   UNL     1      -0.726  11.495  20.776  0.00  0.00    +0.064 HD
BRANCH   4  17
ATOM     17  C   UNL     1       2.395   7.254  19.036  0.00  0.00    -0.001 A 
ATOM     18  C   UNL     1       2.151   5.875  19.023  0.00  0.00    -0.053 A 
ATOM     19  C   UNL     1       2.835   5.046  18.128  0.00  0.00    -0.061 A 
ATOM     20  C   UNL     1       3.755   5.592  17.236  0.00  0.00    -0.062 A 
ATOM     21  C   UNL     1       3.999   6.964  17.239  0.00  0.00    -0.061 A 
ATOM     22  C   UNL     1       3.322   7.793  18.136  0.00  0.00    -0.053 A 
ATOM     23  H   UNL     1       1.450   5.429  19.726  0.00  0.00    +0.062 HD
ATOM     24  H   UNL     1       2.658   3.973  18.136  0.00  0.00    +0.062 HD
ATOM     25  H   UNL     1       4.289   4.946  16.542  0.00  0.00    +0.062 HD
ATOM     26  H   UNL     1       4.717   7.389  16.542  0.00  0.00    +0.062 HD
ATOM     27  H   UNL     1       3.521   8.863  18.123  0.00  0.00    +0.062 HD
ENDBRANCH   4  17
ENDBRANCH   2   3
BRANCH   2  28
ATOM     28  C   UNL     1      -0.522  10.248  18.076  0.00  0.00    +0.088 A 
ATOM     29  C   UNL     1      -1.192   9.852  16.928  0.00  0.00    -0.020 A 
ATOM     30  C   UNL     1      -2.512  10.356  17.001  0.00  0.00    +0.068 A 
ATOM     31  C   UNL     1      -3.653  10.229  16.123  0.00  0.00    +0.274 A 
ATOM     32  O   UNL     1      -3.630   9.610  15.064  0.00  0.00    -0.266 OA
ATOM     33  N   UNL     1      -4.792  10.871  16.596  0.00  0.00    -0.242 N 
ATOM     34  N   UNL     1      -4.902  11.622  17.758  0.00  0.00    -0.169 NA
ATOM     35  C   UNL     1      -3.847  11.754  18.521  0.00  0.00    +0.115 A 
ATOM     36  C   UNL     1      -2.618  11.087  18.163  0.00  0.00    +0.080 A 
ATOM     37  N   UNL     1      -1.422  10.990  18.820  0.00  0.00    -0.350 N 
ATOM     38  H   UNL     1      -0.788   9.255  16.119  0.00  0.00    +0.065 HD
ATOM     39  H   UNL     1      -5.623  10.818  16.017  0.00  0.00    +0.192 HD
ATOM     40  H   UNL     1      -1.191  11.397  19.718  0.00  0.00    +0.166 HD
BRANCH  35  41
ATOM     41  C   UNL     1      -3.941  12.588  19.745  0.00  0.00    +0.004 A 
ATOM     42  C   UNL     1      -2.996  13.590  20.013  0.00  0.00    -0.050 A 
ATOM     43  C   UNL     1      -3.120  14.370  21.166  0.00  0.00    -0.026 A 
ATOM     44  C   UNL     1      -4.188  14.154  22.030  0.00  0.00    +0.123 A 
ATOM     45  F   UNL     1      -4.304  14.904  23.133  0.00  0.00    -0.205 F 
ATOM     46  C   UNL     1      -5.144  13.178  21.762  0.00  0.00    -0.026 A 
ATOM     47  C   UNL     1      -5.024  12.394  20.612  0.00  0.00    -0.050 A 
ATOM     48  H   UNL     1      -2.184  13.796  19.320  0.00  0.00    +0.062 HD
ATOM     49  H   UNL     1      -2.399  15.151  21.387  0.00  0.00    +0.065 HD
ATOM     50  H   UNL     1      -5.977  13.035  22.443  0.00  0.00    +0.065 HD
ATOM     51  H   UNL     1      -5.775  11.637  20.395  0.00  0.00    +0.062 HD
ENDBRANCH  35  41
ENDBRANCH   2  28
TORSDOF 4
ENDMDL
MODEL 7
REMARK VINA RESULT:   -11.103      4.281      8.120
REMARK INTER + INTRA:          -9.698
REMARK INTER:                  -8.467
REMARK INTRA:                  -1.231
REMARK UNBOUND:                 4.002
REMARK  Name = 
REMARK  4 active torsions:
REMARK  status: ('A' for Active; 'I' for Inactive)
REMARK    1  A    between atoms: C_2  and  C_3
REMARK    2  A    between atoms: C_2  and  C_20
REMARK    3  A    between atoms: C_10  and  C_11
REMARK    4  A    between atoms: C_21  and  C_22
REMARK                            x       y       z     vdW  Elec       q    Type
REMARK                         _______ _______ _______ _____ _____    ______ ____
ROOT
ATOM      1  O   UNL     1       1.598   8.342  17.173  0.00  0.00    -0.285 OA
ATOM      2  C   UNL     1       2.259   7.724  18.001  0.00  0.00    +0.212 C 
ENDROOT
BRANCH   2   3
ATOM      3  C   UNL     1       1.870   7.665  19.405  0.00  0.00    +0.057 A 
ATOM      4  C   UNL     1       1.863   6.536  20.221  0.00  0.00    +0.058 A 
ATOM      5  N   UNL     1       1.441   6.940  21.466  0.00  0.00    -0.354 N 
ATOM      6  C   UNL     1       1.138   8.280  21.473  0.00  0.00    +0.048 A 
ATOM      7  C   UNL     1       0.665   9.091  22.511  0.00  0.00    -0.037 A 
ATOM      8  C   UNL     1       0.432  10.439  22.224  0.00  0.00    -0.046 A 
ATOM      9  C   UNL     1       0.663  10.944  20.947  0.00  0.00    +0.019 A 
ATOM     10 BR   UNL     1       0.336  12.775  20.594  0.00  0.00    -0.050 Br
ATOM     11  C   UNL     1       1.134  10.123  19.919  0.00  0.00    -0.038 A 
ATOM     12  C   UNL     1       1.379   8.761  20.187  0.00  0.00    +0.012 A 
ATOM     13  H   UNL     1       1.333   6.324  22.261  0.00  0.00    +0.166 HD
ATOM     14  H   UNL     1       0.482   8.695  23.505  0.00  0.00    +0.064 HD
ATOM     15  H   UNL     1       0.067  11.090  23.014  0.00  0.00    +0.063 HD
ATOM     16  H   UNL     1       1.309  10.522  18.924  0.00  0.00    +0.064 HD
BRANCH   4  17
ATOM     17  C   UNL     1       2.173   5.138  19.931  0.00  0.00    -0.001 A 
ATOM     18  C   UNL     1       3.421   4.601  20.272  0.00  0.00    -0.053 A 
ATOM     19  C   UNL     1       3.720   3.267  19.976  0.00  0.00    -0.061 A 
ATOM     20  C   UNL     1       2.770   2.463  19.349  0.00  0.00    -0.062 A 
ATOM     21  C   UNL     1       1.525   2.989  19.011  0.00  0.00    -0.061 A 
ATOM     22  C   UNL     1       1.227   4.322  19.300  0.00  0.00    -0.053 A 
ATOM     23  H   UNL     1       4.182   5.220  20.744  0.00  0.00    +0.062 HD
ATOM     24  H   UNL     1       4.697   2.860  20.224  0.00  0.00    +0.062 HD
ATOM     25  H   UNL     1       3.005   1.426  19.117  0.00  0.00    +0.062 HD
ATOM     26  H   UNL     1       0.785   2.360  18.523  0.00  0.00    +0.062 HD
ATOM     27  H   UNL     1       0.248   4.716  19.033  0.00  0.00    +0.062 HD
ENDBRANCH   4  17
ENDBRANCH   2   3
BRANCH   2  28
ATOM     28  C   UNL     1       3.496   7.054  17.639  0.00  0.00    +0.088 A 
ATOM     29  C   UNL     1       3.766   5.774  17.176  0.00  0.00    -0.020 A 
ATOM     30  C   UNL     1       5.165   5.662  17.003  0.00  0.00    +0.068 A 
ATOM     31  C   UNL     1       6.004   4.590  16.516  0.00  0.00    +0.274 A 
ATOM     32  O   UNL     1       5.571   3.498  16.159  0.00  0.00    -0.266 OA
ATOM     33  N   UNL     1       7.355   4.913  16.482  0.00  0.00    -0.242 N 
ATOM     34  N   UNL     1       7.937   6.102  16.899  0.00  0.00    -0.169 NA
ATOM     35  C   UNL     1       7.164   7.047  17.370  0.00  0.00    +0.115 A 
ATOM     36  C   UNL     1       5.734   6.850  17.405  0.00  0.00    +0.080 A 
ATOM     37  N   UNL     1       4.717   7.694  17.757  0.00  0.00    -0.350 N 
ATOM     38  H   UNL     1       3.039   4.997  16.970  0.00  0.00    +0.065 HD
ATOM     39  H   UNL     1       7.991   4.195  16.152  0.00  0.00    +0.192 HD
ATOM     40  H   UNL     1       4.808   8.652  18.070  0.00  0.00    +0.166 HD
BRANCH  35  41
ATOM     41  C   UNL     1       7.777   8.307  17.856  0.00  0.00    +0.004 A 
ATOM     42  C   UNL     1       8.699   8.304  18.914  0.00  0.00    -0.050 A 
ATOM     43  C   UNL     1       9.272   9.505  19.339  0.00  0.00    -0.026 A 
ATOM     44  C   UNL     1       8.934  10.693  18.699  0.00  0.00    +0.123 A 
ATOM     45  F   UNL     1       9.486  11.841  19.108  0.00  0.00    -0.205 F 
ATOM     46  C   UNL     1       8.038  10.705  17.634  0.00  0.00    -0.026 A 
ATOM     47  C   UNL     1       7.460   9.507  17.206  0.00  0.00    -0.050 A 
ATOM     48  H   UNL     1       9.003   7.375  19.390  0.00  0.00    +0.062 HD
ATOM     49  H   UNL     1       9.989   9.520  20.155  0.00  0.00    +0.065 HD
ATOM     50  H   UNL     1       7.797  11.640  17.139  0.00  0.00    +0.065 HD
ATOM     51  H   UNL     1       6.767   9.512  16.367  0.00  0.00    +0.062 HD
ENDBRANCH  35  41
ENDBRANCH   2  28
TORSDOF 4
ENDMDL
MODEL 8
REMARK VINA RESULT:   -11.046      3.124      4.994
REMARK INTER + INTRA:          -9.628
REMARK INTER:                  -8.336
REMARK INTRA:                  -1.292
REMARK UNBOUND:                 4.002
REMARK  Name = 
REMARK  4 active torsions:
REMARK  status: ('A' for Active; 'I' for Inactive)
REMARK    1  A    between atoms: C_2  and  C_3
REMARK    2  A    between atoms: C_2  and  C_20
REMARK    3  A    between atoms: C_10  and  C_11
REMARK    4  A    between atoms: C_21  and  C_22
REMARK                            x       y       z     vdW  Elec       q    Type
REMARK                         _______ _______ _______ _____ _____    ______ ____
ROOT
ATOM      1  O   UNL     1       2.727   7.262  16.665  0.00  0.00    -0.285 OA
ATOM      2  C   UNL     1       3.008   7.190  17.856  0.00  0.00    +0.212 C 
ENDROOT
BRANCH   2   3
ATOM      3  C   UNL     1       4.094   6.345  18.338  0.00  0.00    +0.057 A 
ATOM      4  C   UNL     1       3.975   5.081  18.914  0.00  0.00    +0.058 A 
ATOM      5  N   UNL     1       5.248   4.649  19.206  0.00  0.00    -0.354 N 
ATOM      6  C   UNL     1       6.180   5.602  18.877  0.00  0.00    +0.048 A 
ATOM      7  C   UNL     1       7.572   5.586  19.015  0.00  0.00    -0.037 A 
ATOM      8  C   UNL     1       8.278   6.718  18.597  0.00  0.00    -0.046 A 
ATOM      9  C   UNL     1       7.608   7.817  18.066  0.00  0.00    +0.019 A 
ATOM     10 BR   UNL     1       8.595   9.334  17.509  0.00  0.00    -0.050 Br
ATOM     11  C   UNL     1       6.217   7.821  17.933  0.00  0.00    -0.038 A 
ATOM     12  C   UNL     1       5.486   6.688  18.347  0.00  0.00    +0.012 A 
ATOM     13  H   UNL     1       5.464   3.761  19.640  0.00  0.00    +0.166 HD
ATOM     14  H   UNL     1       8.094   4.730  19.433  0.00  0.00    +0.064 HD
ATOM     15  H   UNL     1       9.361   6.729  18.692  0.00  0.00    +0.063 HD
ATOM     16  H   UNL     1       5.699   8.683  17.522  0.00  0.00    +0.064 HD
BRANCH   4  17
ATOM     17  C   UNL     1       2.798   4.281  19.242  0.00  0.00    -0.001 A 
ATOM     18  C   UNL     1       2.368   4.158  20.569  0.00  0.00    -0.053 A 
ATOM     19  C   UNL     1       1.251   3.376  20.880  0.00  0.00    -0.061 A 
ATOM     20  C   UNL     1       0.553   2.723  19.865  0.00  0.00    -0.062 A 
ATOM     21  C   UNL     1       0.972   2.845  18.542  0.00  0.00    -0.061 A 
ATOM     22  C   UNL     1       2.090   3.620  18.230  0.00  0.00    -0.053 A 
ATOM     23  H   UNL     1       2.913   4.645  21.376  0.00  0.00    +0.062 HD
ATOM     24  H   UNL     1       0.933   3.267  21.914  0.00  0.00    +0.062 HD
ATOM     25  H   UNL     1      -0.313   2.113  20.109  0.00  0.00    +0.062 HD
ATOM     26  H   UNL     1       0.426   2.335  17.751  0.00  0.00    +0.062 HD
ATOM     27  H   UNL     1       2.402   3.707  17.191  0.00  0.00    +0.062 HD
ENDBRANCH   4  17
ENDBRANCH   2   3
BRANCH   2  28
ATOM     28  C   UNL     1       2.244   7.905  18.863  0.00  0.00    +0.088 A 
ATOM     29  C   UNL     1       2.362   7.989  20.243  0.00  0.00    -0.020 A 
ATOM     30  C   UNL     1       1.326   8.826  20.717  0.00  0.00    +0.068 A 
ATOM     31  C   UNL     1       0.982   9.297  22.040  0.00  0.00    +0.274 A 
ATOM     32  O   UNL     1       1.602   8.989  23.053  0.00  0.00    -0.266 OA
ATOM     33  N   UNL     1      -0.121  10.144  22.059  0.00  0.00    -0.242 N 
ATOM     34  N   UNL     1      -0.902  10.516  20.974  0.00  0.00    -0.169 NA
ATOM     35  C   UNL     1      -0.595  10.050  19.791  0.00  0.00    +0.115 A 
ATOM     36  C   UNL     1       0.563   9.203  19.635  0.00  0.00    +0.080 A 
ATOM     37  N   UNL     1       1.143   8.668  18.517  0.00  0.00    -0.350 N 
ATOM     38  H   UNL     1       3.118   7.510  20.855  0.00  0.00    +0.065 HD
ATOM     39  H   UNL     1      -0.410  10.502  22.963  0.00  0.00    +0.192 HD
ATOM     40  H   UNL     1       0.834   8.786  17.561  0.00  0.00    +0.166 HD
BRANCH  35  41
ATOM     41  C   UNL     1      -1.447  10.408  18.630  0.00  0.00    +0.004 A 
ATOM     42  C   UNL     1      -1.388   9.677  17.434  0.00  0.00    -0.050 A 
ATOM     43  C   UNL     1      -2.215  10.028  16.364  0.00  0.00    -0.026 A 
ATOM     44  C   UNL     1      -3.100  11.092  16.499  0.00  0.00    +0.123 A 
ATOM     45  F   UNL     1      -3.891  11.425  15.472  0.00  0.00    -0.205 F 
ATOM     46  C   UNL     1      -3.183  11.811  17.688  0.00  0.00    -0.026 A 
ATOM     47  C   UNL     1      -2.358  11.465  18.761  0.00  0.00    -0.050 A 
ATOM     48  H   UNL     1      -0.732   8.815  17.336  0.00  0.00    +0.062 HD
ATOM     49  H   UNL     1      -2.183   9.470  15.433  0.00  0.00    +0.065 HD
ATOM     50  H   UNL     1      -3.890  12.629  17.778  0.00  0.00    +0.065 HD
ATOM     51  H   UNL     1      -2.427  12.019  19.695  0.00  0.00    +0.062 HD
ENDBRANCH  35  41
ENDBRANCH   2  28
TORSDOF 4
ENDMDL
MODEL 9
REMARK VINA RESULT:   -10.751      3.804      7.943
REMARK INTER + INTRA:          -9.263
REMARK INTER:                  -7.529
REMARK INTRA:                  -1.734
REMARK UNBOUND:                 4.002
REMARK  Name = 
REMARK  4 active torsions:
REMARK  status: ('A' for Active; 'I' for Inactive)
REMARK    1  A    between atoms: C_2  and  C_3
REMARK    2  A    between atoms: C_2  and  C_20
REMARK    3  A    between atoms: C_10  and  C_11
REMARK    4  A    between atoms: C_21  and  C_22
REMARK                            x       y       z     vdW  Elec       q    Type
REMARK                         _______ _______ _______ _____ _____    ______ ____
ROOT
ATOM      1  O   UNL     1      -0.152   9.609  21.013  0.00  0.00    -0.285 OA
ATOM      2  C   UNL     1       0.483   9.951  20.021  0.00  0.00    +0.212 C 
ENDROOT
BRANCH   2   3
ATOM      3  C   UNL     1       0.341  11.282  19.441  0.00  0.00    +0.057 A 
ATOM      4  C   UNL     1      -0.624  11.691  18.523  0.00  0.00    +0.058 A 
ATOM      5  N   UNL     1      -0.392  13.022  18.260  0.00  0.00    -0.354 N 
ATOM      6  C   UNL     1       0.709  13.475  18.945  0.00  0.00    +0.048 A 
ATOM      7  C   UNL     1       1.302  14.742  18.959  0.00  0.00    -0.037 A 
ATOM      8  C   UNL     1       2.439  14.916  19.754  0.00  0.00    -0.046 A 
ATOM      9  C   UNL     1       2.955  13.858  20.498  0.00  0.00    +0.019 A 
ATOM     10 BR   UNL     1       4.496  14.129  21.564  0.00  0.00    -0.050 Br
ATOM     11  C   UNL     1       2.354  12.597  20.474  0.00  0.00    -0.038 A 
ATOM     12  C   UNL     1       1.204  12.400  19.681  0.00  0.00    +0.012 A 
ATOM     13  H   UNL     1      -0.939  13.582  17.620  0.00  0.00    +0.166 HD
ATOM     14  H   UNL     1       0.901  15.566  18.376  0.00  0.00    +0.064 HD
ATOM     15  H   UNL     1       2.917  15.892  19.784  0.00  0.00    +0.063 HD
ATOM     16  H   UNL     1       2.763  11.774  21.054  0.00  0.00    +0.064 HD
BRANCH   4  17
ATOM     17  C   UNL     1      -1.694  10.952  17.857  0.00  0.00    -0.001 A 
ATOM     18  C   UNL     1      -1.392   9.945  16.930  0.00  0.00    -0.053 A 
ATOM     19  C   UNL     1      -2.419   9.253  16.282  0.00  0.00    -0.061 A 
ATOM     20  C   UNL     1      -3.750   9.555  16.564  0.00  0.00    -0.062 A 
ATOM     21  C   UNL     1      -4.058  10.552  17.488  0.00  0.00    -0.061 A 
ATOM     22  C   UNL     1      -3.034  11.249  18.131  0.00  0.00    -0.053 A 
ATOM     23  H   UNL     1      -0.359   9.710  16.684  0.00  0.00    +0.062 HD
ATOM     24  H   UNL     1      -2.182   8.486  15.549  0.00  0.00    +0.062 HD
ATOM     25  H   UNL     1      -4.548   9.018  16.057  0.00  0.00    +0.062 HD
ATOM     26  H   UNL     1      -5.097  10.787  17.707  0.00  0.00    +0.062 HD
ATOM     27  H   UNL     1      -3.291  12.022  18.853  0.00  0.00    +0.062 HD
ENDBRANCH   4  17
ENDBRANCH   2   3
BRANCH   2  28
ATOM     28  C   UNL     1       1.379   9.035  19.337  0.00  0.00    +0.088 A 
ATOM     29  C   UNL     1       2.217   9.189  18.241  0.00  0.00    -0.020 A 
ATOM     30  C   UNL     1       2.848   7.947  18.001  0.00  0.00    +0.068 A 
ATOM     31  C   UNL     1       3.836   7.527  17.032  0.00  0.00    +0.274 A 
ATOM     32  O   UNL     1       4.304   8.270  16.176  0.00  0.00    -0.266 OA
ATOM     33  N   UNL     1       4.213   6.196  17.165  0.00  0.00    -0.242 N 
ATOM     34  N   UNL     1       3.712   5.276  18.075  0.00  0.00    -0.169 NA
ATOM     35  C   UNL     1       2.794   5.667  18.920  0.00  0.00    +0.115 A 
ATOM     36  C   UNL     1       2.357   7.043  18.916  0.00  0.00    +0.080 A 
ATOM     37  N   UNL     1       1.495   7.716  19.738  0.00  0.00    -0.350 N 
ATOM     38  H   UNL     1       2.373  10.099  17.673  0.00  0.00    +0.065 HD
ATOM     39  H   UNL     1       4.901   5.846  16.507  0.00  0.00    +0.192 HD
ATOM     40  H   UNL     1       0.992   7.335  20.528  0.00  0.00    +0.166 HD
BRANCH  35  41
ATOM     41  C   UNL     1       2.220   4.682  19.871  0.00  0.00    +0.004 A 
ATOM     42  C   UNL     1       1.179   3.824  19.487  0.00  0.00    -0.050 A 
ATOM     43  C   UNL     1       0.672   2.896  20.400  0.00  0.00    -0.026 A 
ATOM     44  C   UNL     1       1.214   2.822  21.678  0.00  0.00    +0.123 A 
ATOM     45  F   UNL     1       0.726   1.931  22.549  0.00  0.00    -0.205 F 
ATOM     46  C   UNL     1       2.262   3.653  22.063  0.00  0.00    -0.026 A 
ATOM     47  C   UNL     1       2.773   4.583  21.155  0.00  0.00    -0.050 A 
ATOM     48  H   UNL     1       0.780   3.844  18.475  0.00  0.00    +0.062 HD
ATOM     49  H   UNL     1      -0.133   2.223  20.118  0.00  0.00    +0.065 HD
ATOM     50  H   UNL     1       2.681   3.570  23.061  0.00  0.00    +0.065 HD
ATOM     51  H   UNL     1       3.599   5.228  21.450  0.00  0.00    +0.062 HD
ENDBRANCH  35  41
ENDBRANCH   2  28
TORSDOF 4
ENDMDL
MODEL 10
REMARK VINA RESULT:   -10.734      2.537      4.038
REMARK INTER + INTRA:          -9.243
REMARK INTER:                 -10.022
REMARK INTRA:                   0.779
REMARK UNBOUND:                 4.002
REMARK  Name = 
REMARK  4 active torsions:
REMARK  status: ('A' for Active; 'I' for Inactive)
REMARK    1  A    between atoms: C_2  and  C_3
REMARK    2  A    between atoms: C_2  and  C_20
REMARK    3  A    between atoms: C_10  and  C_11
REMARK    4  A    between atoms: C_21  and  C_22
REMARK                            x       y       z     vdW  Elec       q    Type
REMARK                         _______ _______ _______ _____ _____    ______ ____
ROOT
ATOM      1  O   UNL     1       3.177   9.418  17.620  0.00  0.00    -0.285 OA
ATOM      2  C   UNL     1       2.368   9.090  18.481  0.00  0.00    +0.212 C 
ENDROOT
BRANCH   2   3
ATOM      3  C   UNL     1       2.357   7.747  19.050  0.00  0.00    +0.057 A 
ATOM      4  C   UNL     1       1.765   7.356  20.250  0.00  0.00    +0.058 A 
ATOM      5  N   UNL     1       1.985   6.005  20.387  0.00  0.00    -0.354 N 
ATOM      6  C   UNL     1       2.730   5.519  19.341  0.00  0.00    +0.048 A 
ATOM      7  C   UNL     1       3.191   4.221  19.090  0.00  0.00    -0.037 A 
ATOM      8  C   UNL     1       3.947   4.015  17.932  0.00  0.00    -0.046 A 
ATOM      9  C   UNL     1       4.229   5.072  17.070  0.00  0.00    +0.019 A 
ATOM     10 BR   UNL     1       5.257   4.757  15.511  0.00  0.00    -0.050 Br
ATOM     11  C   UNL     1       3.764   6.363  17.333  0.00  0.00    -0.038 A 
ATOM     12  C   UNL     1       2.997   6.592  18.493  0.00  0.00    +0.012 A 
ATOM     13  H   UNL     1       1.671   5.452  21.173  0.00  0.00    +0.166 HD
ATOM     14  H   UNL     1       2.974   3.399  19.765  0.00  0.00    +0.064 HD
ATOM     15  H   UNL     1       4.315   3.016  17.714  0.00  0.00    +0.063 HD
ATOM     16  H   UNL     1       3.990   7.184  16.658  0.00  0.00    +0.064 HD
BRANCH   4  17
ATOM     17  C   UNL     1       1.062   8.127  21.272  0.00  0.00    -0.001 A 
ATOM     18  C   UNL     1       1.778   8.833  22.248  0.00  0.00    -0.053 A 
ATOM     19  C   UNL     1       1.101   9.555  23.236  0.00  0.00    -0.061 A 
ATOM     20  C   UNL     1      -0.293   9.584  23.245  0.00  0.00    -0.062 A 
ATOM     21  C   UNL     1      -1.012   8.889  22.275  0.00  0.00    -0.061 A 
ATOM     22  C   UNL     1      -0.337   8.162  21.292  0.00  0.00    -0.053 A 
ATOM     23  H   UNL     1       2.866   8.804  22.267  0.00  0.00    +0.062 HD
ATOM     24  H   UNL     1       1.659  10.084  24.004  0.00  0.00    +0.062 HD
ATOM     25  H   UNL     1      -0.819  10.144  24.016  0.00  0.00    +0.062 HD
ATOM     26  H   UNL     1      -2.099   8.913  22.283  0.00  0.00    +0.062 HD
ATOM     27  H   UNL     1      -0.913   7.628  20.539  0.00  0.00    +0.062 HD
ENDBRANCH   4  17
ENDBRANCH   2   3
BRANCH   2  28
ATOM     28  C   UNL     1       1.343  10.005  18.951  0.00  0.00    +0.088 A 
ATOM     29  C   UNL     1       1.244  10.797  20.086  0.00  0.00    -0.020 A 
ATOM     30  C   UNL     1       0.007  11.479  20.032  0.00  0.00    +0.068 A 
ATOM     31  C   UNL     1      -0.608  12.452  20.907  0.00  0.00    +0.274 A 
ATOM     32  O   UNL     1      -0.091  12.855  21.944  0.00  0.00    -0.266 OA
ATOM     33  N   UNL     1      -1.847  12.898  20.459  0.00  0.00    -0.242 N 
ATOM     34  N   UNL     1      -2.523  12.472  19.324  0.00  0.00    -0.169 NA
ATOM     35  C   UNL     1      -1.965  11.565  18.565  0.00  0.00    +0.115 A 
ATOM     36  C   UNL     1      -0.652  11.063  18.897  0.00  0.00    +0.080 A 
ATOM     37  N   UNL     1       0.175  10.198  18.235  0.00  0.00    -0.350 N 
ATOM     38  H   UNL     1       1.984  10.890  20.873  0.00  0.00    +0.065 HD
ATOM     39  H   UNL     1      -2.326  13.579  21.037  0.00  0.00    +0.192 HD
ATOM     40  H   UNL     1      -0.011   9.740  17.352  0.00  0.00    +0.166 HD
BRANCH  35  41
ATOM     41  C   UNL     1      -2.695  11.072  17.371  0.00  0.00    +0.004 A 
ATOM     42  C   UNL     1      -3.966  11.569  17.043  0.00  0.00    -0.050 A 
ATOM     43  C   UNL     1      -4.622  11.098  15.903  0.00  0.00    -0.026 A 
ATOM     44  C   UNL     1      -4.003  10.150  15.095  0.00  0.00    +0.123 A 
ATOM     45  F   UNL     1      -4.634   9.702  14.004  0.00  0.00    -0.205 F 
ATOM     46  C   UNL     1      -2.733   9.667  15.399  0.00  0.00    -0.026 A 
ATOM     47  C   UNL     1      -2.073  10.133  16.538  0.00  0.00    -0.050 A 
ATOM     48  H   UNL     1      -4.438  12.343  17.643  0.00  0.00    +0.062 HD
ATOM     49  H   UNL     1      -5.605  11.473  15.633  0.00  0.00    +0.065 HD
ATOM     50  H   UNL     1      -2.261   8.937  14.748  0.00  0.00    +0.065 HD
ATOM     51  H   UNL     1      -1.076   9.764  16.773  0.00  0.00    +0.062 HD
ENDBRANCH  35  41
ENDBRANCH   2  28
TORSDOF 4
ENDMDL
MODEL 11
REMARK VINA RESULT:   -10.729      3.907      8.238
REMARK INTER + INTRA:          -9.236
REMARK INTER:                  -7.995
REMARK INTRA:                  -1.241
REMARK UNBOUND:                 4.002
REMARK  Name = 
REMARK  4 active torsions:
REMARK  status: ('A' for Active; 'I' for Inactive)
REMARK    1  A    between atoms: C_2  and  C_3
REMARK    2  A    between atoms: C_2  and  C_20
REMARK    3  A    between atoms: C_10  and  C_11
REMARK    4  A    between atoms: C_21  and  C_22
REMARK                            x       y       z     vdW  Elec       q    Type
REMARK                         _______ _______ _______ _____ _____    ______ ____
ROOT
ATOM      1  O   UNL     1       2.467  11.371  17.262  0.00  0.00    -0.285 OA
ATOM      2  C   UNL     1       1.782  11.061  18.231  0.00  0.00    +0.212 C 
ENDROOT
BRANCH   2   3
ATOM      3  C   UNL     1       0.938  12.033  18.917  0.00  0.00    +0.057 A 
ATOM      4  C   UNL     1      -0.449  12.136  18.834  0.00  0.00    +0.058 A 
ATOM      5  N   UNL     1      -0.826  13.178  19.650  0.00  0.00    -0.354 N 
ATOM      6  C   UNL     1       0.270  13.775  20.224  0.00  0.00    +0.048 A 
ATOM      7  C   UNL     1       0.347  14.865  21.098  0.00  0.00    -0.037 A 
ATOM      8  C   UNL     1       1.617  15.267  21.522  0.00  0.00    -0.046 A 
ATOM      9  C   UNL     1       2.757  14.601  21.079  0.00  0.00    +0.019 A 
ATOM     10 BR   UNL     1       4.462  15.173  21.673  0.00  0.00    -0.050 Br
ATOM     11  C   UNL     1       2.667  13.515  20.205  0.00  0.00    -0.038 A 
ATOM     12  C   UNL     1       1.395  13.091  19.768  0.00  0.00    +0.012 A 
ATOM     13  H   UNL     1      -1.780  13.486  19.779  0.00  0.00    +0.166 HD
ATOM     14  H   UNL     1      -0.543  15.386  21.440  0.00  0.00    +0.064 HD
ATOM     15  H   UNL     1       1.704  16.110  22.203  0.00  0.00    +0.063 HD
ATOM     16  H   UNL     1       3.560  13.001  19.861  0.00  0.00    +0.064 HD
BRANCH   4  17
ATOM     17  C   UNL     1      -1.425  11.387  18.046  0.00  0.00    -0.001 A 
ATOM     18  C   UNL     1      -1.784  11.818  16.762  0.00  0.00    -0.053 A 
ATOM     19  C   UNL     1      -2.731  11.108  16.019  0.00  0.00    -0.061 A 
ATOM     20  C   UNL     1      -3.315   9.959  16.549  0.00  0.00    -0.062 A 
ATOM     21  C   UNL     1      -2.959   9.521  17.824  0.00  0.00    -0.061 A 
ATOM     22  C   UNL     1      -2.018  10.233  18.570  0.00  0.00    -0.053 A 
ATOM     23  H   UNL     1      -1.352  12.724  16.340  0.00  0.00    +0.062 HD
ATOM     24  H   UNL     1      -3.023  11.457  15.031  0.00  0.00    +0.062 HD
ATOM     25  H   UNL     1      -4.054   9.409  15.971  0.00  0.00    +0.062 HD
ATOM     26  H   UNL     1      -3.415   8.624  18.236  0.00  0.00    +0.062 HD
ATOM     27  H   UNL     1      -1.748   9.875  19.562  0.00  0.00    +0.062 HD
ENDBRANCH   4  17
ENDBRANCH   2   3
BRANCH   2  28
ATOM     28  C   UNL     1       1.807   9.717  18.782  0.00  0.00    +0.088 A 
ATOM     29  C   UNL     1       1.263   9.169  19.935  0.00  0.00    -0.020 A 
ATOM     30  C   UNL     1       1.620   7.801  19.974  0.00  0.00    +0.068 A 
ATOM     31  C   UNL     1       1.308   6.738  20.903  0.00  0.00    +0.274 A 
ATOM     32  O   UNL     1       0.626   6.896  21.910  0.00  0.00    -0.266 OA
ATOM     33  N   UNL     1       1.851   5.509  20.545  0.00  0.00    -0.242 N 
ATOM     34  N   UNL     1       2.661   5.246  19.450  0.00  0.00    -0.169 NA
ATOM     35  C   UNL     1       2.961   6.229  18.640  0.00  0.00    +0.115 A 
ATOM     36  C   UNL     1       2.412   7.543  18.877  0.00  0.00    +0.080 A 
ATOM     37  N   UNL     1       2.493   8.697  18.148  0.00  0.00    -0.350 N 
ATOM     38  H   UNL     1       0.661   9.686  20.673  0.00  0.00    +0.065 HD
ATOM     39  H   UNL     1       1.667   4.728  21.164  0.00  0.00    +0.192 HD
ATOM     40  H   UNL     1       2.983   8.825  17.271  0.00  0.00    +0.166 HD
BRANCH  35  41
ATOM     41  C   UNL     1       3.860   5.968  17.489  0.00  0.00    +0.004 A 
ATOM     42  C   UNL     1       4.497   7.020  16.814  0.00  0.00    -0.050 A 
ATOM     43  C   UNL     1       5.351   6.742  15.743  0.00  0.00    -0.026 A 
ATOM     44  C   UNL     1       5.573   5.422  15.365  0.00  0.00    +0.123 A 
ATOM     45  F   UNL     1       6.392   5.160  14.341  0.00  0.00    -0.205 F 
ATOM     46  C   UNL     1       4.964   4.370  16.042  0.00  0.00    -0.026 A 
ATOM     47  C   UNL     1       4.108   4.641  17.112  0.00  0.00    -0.050 A 
ATOM     48  H   UNL     1       4.366   8.052  17.131  0.00  0.00    +0.062 HD
ATOM     49  H   UNL     1       5.854   7.545  15.212  0.00  0.00    +0.065 HD
ATOM     50  H   UNL     1       5.160   3.346  15.741  0.00  0.00    +0.065 HD
ATOM     51  H   UNL     1       3.638   3.820  17.649  0.00  0.00    +0.062 HD
ENDBRANCH  35  41
ENDBRANCH   2  28
TORSDOF 4
ENDMDL
MODEL 12
REMARK VINA RESULT:   -10.604      3.148      4.625
REMARK INTER + INTRA:          -9.082
REMARK INTER:                  -7.921
REMARK INTRA:                  -1.161
REMARK UNBOUND:                 4.002
REMARK  Name = 
REMARK  4 active torsions:
REMARK  status: ('A' for Active; 'I' for Inactive)
REMARK    1  A    between atoms: C_2  and  C_3
REMARK    2  A    between atoms: C_2  and  C_20
REMARK    3  A    between atoms: C_10  and  C_11
REMARK    4  A    between atoms: C_21  and  C_22
REMARK                            x       y       z     vdW  Elec       q    Type
REMARK                         _______ _______ _______ _____ _____    ______ ____
ROOT
ATOM      1  O   UNL     1       0.755   7.627  21.580  0.00  0.00    -0.285 OA
ATOM      2  C   UNL     1       0.794   8.625  20.869  0.00  0.00    +0.212 C 
ENDROOT
BRANCH   2   3
ATOM      3  C   UNL     1       1.313   8.576  19.507  0.00  0.00    +0.057 A 
ATOM      4  C   UNL     1       0.892   9.349  18.427  0.00  0.00    +0.058 A 
ATOM      5  N   UNL     1       1.659   8.984  17.345  0.00  0.00    -0.354 N 
ATOM      6  C   UNL     1       2.532   7.977  17.678  0.00  0.00    +0.048 A 
ATOM      7  C   UNL     1       3.474   7.305  16.891  0.00  0.00    -0.037 A 
ATOM      8  C   UNL     1       4.231   6.301  17.502  0.00  0.00    -0.046 A 
ATOM      9  C   UNL     1       4.043   5.989  18.846  0.00  0.00    +0.019 A 
ATOM     10 BR   UNL     1       5.086   4.624  19.642  0.00  0.00    -0.050 Br
ATOM     11  C   UNL     1       3.099   6.667  19.621  0.00  0.00    -0.038 A 
ATOM     12  C   UNL     1       2.326   7.685  19.025  0.00  0.00    +0.012 A 
ATOM     13  H   UNL     1       1.566   9.379  16.419  0.00  0.00    +0.166 HD
ATOM     14  H   UNL     1       3.617   7.547  15.842  0.00  0.00    +0.064 HD
ATOM     15  H   UNL     1       4.971   5.766  16.913  0.00  0.00    +0.063 HD
ATOM     16  H   UNL     1       2.955   6.416  20.668  0.00  0.00    +0.064 HD
BRANCH   4  17
ATOM     17  C   UNL     1      -0.169  10.348  18.314  0.00  0.00    -0.001 A 
ATOM     18  C   UNL     1       0.144  11.711  18.236  0.00  0.00    -0.053 A 
ATOM     19  C   UNL     1      -0.875  12.664  18.146  0.00  0.00    -0.061 A 
ATOM     20  C   UNL     1      -2.209  12.260  18.124  0.00  0.00    -0.062 A 
ATOM     21  C   UNL     1      -2.527  10.905  18.197  0.00  0.00    -0.061 A 
ATOM     22  C   UNL     1      -1.511   9.952  18.293  0.00  0.00    -0.053 A 
ATOM     23  H   UNL     1       1.179  12.046  18.271  0.00  0.00    +0.062 HD
ATOM     24  H   UNL     1      -0.629  13.723  18.106  0.00  0.00    +0.062 HD
ATOM     25  H   UNL     1      -3.000  13.002  18.057  0.00  0.00    +0.062 HD
ATOM     26  H   UNL     1      -3.568  10.591  18.179  0.00  0.00    +0.062 HD
ATOM     27  H   UNL     1      -1.777   8.898  18.345  0.00  0.00    +0.062 HD
ENDBRANCH   4  17
ENDBRANCH   2   3
BRANCH   2  28
ATOM     28  C   UNL     1       0.370   9.925  21.358  0.00  0.00    +0.088 A 
ATOM     29  C   UNL     1      -0.746  10.338  22.072  0.00  0.00    -0.020 A 
ATOM     30  C   UNL     1      -0.646  11.735  22.262  0.00  0.00    +0.068 A 
ATOM     31  C   UNL     1      -1.484  12.687  22.957  0.00  0.00    +0.274 A 
ATOM     32  O   UNL     1      -2.526  12.382  23.529  0.00  0.00    -0.266 OA
ATOM     33  N   UNL     1      -0.995  13.988  22.923  0.00  0.00    -0.242 N 
ATOM     34  N   UNL     1       0.149  14.429  22.272  0.00  0.00    -0.169 NA
ATOM     35  C   UNL     1       0.874  13.558  21.619  0.00  0.00    +0.115 A 
ATOM     36  C   UNL     1       0.498  12.165  21.627  0.00  0.00    +0.080 A 
ATOM     37  N   UNL     1       1.120  11.061  21.111  0.00  0.00    -0.350 N 
ATOM     38  H   UNL     1      -1.550   9.706  22.433  0.00  0.00    +0.065 HD
ATOM     39  H   UNL     1      -1.546  14.698  23.391  0.00  0.00    +0.192 HD
ATOM     40  H   UNL     1       1.998  11.042  20.609  0.00  0.00    +0.166 HD
BRANCH  35  41
ATOM     41  C   UNL     1       2.077  14.025  20.885  0.00  0.00    +0.004 A 
ATOM     42  C   UNL     1       3.323  14.120  21.522  0.00  0.00    -0.050 A 
ATOM     43  C   UNL     1       4.441  14.547  20.801  0.00  0.00    -0.026 A 
ATOM     44  C   UNL     1       4.310  14.860  19.452  0.00  0.00    +0.123 A 
ATOM     45  F   UNL     1       5.383  15.267  18.764  0.00  0.00    -0.205 F 
ATOM     46  C   UNL     1       3.084  14.748  18.804  0.00  0.00    -0.026 A 
ATOM     47  C   UNL     1       1.962  14.323  19.521  0.00  0.00    -0.050 A 
ATOM     48  H   UNL     1       3.444  13.834  22.564  0.00  0.00    +0.062 HD
ATOM     49  H   UNL     1       5.414  14.624  21.278  0.00  0.00    +0.065 HD
ATOM     50  H   UNL     1       3.005  14.984  17.748  0.00  0.00    +0.065 HD
ATOM     51  H   UNL     1       1.004  14.225  19.015  0.00  0.00    +0.062 HD
ENDBRANCH  35  41
ENDBRANCH   2  28
TORSDOF 4
ENDMDL
MODEL 13
REMARK VINA RESULT:   -10.396      4.017      8.249
REMARK INTER + INTRA:          -8.825
REMARK INTER:                  -7.971
REMARK INTRA:                  -0.854
REMARK UNBOUND:                 4.002
REMARK  Name = 
REMARK  4 active torsions:
REMARK  status: ('A' for Active; 'I' for Inactive)
REMARK    1  A    between atoms: C_2  and  C_3
REMARK    2  A    between atoms: C_2  and  C_20
REMARK    3  A    between atoms: C_10  and  C_11
REMARK    4  A    between atoms: C_21  and  C_22
REMARK                            x       y       z     vdW  Elec       q    Type
REMARK                         _______ _______ _______ _____ _____    ______ ____
ROOT
ATOM      1  O   UNL     1       2.733  11.356  17.236  0.00  0.00    -0.285 OA
ATOM      2  C   UNL     1       1.954  11.007  18.116  0.00  0.00    +0.212 C 
ENDROOT
BRANCH   2   3
ATOM      3  C   UNL     1       0.982  11.930  18.690  0.00  0.00    +0.057 A 
ATOM      4  C   UNL     1       1.259  13.112  19.375  0.00  0.00    +0.058 A 
ATOM      5  N   UNL     1       0.050  13.668  19.726  0.00  0.00    -0.354 N 
ATOM      6  C   UNL     1      -0.994  12.869  19.329  0.00  0.00    +0.048 A 
ATOM      7  C   UNL     1      -2.373  13.042  19.492  0.00  0.00    -0.037 A 
ATOM      8  C   UNL     1      -3.214  12.047  18.986  0.00  0.00    -0.046 A 
ATOM      9  C   UNL     1      -2.687  10.927  18.347  0.00  0.00    +0.019 A 
ATOM     10 BR   UNL     1      -3.857   9.599  17.674  0.00  0.00    -0.050 Br
ATOM     11  C   UNL     1      -1.308  10.766  18.191  0.00  0.00    -0.038 A 
ATOM     12  C   UNL     1      -0.441  11.759  18.692  0.00  0.00    +0.012 A 
ATOM     13  H   UNL     1      -0.053  14.532  20.241  0.00  0.00    +0.166 HD
ATOM     14  H   UNL     1      -2.783  13.913  19.993  0.00  0.00    +0.064 HD
ATOM     15  H   UNL     1      -4.290  12.158  19.098  0.00  0.00    +0.063 HD
ATOM     16  H   UNL     1      -0.903   9.889  17.695  0.00  0.00    +0.064 HD
BRANCH   4  17
ATOM     17  C   UNL     1       2.527  13.730  19.752  0.00  0.00    -0.001 A 
ATOM     18  C   UNL     1       2.949  13.730  21.088  0.00  0.00    -0.053 A 
ATOM     19  C   UNL     1       4.155  14.339  21.448  0.00  0.00    -0.061 A 
ATOM     20  C   UNL     1       4.950  14.940  20.473  0.00  0.00    -0.062 A 
ATOM     21  C   UNL     1       4.540  14.940  19.142  0.00  0.00    -0.061 A 
ATOM     22  C   UNL     1       3.332  14.339  18.782  0.00  0.00    -0.053 A 
ATOM     23  H   UNL     1       2.331  13.282  21.865  0.00  0.00    +0.062 HD
ATOM     24  H   UNL     1       4.469  14.355  22.489  0.00  0.00    +0.062 HD
ATOM     25  H   UNL     1       5.886  15.416  20.755  0.00  0.00    +0.062 HD
ATOM     26  H   UNL     1       5.161  15.409  18.383  0.00  0.00    +0.062 HD
ATOM     27  H   UNL     1       3.028  14.343  17.737  0.00  0.00    +0.062 HD
ENDBRANCH   4  17
ENDBRANCH   2   3
BRANCH   2  28
ATOM     28  C   UNL     1       1.985   9.666  18.673  0.00  0.00    +0.088 A 
ATOM     29  C   UNL     1       1.451   9.121  19.832  0.00  0.00    -0.020 A 
ATOM     30  C   UNL     1       1.810   7.754  19.873  0.00  0.00    +0.068 A 
ATOM     31  C   UNL     1       1.507   6.695  20.809  0.00  0.00    +0.274 A 
ATOM     32  O   UNL     1       0.834   6.856  21.822  0.00  0.00    -0.266 OA
ATOM     33  N   UNL     1       2.047   5.465  20.451  0.00  0.00    -0.242 N 
ATOM     34  N   UNL     1       2.848   5.197  19.350  0.00  0.00    -0.169 NA
ATOM     35  C   UNL     1       3.140   6.177  18.534  0.00  0.00    +0.115 A 
ATOM     36  C   UNL     1       2.592   7.492  18.771  0.00  0.00    +0.080 A 
ATOM     37  N   UNL     1       2.666   8.643  18.036  0.00  0.00    -0.350 N 
ATOM     38  H   UNL     1       0.855   9.641  20.573  0.00  0.00    +0.065 HD
ATOM     39  H   UNL     1       1.869   4.686  21.076  0.00  0.00    +0.192 HD
ATOM     40  H   UNL     1       3.147   8.768  17.155  0.00  0.00    +0.166 HD
BRANCH  35  41
ATOM     41  C   UNL     1       4.029   5.913  17.375  0.00  0.00    +0.004 A 
ATOM     42  C   UNL     1       4.652   6.963  16.685  0.00  0.00    -0.050 A 
ATOM     43  C   UNL     1       5.496   6.682  15.608  0.00  0.00    -0.026 A 
ATOM     44  C   UNL     1       5.723   5.360  15.239  0.00  0.00    +0.123 A 
ATOM     45  F   UNL     1       6.533   5.094  14.208  0.00  0.00    -0.205 F 
ATOM     46  C   UNL     1       5.128   4.309  15.931  0.00  0.00    -0.026 A 
ATOM     47  C   UNL     1       4.281   4.584  17.008  0.00  0.00    -0.050 A 
ATOM     48  H   UNL     1       4.516   7.997  16.995  0.00  0.00    +0.062 HD
ATOM     49  H   UNL     1       5.988   7.483  15.064  0.00  0.00    +0.065 HD
ATOM     50  H   UNL     1       5.328   3.284  15.636  0.00  0.00    +0.065 HD
ATOM     51  H   UNL     1       3.822   3.764  17.557  0.00  0.00    +0.062 HD
ENDBRANCH  35  41
ENDBRANCH   2  28
TORSDOF 4
ENDMDL
MODEL 14
REMARK VINA RESULT:   -10.368      4.938      8.060
REMARK INTER + INTRA:          -8.791
REMARK INTER:                  -7.448
REMARK INTRA:                  -1.343
REMARK UNBOUND:                 4.002
REMARK  Name = 
REMARK  4 active torsions:
REMARK  status: ('A' for Active; 'I' for Inactive)
REMARK    1  A    between atoms: C_2  and  C_3
REMARK    2  A    between atoms: C_2  and  C_20
REMARK    3  A    between atoms: C_10  and  C_11
REMARK    4  A    between atoms: C_21  and  C_22
REMARK                            x       y       z     vdW  Elec       q    Type
REMARK                         _______ _______ _______ _____ _____    ______ ____
ROOT
ATOM      1  O   UNL     1       0.323  10.564  21.424  0.00  0.00    -0.285 OA
ATOM      2  C   UNL     1       0.086  11.706  21.047  0.00  0.00    +0.212 C 
ENDROOT
BRANCH   2   3
ATOM      3  C   UNL     1      -1.265  12.255  21.064  0.00  0.00    +0.057 A 
ATOM      4  C   UNL     1      -2.252  12.068  20.098  0.00  0.00    +0.058 A 
ATOM      5  N   UNL     1      -3.368  12.752  20.524  0.00  0.00    -0.354 N 
ATOM      6  C   UNL     1      -3.124  13.405  21.707  0.00  0.00    +0.048 A 
ATOM      7  C   UNL     1      -3.963  14.219  22.476  0.00  0.00    -0.037 A 
ATOM      8  C   UNL     1      -3.436  14.767  23.650  0.00  0.00    -0.046 A 
ATOM      9  C   UNL     1      -2.121  14.507  24.027  0.00  0.00    +0.019 A 
ATOM     10 BR   UNL     1      -1.440  15.266  25.622  0.00  0.00    -0.050 Br
ATOM     11  C   UNL     1      -1.293  13.694  23.249  0.00  0.00    -0.038 A 
ATOM     12  C   UNL     1      -1.805  13.128  22.063  0.00  0.00    +0.012 A 
ATOM     13  H   UNL     1      -4.239  12.798  20.013  0.00  0.00    +0.166 HD
ATOM     14  H   UNL     1      -4.987  14.423  22.179  0.00  0.00    +0.064 HD
ATOM     15  H   UNL     1      -4.068  15.400  24.266  0.00  0.00    +0.063 HD
ATOM     16  H   UNL     1      -0.266  13.498  23.547  0.00  0.00    +0.064 HD
BRANCH   4  17
ATOM     17  C   UNL     1      -2.229  11.354  18.824  0.00  0.00    -0.001 A 
ATOM     18  C   UNL     1      -3.172  11.642  17.830  0.00  0.00    -0.053 A 
ATOM     19  C   UNL     1      -3.157  10.944  16.619  0.00  0.00    -0.061 A 
ATOM     20  C   UNL     1      -2.193   9.962  16.392  0.00  0.00    -0.062 A 
ATOM     21  C   UNL     1      -1.249   9.673  17.375  0.00  0.00    -0.061 A 
ATOM     22  C   UNL     1      -1.266  10.365  18.587  0.00  0.00    -0.053 A 
ATOM     23  H   UNL     1      -3.944  12.392  17.998  0.00  0.00    +0.062 HD
ATOM     24  H   UNL     1      -3.904  11.156  15.857  0.00  0.00    +0.062 HD
ATOM     25  H   UNL     1      -2.185   9.417  15.451  0.00  0.00    +0.062 HD
ATOM     26  H   UNL     1      -0.497   8.908  17.196  0.00  0.00    +0.062 HD
ATOM     27  H   UNL     1      -0.519  10.130  19.342  0.00  0.00    +0.062 HD
ENDBRANCH   4  17
ENDBRANCH   2   3
BRANCH   2  28
ATOM     28  C   UNL     1       1.130  12.564  20.515  0.00  0.00    +0.088 A 
ATOM     29  C   UNL     1       1.378  13.058  19.242  0.00  0.00    -0.020 A 
ATOM     30  C   UNL     1       2.556  13.839  19.303  0.00  0.00    +0.068 A 
ATOM     31  C   UNL     1       3.260  14.617  18.309  0.00  0.00    +0.274 A 
ATOM     32  O   UNL     1       2.904  14.706  17.138  0.00  0.00    -0.266 OA
ATOM     33  N   UNL     1       4.384  15.267  18.806  0.00  0.00    -0.242 N 
ATOM     34  N   UNL     1       4.882  15.195  20.099  0.00  0.00    -0.169 NA
ATOM     35  C   UNL     1       4.250  14.457  20.974  0.00  0.00    +0.115 A 
ATOM     36  C   UNL     1       3.036  13.775  20.591  0.00  0.00    +0.080 A 
ATOM     37  N   UNL     1       2.153  13.030  21.323  0.00  0.00    -0.350 N 
ATOM     38  H   UNL     1       0.776  12.890  18.358  0.00  0.00    +0.065 HD
ATOM     39  H   UNL     1       4.920  15.825  18.150  0.00  0.00    +0.192 HD
ATOM     40  H   UNL     1       2.211  12.822  22.311  0.00  0.00    +0.166 HD
BRANCH  35  41
ATOM     41  C   UNL     1       4.795  14.340  22.350  0.00  0.00    +0.004 A 
ATOM     42  C   UNL     1       4.445  15.260  23.349  0.00  0.00    -0.050 A 
ATOM     43  C   UNL     1       4.961  15.114  24.639  0.00  0.00    -0.026 A 
ATOM     44  C   UNL     1       5.808  14.047  24.924  0.00  0.00    +0.123 A 
ATOM     45  F   UNL     1       6.299  13.910  26.161  0.00  0.00    -0.205 F 
ATOM     46  C   UNL     1       6.143  13.116  23.947  0.00  0.00    -0.026 A 
ATOM     47  C   UNL     1       5.631  13.257  22.655  0.00  0.00    -0.050 A 
ATOM     48  H   UNL     1       3.748  16.070  23.147  0.00  0.00    +0.062 HD
ATOM     49  H   UNL     1       4.699  15.816  25.425  0.00  0.00    +0.065 HD
ATOM     50  H   UNL     1       6.794  12.283  24.193  0.00  0.00    +0.065 HD
ATOM     51  H   UNL     1       5.884  12.525  21.890  0.00  0.00    +0.062 HD
ENDBRANCH  35  41
ENDBRANCH   2  28
TORSDOF 4
ENDMDL
MODEL 15
REMARK VINA RESULT:   -10.315      4.843      7.557
REMARK INTER + INTRA:          -8.725
REMARK INTER:                  -7.031
REMARK INTRA:                  -1.694
REMARK UNBOUND:                 4.002
REMARK  Name = 
REMARK  4 active torsions:
REMARK  status: ('A' for Active; 'I' for Inactive)
REMARK    1  A    between atoms: C_2  and  C_3
REMARK    2  A    between atoms: C_2  and  C_20
REMARK    3  A    between atoms: C_10  and  C_11
REMARK    4  A    between atoms: C_21  and  C_22
REMARK                            x       y       z     vdW  Elec       q    Type
REMARK                         _______ _______ _______ _____ _____    ______ ____
ROOT
ATOM      1  O   UNL     1       0.056  11.890  22.494  0.00  0.00    -0.285 OA
ATOM      2  C   UNL     1       0.126  12.149  21.297  0.00  0.00    +0.212 C 
ENDROOT
BRANCH   2   3
ATOM      3  C   UNL     1      -0.880  11.680  20.351  0.00  0.00    +0.057 A 
ATOM      4  C   UNL     1      -0.760  10.607  19.471  0.00  0.00    +0.058 A 
ATOM      5  N   UNL     1      -1.947  10.516  18.780  0.00  0.00    -0.354 N 
ATOM      6  C   UNL     1      -2.812  11.514  19.155  0.00  0.00    +0.048 A 
ATOM      7  C   UNL     1      -4.105  11.802  18.703  0.00  0.00    -0.037 A 
ATOM      8  C   UNL     1      -4.758  12.903  19.265  0.00  0.00    -0.046 A 
ATOM      9  C   UNL     1      -4.132  13.681  20.236  0.00  0.00    +0.019 A 
ATOM     10 BR   UNL     1      -5.045  15.165  20.975  0.00  0.00    -0.050 Br
ATOM     11  C   UNL     1      -2.840  13.383  20.678  0.00  0.00    -0.038 A 
ATOM     12  C   UNL     1      -2.165  12.275  20.127  0.00  0.00    +0.012 A 
ATOM     13  H   UNL     1      -2.141   9.828  18.066  0.00  0.00    +0.166 HD
ATOM     14  H   UNL     1      -4.591  11.197  17.942  0.00  0.00    +0.064 HD
ATOM     15  H   UNL     1      -5.763  13.146  18.932  0.00  0.00    +0.063 HD
ATOM     16  H   UNL     1      -2.356  13.995  21.434  0.00  0.00    +0.064 HD
BRANCH   4  17
ATOM     17  C   UNL     1       0.357   9.706  19.199  0.00  0.00    -0.001 A 
ATOM     18  C   UNL     1       0.916   9.632  17.917  0.00  0.00    -0.053 A 
ATOM     19  C   UNL     1       1.974   8.755  17.657  0.00  0.00    -0.061 A 
ATOM     20  C   UNL     1       2.484   7.957  18.680  0.00  0.00    -0.062 A 
ATOM     21  C   UNL     1       1.936   8.028  19.959  0.00  0.00    -0.061 A 
ATOM     22  C   UNL     1       0.876   8.898  20.218  0.00  0.00    -0.053 A 
ATOM     23  H   UNL     1       0.517  10.234  17.102  0.00  0.00    +0.062 HD
ATOM     24  H   UNL     1       2.392   8.686  16.656  0.00  0.00    +0.062 HD
ATOM     25  H   UNL     1       3.305   7.273  18.476  0.00  0.00    +0.062 HD
ATOM     26  H   UNL     1       2.336   7.405  20.756  0.00  0.00    +0.062 HD
ATOM     27  H   UNL     1       0.462   8.945  21.224  0.00  0.00    +0.062 HD
ENDBRANCH   4  17
ENDBRANCH   2   3
BRANCH   2  28
ATOM     28  C   UNL     1       1.240  12.898  20.744  0.00  0.00    +0.088 A 
ATOM     29  C   UNL     1       1.512  13.363  19.465  0.00  0.00    -0.020 A 
ATOM     30  C   UNL     1       2.762  14.023  19.501  0.00  0.00    +0.068 A 
ATOM     31  C   UNL     1       3.522  14.726  18.492  0.00  0.00    +0.274 A 
ATOM     32  O   UNL     1       3.155  14.848  17.328  0.00  0.00    -0.266 OA
ATOM     33  N   UNL     1       4.714  15.262  18.966  0.00  0.00    -0.242 N 
ATOM     34  N   UNL     1       5.226  15.143  20.251  0.00  0.00    -0.169 NA
ATOM     35  C   UNL     1       4.540  14.472  21.140  0.00  0.00    +0.115 A 
ATOM     36  C   UNL     1       3.258  13.914  20.781  0.00  0.00    +0.080 A 
ATOM     37  N   UNL     1       2.318  13.261  21.531  0.00  0.00    -0.350 N 
ATOM     38  H   UNL     1       0.880  13.254  18.592  0.00  0.00    +0.065 HD
ATOM     39  H   UNL     1       5.291  15.762  18.299  0.00  0.00    +0.192 HD
ATOM     40  H   UNL     1       2.374  13.050  22.519  0.00  0.00    +0.166 HD
BRANCH  35  41
ATOM     41  C   UNL     1       5.096  14.304  22.505  0.00  0.00    +0.004 A 
ATOM     42  C   UNL     1       5.947  13.232  22.814  0.00  0.00    -0.050 A 
ATOM     43  C   UNL     1       6.468  13.109  24.105  0.00  0.00    -0.026 A 
ATOM     44  C   UNL     1       6.149  14.060  25.069  0.00  0.00    +0.123 A 
ATOM     45  F   UNL     1       6.651  13.940  26.303  0.00  0.00    -0.205 F 
ATOM     46  C   UNL     1       5.324  15.139  24.767  0.00  0.00    -0.026 A 
ATOM     47  C   UNL     1       4.799  15.267  23.479  0.00  0.00    -0.050 A 
ATOM     48  H   UNL     1       6.238  12.510  22.055  0.00  0.00    +0.062 HD
ATOM     49  H   UNL     1       7.130  12.287  24.360  0.00  0.00    +0.065 HD
ATOM     50  H   UNL     1       5.097  15.878  25.530  0.00  0.00    +0.065 HD
ATOM     51  H   UNL     1       4.161  16.115  23.238  0.00  0.00    +0.062 HD
ENDBRANCH  35  41
ENDBRANCH   2  28
TORSDOF 4
ENDMDL
MODEL 16
REMARK VINA RESULT:   -10.257      4.666      8.038
REMARK INTER + INTRA:          -8.654
REMARK INTER:                  -6.822
REMARK INTRA:                  -1.832
REMARK UNBOUND:                 4.002
REMARK  Name = 
REMARK  4 active torsions:
REMARK  status: ('A' for Active; 'I' for Inactive)
REMARK    1  A    between atoms: C_2  and  C_3
REMARK    2  A    between atoms: C_2  and  C_20
REMARK    3  A    between atoms: C_10  and  C_11
REMARK    4  A    between atoms: C_21  and  C_22
REMARK                            x       y       z     vdW  Elec       q    Type
REMARK                         _______ _______ _______ _____ _____    ______ ____
ROOT
ATOM      1  O   UNL     1       8.443   5.562  19.907  0.00  0.00    -0.285 OA
ATOM      2  C   UNL     1       7.503   5.894  19.194  0.00  0.00    +0.212 C 
ENDROOT
BRANCH   2   3
ATOM      3  C   UNL     1       7.607   7.004  18.253  0.00  0.00    +0.057 A 
ATOM      4  C   UNL     1       7.246   6.993  16.908  0.00  0.00    +0.058 A 
ATOM      5  N   UNL     1       7.501   8.250  16.410  0.00  0.00    -0.354 N 
ATOM      6  C   UNL     1       8.049   9.059  17.375  0.00  0.00    +0.048 A 
ATOM      7  C   UNL     1       8.469  10.392  17.300  0.00  0.00    -0.037 A 
ATOM      8  C   UNL     1       9.005  10.968  18.456  0.00  0.00    -0.046 A 
ATOM      9  C   UNL     1       9.116  10.230  19.632  0.00  0.00    +0.019 A 
ATOM     10 BR   UNL     1       9.848  11.042  21.178  0.00  0.00    -0.050 Br
ATOM     11  C   UNL     1       8.694   8.900  19.693  0.00  0.00    -0.038 A 
ATOM     12  C   UNL     1       8.147   8.300  18.540  0.00  0.00    +0.012 A 
ATOM     13  H   UNL     1       7.340   8.529  15.452  0.00  0.00    +0.166 HD
ATOM     14  H   UNL     1       8.386  10.965  16.382  0.00  0.00    +0.064 HD
ATOM     15  H   UNL     1       9.337  12.003  18.424  0.00  0.00    +0.063 HD
ATOM     16  H   UNL     1       8.786   8.328  20.612  0.00  0.00    +0.064 HD
BRANCH   4  17
ATOM     17  C   UNL     1       6.733   5.920  16.058  0.00  0.00    -0.001 A 
ATOM     18  C   UNL     1       7.611   5.113  15.324  0.00  0.00    -0.053 A 
ATOM     19  C   UNL     1       7.114   4.099  14.499  0.00  0.00    -0.061 A 
ATOM     20  C   UNL     1       5.739   3.882  14.412  0.00  0.00    -0.062 A 
ATOM     21  C   UNL     1       4.860   4.678  15.143  0.00  0.00    -0.061 A 
ATOM     22  C   UNL     1       5.354   5.695  15.963  0.00  0.00    -0.053 A 
ATOM     23  H   UNL     1       8.685   5.281  15.365  0.00  0.00    +0.062 HD
ATOM     24  H   UNL     1       7.797   3.488  13.914  0.00  0.00    +0.062 HD
ATOM     25  H   UNL     1       5.354   3.096  13.767  0.00  0.00    +0.062 HD
ATOM     26  H   UNL     1       3.789   4.507  15.075  0.00  0.00    +0.062 HD
ATOM     27  H   UNL     1       4.655   6.305  16.531  0.00  0.00    +0.062 HD
ENDBRANCH   4  17
ENDBRANCH   2   3
BRANCH   2  28
ATOM     28  C   UNL     1       6.213   5.231  19.277  0.00  0.00    +0.088 A 
ATOM     29  C   UNL     1       5.842   3.896  19.216  0.00  0.00    -0.020 A 
ATOM     30  C   UNL     1       4.435   3.831  19.340  0.00  0.00    +0.068 A 
ATOM     31  C   UNL     1       3.510   2.720  19.384  0.00  0.00    +0.274 A 
ATOM     32  O   UNL     1       3.855   1.547  19.294  0.00  0.00    -0.266 OA
ATOM     33  N   UNL     1       2.185   3.107  19.547  0.00  0.00    -0.242 N 
ATOM     34  N   UNL     1       1.700   4.405  19.621  0.00  0.00    -0.169 NA
ATOM     35  C   UNL     1       2.549   5.397  19.543  0.00  0.00    +0.115 A 
ATOM     36  C   UNL     1       3.961   5.121  19.428  0.00  0.00    +0.080 A 
ATOM     37  N   UNL     1       5.044   5.957  19.421  0.00  0.00    -0.350 N 
ATOM     38  H   UNL     1       6.506   3.047  19.105  0.00  0.00    +0.065 HD
ATOM     39  H   UNL     1       1.491   2.367  19.580  0.00  0.00    +0.192 HD
ATOM     40  H   UNL     1       5.029   6.966  19.498  0.00  0.00    +0.166 HD
BRANCH  35  41
ATOM     41  C   UNL     1       2.039   6.790  19.580  0.00  0.00    +0.004 A 
ATOM     42  C   UNL     1       1.572   7.359  20.774  0.00  0.00    -0.050 A 
ATOM     43  C   UNL     1       1.112   8.679  20.781  0.00  0.00    -0.026 A 
ATOM     44  C   UNL     1       1.137   9.421  19.605  0.00  0.00    +0.123 A 
ATOM     45  F   UNL     1       0.698  10.685  19.615  0.00  0.00    -0.205 F 
ATOM     46  C   UNL     1       1.619   8.874  18.419  0.00  0.00    -0.026 A 
ATOM     47  C   UNL     1       2.078   7.554  18.406  0.00  0.00    -0.050 A 
ATOM     48  H   UNL     1       1.591   6.801  21.707  0.00  0.00    +0.062 HD
ATOM     49  H   UNL     1       0.750   9.136  21.697  0.00  0.00    +0.065 HD
ATOM     50  H   UNL     1       1.642   9.474  17.515  0.00  0.00    +0.065 HD
ATOM     51  H   UNL     1       2.465   7.127  17.483  0.00  0.00    +0.062 HD
ENDBRANCH  35  41
ENDBRANCH   2  28
TORSDOF 4
ENDMDL
MODEL 17
REMARK VINA RESULT:   -10.059      5.022      7.394
REMARK INTER + INTRA:          -8.410
REMARK INTER:                  -6.834
REMARK INTRA:                  -1.576
REMARK UNBOUND:                 4.002
REMARK  Name = 
REMARK  4 active torsions:
REMARK  status: ('A' for Active; 'I' for Inactive)
REMARK    1  A    between atoms: C_2  and  C_3
REMARK    2  A    between atoms: C_2  and  C_20
REMARK    3  A    between atoms: C_10  and  C_11
REMARK    4  A    between atoms: C_21  and  C_22
REMARK                            x       y       z     vdW  Elec       q    Type
REMARK                         _______ _______ _______ _____ _____    ______ ____
ROOT
ATOM      1  O   UNL     1      -0.030  11.104  21.982  0.00  0.00    -0.285 OA
ATOM      2  C   UNL     1      -0.251  12.053  21.237  0.00  0.00    +0.212 C 
ENDROOT
BRANCH   2   3
ATOM      3  C   UNL     1      -1.607  12.431  20.857  0.00  0.00    +0.057 A 
ATOM      4  C   UNL     1      -2.474  13.254  21.574  0.00  0.00    +0.058 A 
ATOM      5  N   UNL     1      -3.636  13.349  20.844  0.00  0.00    -0.354 N 
ATOM      6  C   UNL     1      -3.566  12.588  19.703  0.00  0.00    +0.048 A 
ATOM      7  C   UNL     1      -4.515  12.385  18.695  0.00  0.00    -0.037 A 
ATOM      8  C   UNL     1      -4.168  11.537  17.640  0.00  0.00    -0.046 A 
ATOM      9  C   UNL     1      -2.921  10.918  17.606  0.00  0.00    +0.019 A 
ATOM     10 BR   UNL     1      -2.484   9.775  16.161  0.00  0.00    -0.050 Br
ATOM     11  C   UNL     1      -1.982  11.128  18.619  0.00  0.00    -0.038 A 
ATOM     12  C   UNL     1      -2.310  11.982  19.692  0.00  0.00    +0.012 A 
ATOM     13  H   UNL     1      -4.448  13.881  21.129  0.00  0.00    +0.166 HD
ATOM     14  H   UNL     1      -5.489  12.865  18.724  0.00  0.00    +0.064 HD
ATOM     15  H   UNL     1      -4.887  11.365  16.843  0.00  0.00    +0.063 HD
ATOM     16  H   UNL     1      -1.012  10.639  18.589  0.00  0.00    +0.064 HD
BRANCH   4  17
ATOM     17  C   UNL     1      -2.325  13.911  22.870  0.00  0.00    -0.001 A 
ATOM     18  C   UNL     1      -1.167  14.638  23.170  0.00  0.00    -0.053 A 
ATOM     19  C   UNL     1      -1.021  15.250  24.419  0.00  0.00    -0.061 A 
ATOM     20  C   UNL     1      -2.036  15.147  25.369  0.00  0.00    -0.062 A 
ATOM     21  C   UNL     1      -3.193  14.428  25.076  0.00  0.00    -0.061 A 
ATOM     22  C   UNL     1      -3.338  13.811  23.832  0.00  0.00    -0.053 A 
ATOM     23  H   UNL     1      -0.356  14.713  22.447  0.00  0.00    +0.062 HD
ATOM     24  H   UNL     1      -0.111  15.797  24.655  0.00  0.00    +0.062 HD
ATOM     25  H   UNL     1      -1.920  15.620  26.341  0.00  0.00    +0.062 HD
ATOM     26  H   UNL     1      -3.984  14.348  25.818  0.00  0.00    +0.062 HD
ATOM     27  H   UNL     1      -4.250  13.257  23.618  0.00  0.00    +0.062 HD
ENDBRANCH   4  17
ENDBRANCH   2   3
BRANCH   2  28
ATOM     28  C   UNL     1       0.829  12.827  20.649  0.00  0.00    +0.088 A 
ATOM     29  C   UNL     1       1.051  13.297  19.363  0.00  0.00    -0.020 A 
ATOM     30  C   UNL     1       2.286  13.985  19.360  0.00  0.00    +0.068 A 
ATOM     31  C   UNL     1       2.999  14.704  18.328  0.00  0.00    +0.274 A 
ATOM     32  O   UNL     1       2.593  14.816  17.175  0.00  0.00    -0.266 OA
ATOM     33  N   UNL     1       4.192  15.266  18.765  0.00  0.00    -0.242 N 
ATOM     34  N   UNL     1       4.746  15.160  20.033  0.00  0.00    -0.169 NA
ATOM     35  C   UNL     1       4.103  14.475  20.943  0.00  0.00    +0.115 A 
ATOM     36  C   UNL     1       2.823  13.888  20.624  0.00  0.00    +0.080 A 
ATOM     37  N   UNL     1       1.922  13.215  21.403  0.00  0.00    -0.350 N 
ATOM     38  H   UNL     1       0.394  13.172  18.509  0.00  0.00    +0.065 HD
ATOM     39  H   UNL     1       4.737  15.779  18.080  0.00  0.00    +0.192 HD
ATOM     40  H   UNL     1       2.013  13.006  22.389  0.00  0.00    +0.166 HD
BRANCH  35  41
ATOM     41  C   UNL     1       4.704  14.320  22.291  0.00  0.00    +0.004 A 
ATOM     42  C   UNL     1       5.603  13.280  22.569  0.00  0.00    -0.050 A 
ATOM     43  C   UNL     1       6.165  13.169  23.843  0.00  0.00    -0.026 A 
ATOM     44  C   UNL     1       5.839  14.103  24.821  0.00  0.00    +0.123 A 
ATOM     45  F   UNL     1       6.381  13.995  26.040  0.00  0.00    -0.205 F 
ATOM     46  C   UNL     1       4.966  15.152  24.551  0.00  0.00    -0.026 A 
ATOM     47  C   UNL     1       4.400  15.267  23.279  0.00  0.00    -0.050 A 
ATOM     48  H   UNL     1       5.898  12.572  21.797  0.00  0.00    +0.062 HD
ATOM     49  H   UNL     1       6.864  12.371  24.074  0.00  0.00    +0.065 HD
ATOM     50  H   UNL     1       4.735  15.878  25.324  0.00  0.00    +0.065 HD
ATOM     51  H   UNL     1       3.724  16.092  23.062  0.00  0.00    +0.062 HD
ENDBRANCH  35  41
ENDBRANCH   2  28
TORSDOF 4
ENDMDL
MODEL 18
REMARK VINA RESULT:    -9.939      3.568      7.668
REMARK INTER + INTRA:          -8.261
REMARK INTER:                  -7.560
REMARK INTRA:                  -0.701
REMARK UNBOUND:                 4.002
REMARK  Name = 
REMARK  4 active torsions:
REMARK  status: ('A' for Active; 'I' for Inactive)
REMARK    1  A    between atoms: C_2  and  C_3
REMARK    2  A    between atoms: C_2  and  C_20
REMARK    3  A    between atoms: C_10  and  C_11
REMARK    4  A    between atoms: C_21  and  C_22
REMARK                            x       y       z     vdW  Elec       q    Type
REMARK                         _______ _______ _______ _____ _____    ______ ____
ROOT
ATOM      1  O   UNL     1      -1.112  11.292  22.626  0.00  0.00    -0.285 OA
ATOM      2  C   UNL     1      -1.263  11.620  21.454  0.00  0.00    +0.212 C 
ENDROOT
BRANCH   2   3
ATOM      3  C   UNL     1      -2.530  12.147  20.961  0.00  0.00    +0.057 A 
ATOM      4  C   UNL     1      -3.414  12.973  21.653  0.00  0.00    +0.058 A 
ATOM      5  N   UNL     1      -4.468  13.235  20.808  0.00  0.00    -0.354 N 
ATOM      6  C   UNL     1      -4.315  12.577  19.612  0.00  0.00    +0.048 A 
ATOM      7  C   UNL     1      -5.147  12.550  18.487  0.00  0.00    -0.037 A 
ATOM      8  C   UNL     1      -4.738  11.774  17.398  0.00  0.00    -0.046 A 
ATOM      9  C   UNL     1      -3.546  11.055  17.445  0.00  0.00    +0.019 A 
ATOM     10 BR   UNL     1      -3.023  10.015  15.953  0.00  0.00    -0.050 Br
ATOM     11  C   UNL     1      -2.725  11.090  18.576  0.00  0.00    -0.038 A 
ATOM     12  C   UNL     1      -3.117  11.868  19.684  0.00  0.00    +0.012 A 
ATOM     13  H   UNL     1      -5.266  13.806  21.050  0.00  0.00    +0.166 HD
ATOM     14  H   UNL     1      -6.078  13.108  18.453  0.00  0.00    +0.064 HD
ATOM     15  H   UNL     1      -5.365  11.738  16.511  0.00  0.00    +0.063 HD
ATOM     16  H   UNL     1      -1.798  10.524  18.608  0.00  0.00    +0.064 HD
BRANCH   4  17
ATOM     17  C   UNL     1      -3.376  13.494  23.018  0.00  0.00    -0.001 A 
ATOM     18  C   UNL     1      -2.676  14.671  23.310  0.00  0.00    -0.053 A 
ATOM     19  C   UNL     1      -2.627  15.156  24.621  0.00  0.00    -0.061 A 
ATOM     20  C   UNL     1      -3.286  14.473  25.642  0.00  0.00    -0.062 A 
ATOM     21  C   UNL     1      -3.989  13.304  25.358  0.00  0.00    -0.061 A 
ATOM     22  C   UNL     1      -4.033  12.815  24.051  0.00  0.00    -0.053 A 
ATOM     23  H   UNL     1      -2.139  15.206  22.529  0.00  0.00    +0.062 HD
ATOM     24  H   UNL     1      -2.065  16.059  24.848  0.00  0.00    +0.062 HD
ATOM     25  H   UNL     1      -3.245  14.849  26.661  0.00  0.00    +0.062 HD
ATOM     26  H   UNL     1      -4.503  12.772  26.155  0.00  0.00    +0.062 HD
ATOM     27  H   UNL     1      -4.590  11.902  23.845  0.00  0.00    +0.062 HD
ENDBRANCH   4  17
ENDBRANCH   2   3
BRANCH   2  28
ATOM     28  C   UNL     1      -0.202  11.457  20.475  0.00  0.00    +0.088 A 
ATOM     29  C   UNL     1       0.415  12.346  19.607  0.00  0.00    -0.020 A 
ATOM     30  C   UNL     1       1.382  11.628  18.866  0.00  0.00    +0.068 A 
ATOM     31  C   UNL     1       2.338  12.034  17.860  0.00  0.00    +0.274 A 
ATOM     32  O   UNL     1       2.445  13.186  17.451  0.00  0.00    -0.266 OA
ATOM     33  N   UNL     1       3.136  10.993  17.399  0.00  0.00    -0.242 N 
ATOM     34  N   UNL     1       3.061   9.659  17.775  0.00  0.00    -0.169 NA
ATOM     35  C   UNL     1       2.165   9.306  18.660  0.00  0.00    +0.115 A 
ATOM     36  C   UNL     1       1.312  10.308  19.253  0.00  0.00    +0.080 A 
ATOM     37  N   UNL     1       0.376  10.221  20.247  0.00  0.00    -0.350 N 
ATOM     38  H   UNL     1       0.207  13.406  19.515  0.00  0.00    +0.065 HD
ATOM     39  H   UNL     1       3.822  11.221  16.688  0.00  0.00    +0.192 HD
ATOM     40  H   UNL     1       0.113   9.387  20.757  0.00  0.00    +0.166 HD
BRANCH  35  41
ATOM     41  C   UNL     1       2.048   7.876  19.039  0.00  0.00    +0.004 A 
ATOM     42  C   UNL     1       2.350   6.856  18.124  0.00  0.00    -0.050 A 
ATOM     43  C   UNL     1       2.246   5.519  18.516  0.00  0.00    -0.026 A 
ATOM     44  C   UNL     1       1.858   5.212  19.816  0.00  0.00    +0.123 A 
ATOM     45  F   UNL     1       1.761   3.930  20.188  0.00  0.00    -0.205 F 
ATOM     46  C   UNL     1       1.578   6.215  20.739  0.00  0.00    -0.026 A 
ATOM     47  C   UNL     1       1.679   7.554  20.352  0.00  0.00    -0.050 A 
ATOM     48  H   UNL     1       2.698   7.088  17.120  0.00  0.00    +0.062 HD
ATOM     49  H   UNL     1       2.478   4.718  17.821  0.00  0.00    +0.065 HD
ATOM     50  H   UNL     1       1.290   5.955  21.752  0.00  0.00    +0.065 HD
ATOM     51  H   UNL     1       1.470   8.341  21.074  0.00  0.00    +0.062 HD
ENDBRANCH  35  41
ENDBRANCH   2  28
TORSDOF 4
ENDMDL
MODEL 19
REMARK VINA RESULT:    -9.905      2.444      3.740
REMARK INTER + INTRA:          -8.220
REMARK INTER:                  -7.147
REMARK INTRA:                  -1.073
REMARK UNBOUND:                 4.002
REMARK  Name = 
REMARK  4 active torsions:
REMARK  status: ('A' for Active; 'I' for Inactive)
REMARK    1  A    between atoms: C_2  and  C_3
REMARK    2  A    between atoms: C_2  and  C_20
REMARK    3  A    between atoms: C_10  and  C_11
REMARK    4  A    between atoms: C_21  and  C_22
REMARK                            x       y       z     vdW  Elec       q    Type
REMARK                         _______ _______ _______ _____ _____    ______ ____
ROOT
ATOM      1  O   UNL     1       0.172   9.279  21.260  0.00  0.00    -0.285 OA
ATOM      2  C   UNL     1       0.074   9.744  20.130  0.00  0.00    +0.212 C 
ENDROOT
BRANCH   2   3
ATOM      3  C   UNL     1       1.189   9.722  19.190  0.00  0.00    +0.057 A 
ATOM      4  C   UNL     1       1.810  10.825  18.608  0.00  0.00    +0.058 A 
ATOM      5  N   UNL     1       2.816  10.343  17.803  0.00  0.00    -0.354 N 
ATOM      6  C   UNL     1       2.842   8.970  17.814  0.00  0.00    +0.048 A 
ATOM      7  C   UNL     1       3.681   8.079  17.136  0.00  0.00    -0.037 A 
ATOM      8  C   UNL     1       3.468   6.711  17.332  0.00  0.00    -0.046 A 
ATOM      9  C   UNL     1       2.451   6.264  18.172  0.00  0.00    +0.019 A 
ATOM     10 BR   UNL     1       2.191   4.404  18.415  0.00  0.00    -0.050 Br
ATOM     11  C   UNL     1       1.619   7.164  18.843  0.00  0.00    -0.038 A 
ATOM     12  C   UNL     1       1.819   8.548  18.661  0.00  0.00    +0.012 A 
ATOM     13  H   UNL     1       3.432  10.923  17.248  0.00  0.00    +0.166 HD
ATOM     14  H   UNL     1       4.471   8.429  16.478  0.00  0.00    +0.064 HD
ATOM     15  H   UNL     1       4.108   5.999  16.819  0.00  0.00    +0.063 HD
ATOM     16  H   UNL     1       0.826   6.809  19.494  0.00  0.00    +0.064 HD
BRANCH   4  17
ATOM     17  C   UNL     1       1.524  12.254  18.708  0.00  0.00    -0.001 A 
ATOM     18  C   UNL     1       0.383  12.795  18.102  0.00  0.00    -0.053 A 
ATOM     19  C   UNL     1       0.123  14.166  18.186  0.00  0.00    -0.061 A 
ATOM     20  C   UNL     1       0.995  15.000  18.883  0.00  0.00    -0.062 A 
ATOM     21  C   UNL     1       2.130  14.469  19.492  0.00  0.00    -0.061 A 
ATOM     22  C   UNL     1       2.395  13.101  19.405  0.00  0.00    -0.053 A 
ATOM     23  H   UNL     1      -0.298  12.161  17.538  0.00  0.00    +0.062 HD
ATOM     24  H   UNL     1      -0.753  14.586  17.697  0.00  0.00    +0.062 HD
ATOM     25  H   UNL     1       0.794  16.067  18.944  0.00  0.00    +0.062 HD
ATOM     26  H   UNL     1       2.810  15.120  20.036  0.00  0.00    +0.062 HD
ATOM     27  H   UNL     1       3.283  12.701  19.889  0.00  0.00    +0.062 HD
ENDBRANCH   4  17
ENDBRANCH   2   3
BRANCH   2  28
ATOM     28  C   UNL     1      -1.146  10.389  19.676  0.00  0.00    +0.088 A 
ATOM     29  C   UNL     1      -1.827  10.358  18.467  0.00  0.00    -0.020 A 
ATOM     30  C   UNL     1      -2.959  11.198  18.586  0.00  0.00    +0.068 A 
ATOM     31  C   UNL     1      -4.035  11.518  17.674  0.00  0.00    +0.274 A 
ATOM     32  O   UNL     1      -4.116  11.067  16.536  0.00  0.00    -0.266 OA
ATOM     33  N   UNL     1      -4.979  12.384  18.212  0.00  0.00    -0.242 N 
ATOM     34  N   UNL     1      -4.950  12.971  19.469  0.00  0.00    -0.169 NA
ATOM     35  C   UNL     1      -3.949  12.696  20.266  0.00  0.00    +0.115 A 
ATOM     36  C   UNL     1      -2.931  11.765  19.840  0.00  0.00    +0.080 A 
ATOM     37  N   UNL     1      -1.851  11.246  20.501  0.00  0.00    -0.350 N 
ATOM     38  H   UNL     1      -1.553   9.786  17.588  0.00  0.00    +0.065 HD
ATOM     39  H   UNL     1      -5.755  12.647  17.614  0.00  0.00    +0.192 HD
ATOM     40  H   UNL     1      -1.574  11.446  21.454  0.00  0.00    +0.166 HD
BRANCH  35  41
ATOM     41  C   UNL     1      -3.884  13.348  21.597  0.00  0.00    +0.004 A 
ATOM     42  C   UNL     1      -4.280  14.683  21.771  0.00  0.00    -0.050 A 
ATOM     43  C   UNL     1      -4.224  15.264  23.040  0.00  0.00    -0.026 A 
ATOM     44  C   UNL     1      -3.789  14.509  24.124  0.00  0.00    +0.123 A 
ATOM     45  F   UNL     1      -3.737  15.069  25.338  0.00  0.00    -0.205 F 
ATOM     46  C   UNL     1      -3.415  13.177  23.967  0.00  0.00    -0.026 A 
ATOM     47  C   UNL     1      -3.468  12.591  22.700  0.00  0.00    -0.050 A 
ATOM     48  H   UNL     1      -4.665  15.267  20.938  0.00  0.00    +0.062 HD
ATOM     49  H   UNL     1      -4.529  16.295  23.192  0.00  0.00    +0.065 HD
ATOM     50  H   UNL     1      -3.091  12.601  24.828  0.00  0.00    +0.065 HD
ATOM     51  H   UNL     1      -3.185  11.547  22.577  0.00  0.00    +0.062 HD
ENDBRANCH  35  41
ENDBRANCH   2  28
TORSDOF 4
ENDMDL
MODEL 20
REMARK VINA RESULT:    -9.898      3.110      5.418
REMARK INTER + INTRA:          -8.211
REMARK INTER:                  -8.425
REMARK INTRA:                   0.214
REMARK UNBOUND:                 4.002
REMARK  Name = 
REMARK  4 active torsions:
REMARK  status: ('A' for Active; 'I' for Inactive)
REMARK    1  A    between atoms: C_2  and  C_3
REMARK    2  A    between atoms: C_2  and  C_20
REMARK    3  A    between atoms: C_10  and  C_11
REMARK    4  A    between atoms: C_21  and  C_22
REMARK                            x       y       z     vdW  Elec       q    Type
REMARK                         _______ _______ _______ _____ _____    ______ ____
ROOT
ATOM      1  O   UNL     1       1.882   8.662  17.090  0.00  0.00    -0.285 OA
ATOM      2  C   UNL     1       1.829   9.256  18.161  0.00  0.00    +0.212 C 
ENDROOT
BRANCH   2   3
ATOM      3  C   UNL     1       1.706   8.545  19.428  0.00  0.00    +0.057 A 
ATOM      4  C   UNL     1       2.142   7.250  19.703  0.00  0.00    +0.058 A 
ATOM      5  N   UNL     1       1.835   6.991  21.018  0.00  0.00    -0.354 N 
ATOM      6  C   UNL     1       1.182   8.055  21.591  0.00  0.00    +0.048 A 
ATOM      7  C   UNL     1       0.681   8.213  22.888  0.00  0.00    -0.037 A 
ATOM      8  C   UNL     1       0.044   9.419  23.194  0.00  0.00    -0.046 A 
ATOM      9  C   UNL     1      -0.084  10.419  22.234  0.00  0.00    +0.019 A 
ATOM     10 BR   UNL     1      -0.953  12.040  22.683  0.00  0.00    -0.050 Br
ATOM     11  C   UNL     1       0.419  10.249  20.942  0.00  0.00    -0.038 A 
ATOM     12  C   UNL     1       1.068   9.041  20.612  0.00  0.00    +0.012 A 
ATOM     13  H   UNL     1       2.031   6.118  21.490  0.00  0.00    +0.166 HD
ATOM     14  H   UNL     1       0.778   7.431  23.636  0.00  0.00    +0.064 HD
ATOM     15  H   UNL     1      -0.351   9.567  24.196  0.00  0.00    +0.063 HD
ATOM     16  H   UNL     1       0.313  11.031  20.195  0.00  0.00    +0.064 HD
BRANCH   4  17
ATOM     17  C   UNL     1       2.771   6.246  18.849  0.00  0.00    -0.001 A 
ATOM     18  C   UNL     1       4.131   6.338  18.525  0.00  0.00    -0.053 A 
ATOM     19  C   UNL     1       4.724   5.384  17.693  0.00  0.00    -0.061 A 
ATOM     20  C   UNL     1       3.965   4.329  17.189  0.00  0.00    -0.062 A 
ATOM     21  C   UNL     1       2.613   4.228  17.510  0.00  0.00    -0.061 A 
ATOM     22  C   UNL     1       2.017   5.183  18.336  0.00  0.00    -0.053 A 
ATOM     23  H   UNL     1       4.734   7.166  18.894  0.00  0.00    +0.062 HD
ATOM     24  H   UNL     1       5.775   5.470  17.427  0.00  0.00    +0.062 HD
ATOM     25  H   UNL     1       4.427   3.590  16.539  0.00  0.00    +0.062 HD
ATOM     26  H   UNL     1       2.022   3.405  17.117  0.00  0.00    +0.062 HD
ATOM     27  H   UNL     1       0.961   5.088  18.581  0.00  0.00    +0.062 HD
ENDBRANCH   4  17
ENDBRANCH   2   3
BRANCH   2  28
ATOM     28  C   UNL     1       1.838  10.707  18.228  0.00  0.00    +0.088 A 
ATOM     29  C   UNL     1       2.831  11.649  17.997  0.00  0.00    -0.020 A 
ATOM     30  C   UNL     1       2.276  12.929  18.228  0.00  0.00    +0.068 A 
ATOM     31  C   UNL     1       2.821  14.263  18.109  0.00  0.00    +0.274 A 
ATOM     32  O   UNL     1       3.976  14.496  17.767  0.00  0.00    -0.266 OA
ATOM     33  N   UNL     1       1.907  15.265  18.412  0.00  0.00    -0.242 N 
ATOM     34  N   UNL     1       0.598  15.096  18.840  0.00  0.00    -0.169 NA
ATOM     35  C   UNL     1       0.136  13.880  18.976  0.00  0.00    +0.115 A 
ATOM     36  C   UNL     1       0.974  12.754  18.639  0.00  0.00    +0.080 A 
ATOM     37  N   UNL     1       0.709  11.412  18.605  0.00  0.00    -0.350 N 
ATOM     38  H   UNL     1       3.849  11.447  17.686  0.00  0.00    +0.065 HD
ATOM     39  H   UNL     1       2.237  16.222  18.349  0.00  0.00    +0.192 HD
ATOM     40  H   UNL     1      -0.171  10.964  18.826  0.00  0.00    +0.166 HD
BRANCH  35  41
ATOM     41  C   UNL     1      -1.249  13.684  19.473  0.00  0.00    +0.004 A 
ATOM     42  C   UNL     1      -1.974  12.524  19.163  0.00  0.00    -0.050 A 
ATOM     43  C   UNL     1      -3.270  12.361  19.659  0.00  0.00    -0.026 A 
ATOM     44  C   UNL     1      -3.825  13.347  20.468  0.00  0.00    +0.123 A 
ATOM     45  F   UNL     1      -5.066  13.187  20.942  0.00  0.00    -0.205 F 
ATOM     46  C   UNL     1      -3.108  14.492  20.800  0.00  0.00    -0.026 A 
ATOM     47  C   UNL     1      -1.812  14.661  20.306  0.00  0.00    -0.050 A 
ATOM     48  H   UNL     1      -1.531  11.727  18.569  0.00  0.00    +0.062 HD
ATOM     49  H   UNL     1      -3.843  11.468  19.430  0.00  0.00    +0.065 HD
ATOM     50  H   UNL     1      -3.554  15.243  21.444  0.00  0.00    +0.065 HD
ATOM     51  H   UNL     1      -1.245  15.551  20.571  0.00  0.00    +0.062 HD
ENDBRANCH  35  41
ENDBRANCH   2  28
TORSDOF 4
ENDMDL
MODEL 21
REMARK VINA RESULT:    -9.875      4.647      9.510
REMARK INTER + INTRA:          -8.182
REMARK INTER:                  -6.632
REMARK INTRA:                  -1.551
REMARK UNBOUND:                 4.002
REMARK  Name = 
REMARK  4 active torsions:
REMARK  status: ('A' for Active; 'I' for Inactive)
REMARK    1  A    between atoms: C_2  and  C_3
REMARK    2  A    between atoms: C_2  and  C_20
REMARK    3  A    between atoms: C_10  and  C_11
REMARK    4  A    between atoms: C_21  and  C_22
REMARK                            x       y       z     vdW  Elec       q    Type
REMARK                         _______ _______ _______ _____ _____    ______ ____
ROOT
ATOM      1  O   UNL     1       2.257   7.504  17.336  0.00  0.00    -0.285 OA
ATOM      2  C   UNL     1       2.718   7.150  18.416  0.00  0.00    +0.212 C 
ENDROOT
BRANCH   2   3
ATOM      3  C   UNL     1       1.978   7.328  19.661  0.00  0.00    +0.057 A 
ATOM      4  C   UNL     1       1.582   6.326  20.544  0.00  0.00    +0.058 A 
ATOM      5  N   UNL     1       0.926   6.942  21.585  0.00  0.00    -0.354 N 
ATOM      6  C   UNL     1       0.850   8.299  21.386  0.00  0.00    +0.048 A 
ATOM      7  C   UNL     1       0.265   9.294  22.176  0.00  0.00    -0.037 A 
ATOM      8  C   UNL     1       0.333  10.612  21.714  0.00  0.00    -0.046 A 
ATOM      9  C   UNL     1       0.960  10.910  20.507  0.00  0.00    +0.019 A 
ATOM     10 BR   UNL     1       1.033  12.706  19.911  0.00  0.00    -0.050 Br
ATOM     11  C   UNL     1       1.540   9.907  19.726  0.00  0.00    -0.038 A 
ATOM     12  C   UNL     1       1.486   8.571  20.175  0.00  0.00    +0.012 A 
ATOM     13  H   UNL     1       0.521   6.455  22.373  0.00  0.00    +0.166 HD
ATOM     14  H   UNL     1      -0.227   9.060  23.116  0.00  0.00    +0.064 HD
ATOM     15  H   UNL     1      -0.113  11.403  22.311  0.00  0.00    +0.063 HD
ATOM     16  H   UNL     1       2.025  10.145  18.784  0.00  0.00    +0.064 HD
BRANCH   4  17
ATOM     17  C   UNL     1       1.726   4.874  20.480  0.00  0.00    -0.001 A 
ATOM     18  C   UNL     1       1.218   4.156  19.389  0.00  0.00    -0.053 A 
ATOM     19  C   UNL     1       1.343   2.765  19.340  0.00  0.00    -0.061 A 
ATOM     20  C   UNL     1       1.985   2.086  20.374  0.00  0.00    -0.062 A 
ATOM     21  C   UNL     1       2.498   2.793  21.460  0.00  0.00    -0.061 A 
ATOM     22  C   UNL     1       2.368   4.182  21.514  0.00  0.00    -0.053 A 
ATOM     23  H   UNL     1       0.697   4.669  18.583  0.00  0.00    +0.062 HD
ATOM     24  H   UNL     1       0.929   2.209  18.502  0.00  0.00    +0.062 HD
ATOM     25  H   UNL     1       2.079   1.003  20.337  0.00  0.00    +0.062 HD
ATOM     26  H   UNL     1       2.998   2.262  22.266  0.00  0.00    +0.062 HD
ATOM     27  H   UNL     1       2.777   4.720  22.367  0.00  0.00    +0.062 HD
ENDBRANCH   4  17
ENDBRANCH   2   3
BRANCH   2  28
ATOM     28  C   UNL     1       4.047   6.576  18.525  0.00  0.00    +0.088 A 
ATOM     29  C   UNL     1       5.009   6.626  19.525  0.00  0.00    -0.020 A 
ATOM     30  C   UNL     1       6.132   5.890  19.082  0.00  0.00    +0.068 A 
ATOM     31  C   UNL     1       7.396   5.571  19.708  0.00  0.00    +0.274 A 
ATOM     32  O   UNL     1       7.712   5.949  20.831  0.00  0.00    -0.266 OA
ATOM     33  N   UNL     1       8.224   4.782  18.917  0.00  0.00    -0.242 N 
ATOM     34  N   UNL     1       7.967   4.340  17.627  0.00  0.00    -0.169 NA
ATOM     35  C   UNL     1       6.832   4.670  17.065  0.00  0.00    +0.115 A 
ATOM     36  C   UNL     1       5.865   5.442  17.808  0.00  0.00    +0.080 A 
ATOM     37  N   UNL     1       4.593   5.834  17.493  0.00  0.00    -0.350 N 
ATOM     38  H   UNL     1       4.918   7.128  20.481  0.00  0.00    +0.065 HD
ATOM     39  H   UNL     1       9.127   4.531  19.305  0.00  0.00    +0.192 HD
ATOM     40  H   UNL     1       4.094   5.636  16.635  0.00  0.00    +0.166 HD
BRANCH  35  41
ATOM     41  C   UNL     1       6.563   4.237  15.671  0.00  0.00    +0.004 A 
ATOM     42  C   UNL     1       5.592   3.265  15.389  0.00  0.00    -0.050 A 
ATOM     43  C   UNL     1       5.349   2.890  14.065  0.00  0.00    -0.026 A 
ATOM     44  C   UNL     1       6.064   3.496  13.037  0.00  0.00    +0.123 A 
ATOM     45  F   UNL     1       5.828   3.135  11.770  0.00  0.00    -0.205 F 
ATOM     46  C   UNL     1       7.013   4.478  13.304  0.00  0.00    -0.026 A 
ATOM     47  C   UNL     1       7.261   4.856  14.625  0.00  0.00    -0.050 A 
ATOM     48  H   UNL     1       4.996   2.819  16.182  0.00  0.00    +0.062 HD
ATOM     49  H   UNL     1       4.599   2.141  13.829  0.00  0.00    +0.065 HD
ATOM     50  H   UNL     1       7.551   4.948  12.486  0.00  0.00    +0.065 HD
ATOM     51  H   UNL     1       7.997   5.629  14.836  0.00  0.00    +0.062 HD
ENDBRANCH  35  41
ENDBRANCH   2  28
TORSDOF 4
ENDMDL
