MODEL 1
REMARK VINA RESULT:    -8.246      0.000      0.000
REMARK INTER + INTRA:         -11.070
REMARK INTER:                 -10.455
REMARK INTRA:                  -0.615
REMARK UNBOUND:                -0.655
REMARK  Name = 
REMARK  5 active torsions:
REMARK  status: ('A' for Active; 'I' for Inactive)
REMARK    1  A    between atoms: C_1  and  S_2
REMARK    2  A    between atoms: S_2  and  N_5
REMARK    3  A    between atoms: N_5  and  C_6
REMARK    4  A    between atoms: C_10  and  C_11
REMARK    5  A    between atoms: C_16  and  C_17
REMARK                            x       y       z     vdW  Elec       q    Type
REMARK                         _______ _______ _______ _____ _____    ______ ____
ROOT
ATOM      1  C   UNL     1       1.604   9.301  18.616  0.00  0.00    +0.250 C 
ATOM      2  O   UNL     1       2.405   9.812  17.843  0.00  0.00    -0.270 OA
ATOM      3  N   UNL     1       1.656   8.043  19.169  0.00  0.00    -0.261 N 
ATOM      4  C   UNL     1       2.643   7.149  18.855  0.00  0.00    +0.165 A 
ATOM      5  N   UNL     1       3.622   7.259  17.999  0.00  0.00    -0.225 NA
ATOM      6  C   UNL     1       4.383   6.105  18.006  0.00  0.00    +0.082 A 
ATOM      7  C   UNL     1       3.945   5.130  18.883  0.00  0.00    +0.005 A 
ATOM      8  S   UNL     1       2.548   5.679  19.716  0.00  0.00    -0.060 S 
ATOM      9  H   UNL     1       1.007   7.752  19.882  0.00  0.00    +0.157 HD
ATOM     10  H   UNL     1       4.362   4.152  19.072  0.00  0.00    +0.072 HD
ENDROOT
BRANCH   6  11
ATOM     11  C   UNL     1       5.549   6.005  17.118  0.00  0.00    +0.026 A 
ATOM     12  C   UNL     1       6.775   6.613  17.301  0.00  0.00    +0.012 A 
ATOM     13  N   UNL     1       7.581   6.264  16.251  0.00  0.00    -0.360 N 
ATOM     14  C   UNL     1       6.905   5.440  15.383  0.00  0.00    +0.047 A 
ATOM     15  C   UNL     1       7.338   4.849  14.188  0.00  0.00    -0.038 A 
ATOM     16  C   UNL     1       6.431   4.045  13.493  0.00  0.00    -0.060 A 
ATOM     17  C   UNL     1       5.142   3.839  13.977  0.00  0.00    -0.061 A 
ATOM     18  C   UNL     1       4.727   4.436  15.174  0.00  0.00    -0.052 A 
ATOM     19  C   UNL     1       5.619   5.255  15.901  0.00  0.00    +0.009 A 
ATOM     20  H   UNL     1       7.147   7.262  18.083  0.00  0.00    +0.081 HD
ATOM     21  H   UNL     1       8.537   6.566  16.123  0.00  0.00    +0.165 HD
ATOM     22  H   UNL     1       8.341   5.008  13.808  0.00  0.00    +0.064 HD
ATOM     23  H   UNL     1       6.736   3.572  12.563  0.00  0.00    +0.062 HD
ATOM     24  H   UNL     1       4.448   3.210  13.428  0.00  0.00    +0.062 HD
ATOM     25  H   UNL     1       3.716   4.264  15.536  0.00  0.00    +0.062 HD
ENDBRANCH   6  11
BRANCH   1  30
ATOM     26  C   UNL     1      -1.511  11.410  18.443  0.00  0.00    +0.048 A 
ATOM     27  C   UNL     1      -1.761  11.670  19.789  0.00  0.00    -0.039 A 
ATOM     28  C   UNL     1      -0.918  11.148  20.773  0.00  0.00    -0.059 A 
ATOM     29  C   UNL     1       0.184  10.372  20.413  0.00  0.00    -0.050 A 
ATOM     30  C   UNL     1       0.450  10.131  19.058  0.00  0.00    +0.039 A 
ATOM     31  C   UNL     1      -0.406  10.645  18.074  0.00  0.00    -0.027 A 
ATOM     32  H   UNL     1      -2.611  12.280  20.087  0.00  0.00    +0.064 HD
ATOM     33  H   UNL     1      -1.134  11.341  21.823  0.00  0.00    +0.062 HD
ATOM     34  H   UNL     1       0.800   9.942  21.197  0.00  0.00    +0.063 HD
ATOM     35  H   UNL     1      -0.201  10.434  17.027  0.00  0.00    +0.064 HD
BRANCH  26  36
ATOM     36  N   UNL     1      -2.373  11.905  17.423  0.00  0.00    -0.221 N 
ATOM     37  H   UNL     1      -1.952  12.480  16.692  0.00  0.00    +0.173 HD
BRANCH  36  38
ATOM     38  S   UNL     1      -3.595  10.914  16.815  0.00  0.00    +0.040 S 
ATOM     39  O   UNL     1      -3.650   9.682  17.570  0.00  0.00    -0.155 OA
ATOM     40  O   UNL     1      -4.758  11.766  16.683  0.00  0.00    -0.155 OA
BRANCH  38  41
ATOM     41  C   UNL     1      -3.009  10.551  15.171  0.00  0.00    +0.074 C 
ATOM     42  H   UNL     1      -3.878  10.508  14.509  0.00  0.00    +0.048 HD
ATOM     43  H   UNL     1      -2.340  11.350  14.847  0.00  0.00    +0.048 HD
ATOM     44  H   UNL     1      -2.502   9.585  15.171  0.00  0.00    +0.048 HD
ENDBRANCH  38  41
ENDBRANCH  36  38
ENDBRANCH  26  36
ENDBRANCH   1  30
TORSDOF 5
ENDMDL
MODEL 2
REMARK VINA RESULT:    -8.146      1.033      1.184
REMARK INTER + INTRA:         -10.944
REMARK INTER:                 -10.343
REMARK INTRA:                  -0.601
REMARK UNBOUND:                -0.655
REMARK  Name = 
REMARK  5 active torsions:
REMARK  status: ('A' for Active; 'I' for Inactive)
REMARK    1  A    between atoms: C_1  and  S_2
REMARK    2  A    between atoms: S_2  and  N_5
REMARK    3  A    between atoms: N_5  and  C_6
REMARK    4  A    between atoms: C_10  and  C_11
REMARK    5  A    between atoms: C_16  and  C_17
REMARK                            x       y       z     vdW  Elec       q    Type
REMARK                         _______ _______ _______ _____ _____    ______ ____
ROOT
ATOM      1  C   UNL     1       2.095   8.426  18.366  0.00  0.00    +0.250 C 
ATOM      2  O   UNL     1       2.967   9.009  17.733  0.00  0.00    -0.270 OA
ATOM      3  N   UNL     1       1.991   7.075  18.603  0.00  0.00    -0.261 N 
ATOM      4  C   UNL     1       2.877   6.174  18.083  0.00  0.00    +0.165 A 
ATOM      5  N   UNL     1       3.883   6.368  17.274  0.00  0.00    -0.225 NA
ATOM      6  C   UNL     1       4.508   5.166  17.005  0.00  0.00    +0.082 A 
ATOM      7  C   UNL     1       3.941   4.068  17.626  0.00  0.00    +0.005 A 
ATOM      8  S   UNL     1       2.595   4.562  18.570  0.00  0.00    -0.060 S 
ATOM      9  H   UNL     1       1.296   6.701  19.230  0.00  0.00    +0.157 HD
ATOM     10  H   UNL     1       4.240   3.032  17.575  0.00  0.00    +0.072 HD
ENDROOT
BRANCH   6  11
ATOM     11  C   UNL     1       5.676   5.144  16.114  0.00  0.00    +0.026 A 
ATOM     12  C   UNL     1       6.930   5.649  16.394  0.00  0.00    +0.012 A 
ATOM     13  N   UNL     1       7.728   5.427  15.303  0.00  0.00    -0.360 N 
ATOM     14  C   UNL     1       7.019   4.787  14.314  0.00  0.00    +0.047 A 
ATOM     15  C   UNL     1       7.433   4.369  13.042  0.00  0.00    -0.038 A 
ATOM     16  C   UNL     1       6.492   3.734  12.228  0.00  0.00    -0.060 A 
ATOM     17  C   UNL     1       5.189   3.523  12.671  0.00  0.00    -0.061 A 
ATOM     18  C   UNL     1       4.794   3.946  13.945  0.00  0.00    -0.052 A 
ATOM     19  C   UNL     1       5.720   4.592  14.794  0.00  0.00    +0.009 A 
ATOM     20  H   UNL     1       7.328   6.146  17.268  0.00  0.00    +0.081 HD
ATOM     21  H   UNL     1       8.700   5.694  15.226  0.00  0.00    +0.165 HD
ATOM     22  H   UNL     1       8.447   4.531  12.694  0.00  0.00    +0.064 HD
ATOM     23  H   UNL     1       6.782   3.397  11.235  0.00  0.00    +0.062 HD
ATOM     24  H   UNL     1       4.469   3.027  12.028  0.00  0.00    +0.062 HD
ATOM     25  H   UNL     1       3.771   3.774  14.274  0.00  0.00    +0.062 HD
ENDBRANCH   6  11
BRANCH   1  30
ATOM     26  C   UNL     1      -0.830  10.775  18.701  0.00  0.00    +0.048 A 
ATOM     27  C   UNL     1      -1.013  10.815  20.082  0.00  0.00    -0.039 A 
ATOM     28  C   UNL     1      -0.188  10.065  20.922  0.00  0.00    -0.059 A 
ATOM     29  C   UNL     1       0.831   9.278  20.383  0.00  0.00    -0.050 A 
ATOM     30  C   UNL     1       1.032   9.256  18.996  0.00  0.00    +0.039 A 
ATOM     31  C   UNL     1       0.192   9.999  18.156  0.00  0.00    -0.027 A 
ATOM     32  H   UNL     1      -1.798  11.430  20.519  0.00  0.00    +0.064 HD
ATOM     33  H   UNL     1      -0.352  10.088  21.998  0.00  0.00    +0.062 HD
ATOM     34  H   UNL     1       1.433   8.670  21.054  0.00  0.00    +0.063 HD
ATOM     35  H   UNL     1       0.344   9.958  17.080  0.00  0.00    +0.064 HD
BRANCH  26  36
ATOM     36  N   UNL     1      -1.679  11.506  17.822  0.00  0.00    -0.221 N 
ATOM     37  H   UNL     1      -1.229  12.078  17.106  0.00  0.00    +0.173 HD
BRANCH  36  38
ATOM     38  S   UNL     1      -3.100  10.796  17.257  0.00  0.00    +0.040 S 
ATOM     39  O   UNL     1      -3.174   9.423  17.703  0.00  0.00    -0.155 OA
ATOM     40  O   UNL     1      -4.155  11.741  17.558  0.00  0.00    -0.155 OA
BRANCH  38  41
ATOM     41  C   UNL     1      -2.858  10.810  15.490  0.00  0.00    +0.074 C 
ATOM     42  H   UNL     1      -3.502  11.588  15.072  0.00  0.00    +0.048 HD
ATOM     43  H   UNL     1      -1.813  11.043  15.277  0.00  0.00    +0.048 HD
ATOM     44  H   UNL     1      -3.140   9.841  15.077  0.00  0.00    +0.048 HD
ENDBRANCH  38  41
ENDBRANCH  36  38
ENDBRANCH  26  36
ENDBRANCH   1  30
TORSDOF 5
ENDMDL
MODEL 3
REMARK VINA RESULT:    -7.855      3.048      9.209
REMARK INTER + INTRA:         -10.577
REMARK INTER:                 -10.136
REMARK INTRA:                  -0.441
REMARK UNBOUND:                -0.655
REMARK  Name = 
REMARK  5 active torsions:
REMARK  status: ('A' for Active; 'I' for Inactive)
REMARK    1  A    between atoms: C_1  and  S_2
REMARK    2  A    between atoms: S_2  and  N_5
REMARK    3  A    between atoms: N_5  and  C_6
REMARK    4  A    between atoms: C_10  and  C_11
REMARK    5  A    between atoms: C_16  and  C_17
REMARK                            x       y       z     vdW  Elec       q    Type
REMARK                         _______ _______ _______ _____ _____    ______ ____
ROOT
ATOM      1  C   UNL     1       2.511   7.632  18.327  0.00  0.00    +0.250 C 
ATOM      2  O   UNL     1       1.864   8.008  17.358  0.00  0.00    -0.270 OA
ATOM      3  N   UNL     1       2.273   7.905  19.654  0.00  0.00    -0.261 N 
ATOM      4  C   UNL     1       1.253   8.723  20.057  0.00  0.00    +0.165 A 
ATOM      5  N   UNL     1       0.403   9.406  19.341  0.00  0.00    -0.225 NA
ATOM      6  C   UNL     1      -0.458  10.100  20.170  0.00  0.00    +0.082 A 
ATOM      7  C   UNL     1      -0.226   9.922  21.521  0.00  0.00    +0.005 A 
ATOM      8  S   UNL     1       1.102   8.860  21.752  0.00  0.00    -0.060 S 
ATOM      9  H   UNL     1       2.797   7.458  20.388  0.00  0.00    +0.157 HD
ATOM     10  H   UNL     1      -0.753  10.351  22.361  0.00  0.00    +0.072 HD
ENDROOT
BRANCH   6  11
ATOM     11  C   UNL     1      -1.509  10.939  19.579  0.00  0.00    +0.026 A 
ATOM     12  C   UNL     1      -2.010  12.116  20.100  0.00  0.00    +0.012 A 
ATOM     13  N   UNL     1      -2.971  12.581  19.244  0.00  0.00    -0.360 N 
ATOM     14  C   UNL     1      -3.111  11.730  18.173  0.00  0.00    +0.047 A 
ATOM     15  C   UNL     1      -3.969  11.815  17.068  0.00  0.00    -0.038 A 
ATOM     16  C   UNL     1      -3.902  10.797  16.113  0.00  0.00    -0.060 A 
ATOM     17  C   UNL     1      -3.010   9.738  16.258  0.00  0.00    -0.061 A 
ATOM     18  C   UNL     1      -2.160   9.671  17.368  0.00  0.00    -0.052 A 
ATOM     19  C   UNL     1      -2.202  10.683  18.352  0.00  0.00    +0.009 A 
ATOM     20  H   UNL     1      -1.769  12.664  21.001  0.00  0.00    +0.081 HD
ATOM     21  H   UNL     1      -3.509  13.428  19.374  0.00  0.00    +0.165 HD
ATOM     22  H   UNL     1      -4.665  12.638  16.951  0.00  0.00    +0.064 HD
ATOM     23  H   UNL     1      -4.555  10.833  15.244  0.00  0.00    +0.062 HD
ATOM     24  H   UNL     1      -2.968   8.955  15.508  0.00  0.00    +0.062 HD
ATOM     25  H   UNL     1      -1.470   8.836  17.465  0.00  0.00    +0.062 HD
ENDBRANCH   6  11
BRANCH   1  30
ATOM     26  C   UNL     1       4.981   4.823  18.772  0.00  0.00    +0.048 A 
ATOM     27  C   UNL     1       5.808   4.987  17.662  0.00  0.00    -0.039 A 
ATOM     28  C   UNL     1       5.562   6.012  16.746  0.00  0.00    -0.059 A 
ATOM     29  C   UNL     1       4.491   6.885  16.944  0.00  0.00    -0.050 A 
ATOM     30  C   UNL     1       3.674   6.738  18.072  0.00  0.00    +0.039 A 
ATOM     31  C   UNL     1       3.916   5.698  18.981  0.00  0.00    -0.027 A 
ATOM     32  H   UNL     1       6.653   4.319  17.498  0.00  0.00    +0.064 HD
ATOM     33  H   UNL     1       6.202   6.118  15.872  0.00  0.00    +0.062 HD
ATOM     34  H   UNL     1       4.294   7.648  16.196  0.00  0.00    +0.063 HD
ATOM     35  H   UNL     1       3.263   5.581  19.843  0.00  0.00    +0.064 HD
BRANCH  26  36
ATOM     36  N   UNL     1       5.194   3.767  19.702  0.00  0.00    -0.221 N 
ATOM     37  H   UNL     1       5.439   4.027  20.658  0.00  0.00    +0.173 HD
BRANCH  36  38
ATOM     38  S   UNL     1       4.196   2.408  19.658  0.00  0.00    +0.040 S 
ATOM     39  O   UNL     1       3.643   2.247  18.332  0.00  0.00    -0.155 OA
ATOM     40  O   UNL     1       4.953   1.347  20.289  0.00  0.00    -0.155 OA
BRANCH  38  41
ATOM     41  C   UNL     1       2.882   2.864  20.774  0.00  0.00    +0.074 C 
ATOM     42  H   UNL     1       3.210   3.742  21.334  0.00  0.00    +0.048 HD
ATOM     43  H   UNL     1       1.991   3.109  20.193  0.00  0.00    +0.048 HD
ATOM     44  H   UNL     1       2.690   2.041  21.464  0.00  0.00    +0.048 HD
ENDBRANCH  38  41
ENDBRANCH  36  38
ENDBRANCH  26  36
ENDBRANCH   1  30
TORSDOF 5
ENDMDL
MODEL 4
REMARK VINA RESULT:    -7.798      3.427     10.030
REMARK INTER + INTRA:         -10.504
REMARK INTER:                 -10.225
REMARK INTRA:                  -0.279
REMARK UNBOUND:                -0.655
REMARK  Name = 
REMARK  5 active torsions:
REMARK  status: ('A' for Active; 'I' for Inactive)
REMARK    1  A    between atoms: C_1  and  S_2
REMARK    2  A    between atoms: S_2  and  N_5
REMARK    3  A    between atoms: N_5  and  C_6
REMARK    4  A    between atoms: C_10  and  C_11
REMARK    5  A    between atoms: C_16  and  C_17
REMARK                            x       y       z     vdW  Elec       q    Type
REMARK                         _______ _______ _______ _____ _____    ______ ____
ROOT
ATOM      1  C   UNL     1       2.012   6.543  19.365  0.00  0.00    +0.250 C 
ATOM      2  O   UNL     1       1.505   6.361  20.465  0.00  0.00    -0.270 OA
ATOM      3  N   UNL     1       2.087   7.721  18.659  0.00  0.00    -0.261 N 
ATOM      4  C   UNL     1       1.522   8.880  19.114  0.00  0.00    +0.165 A 
ATOM      5  N   UNL     1       0.804   9.091  20.183  0.00  0.00    -0.225 NA
ATOM      6  C   UNL     1       0.437  10.422  20.247  0.00  0.00    +0.082 A 
ATOM      7  C   UNL     1       0.894  11.197  19.197  0.00  0.00    +0.005 A 
ATOM      8  S   UNL     1       1.804  10.230  18.109  0.00  0.00    -0.060 S 
ATOM      9  H   UNL     1       2.622   7.794  17.809  0.00  0.00    +0.157 HD
ATOM     10  H   UNL     1       0.743  12.251  19.019  0.00  0.00    +0.072 HD
ENDROOT
BRANCH   6  11
ATOM     11  C   UNL     1      -0.377  10.892  21.376  0.00  0.00    +0.026 A 
ATOM     12  C   UNL     1      -0.217  10.546  22.703  0.00  0.00    +0.012 A 
ATOM     13  N   UNL     1      -1.176  11.200  23.428  0.00  0.00    -0.360 N 
ATOM     14  C   UNL     1      -1.962  11.968  22.601  0.00  0.00    +0.047 A 
ATOM     15  C   UNL     1      -3.050  12.794  22.912  0.00  0.00    -0.038 A 
ATOM     16  C   UNL     1      -3.676  13.468  21.861  0.00  0.00    -0.060 A 
ATOM     17  C   UNL     1      -3.229  13.322  20.551  0.00  0.00    -0.061 A 
ATOM     18  C   UNL     1      -2.139  12.493  20.259  0.00  0.00    -0.052 A 
ATOM     19  C   UNL     1      -1.483  11.797  21.298  0.00  0.00    +0.009 A 
ATOM     20  H   UNL     1       0.491   9.894  23.197  0.00  0.00    +0.081 HD
ATOM     21  H   UNL     1      -1.298  11.133  24.430  0.00  0.00    +0.165 HD
ATOM     22  H   UNL     1      -3.401  12.910  23.931  0.00  0.00    +0.064 HD
ATOM     23  H   UNL     1      -4.523  14.117  22.069  0.00  0.00    +0.062 HD
ATOM     24  H   UNL     1      -3.724  13.853  19.743  0.00  0.00    +0.062 HD
ATOM     25  H   UNL     1      -1.804  12.391  19.229  0.00  0.00    +0.062 HD
ENDBRANCH   6  11
BRANCH   1  30
ATOM     26  C   UNL     1       4.692   4.102  18.342  0.00  0.00    +0.048 A 
ATOM     27  C   UNL     1       3.979   3.203  17.552  0.00  0.00    -0.039 A 
ATOM     28  C   UNL     1       2.608   3.376  17.352  0.00  0.00    -0.059 A 
ATOM     29  C   UNL     1       1.946   4.458  17.935  0.00  0.00    -0.050 A 
ATOM     30  C   UNL     1       2.667   5.378  18.709  0.00  0.00    +0.039 A 
ATOM     31  C   UNL     1       4.040   5.191  18.919  0.00  0.00    -0.027 A 
ATOM     32  H   UNL     1       4.481   2.358  17.084  0.00  0.00    +0.064 HD
ATOM     33  H   UNL     1       2.057   2.657  16.749  0.00  0.00    +0.062 HD
ATOM     34  H   UNL     1       0.872   4.549  17.800  0.00  0.00    +0.063 HD
ATOM     35  H   UNL     1       4.585   5.899  19.539  0.00  0.00    +0.064 HD
BRANCH  26  36
ATOM     36  N   UNL     1       6.084   3.928  18.586  0.00  0.00    -0.221 N 
ATOM     37  H   UNL     1       6.417   2.975  18.735  0.00  0.00    +0.173 HD
BRANCH  36  38
ATOM     38  S   UNL     1       7.200   4.856  17.728  0.00  0.00    +0.040 S 
ATOM     39  O   UNL     1       6.938   6.262  17.941  0.00  0.00    -0.155 OA
ATOM     40  O   UNL     1       8.495   4.281  18.025  0.00  0.00    -0.155 OA
BRANCH  38  41
ATOM     41  C   UNL     1       6.811   4.452  16.035  0.00  0.00    +0.074 C 
ATOM     42  H   UNL     1       6.210   5.268  15.627  0.00  0.00    +0.048 HD
ATOM     43  H   UNL     1       7.740   4.361  15.469  0.00  0.00    +0.048 HD
ATOM     44  H   UNL     1       6.237   3.525  16.006  0.00  0.00    +0.048 HD
ENDBRANCH  38  41
ENDBRANCH  36  38
ENDBRANCH  26  36
ENDBRANCH   1  30
TORSDOF 5
ENDMDL
MODEL 5
REMARK VINA RESULT:    -7.724      2.364      2.819
REMARK INTER + INTRA:         -10.412
REMARK INTER:                  -9.854
REMARK INTRA:                  -0.558
REMARK UNBOUND:                -0.655
REMARK  Name = 
REMARK  5 active torsions:
REMARK  status: ('A' for Active; 'I' for Inactive)
REMARK    1  A    between atoms: C_1  and  S_2
REMARK    2  A    between atoms: S_2  and  N_5
REMARK    3  A    between atoms: N_5  and  C_6
REMARK    4  A    between atoms: C_10  and  C_11
REMARK    5  A    between atoms: C_16  and  C_17
REMARK                            x       y       z     vdW  Elec       q    Type
REMARK                         _______ _______ _______ _____ _____    ______ ____
ROOT
ATOM      1  C   UNL     1       2.497   7.804  18.742  0.00  0.00    +0.250 C 
ATOM      2  O   UNL     1       3.310   8.486  18.131  0.00  0.00    -0.270 OA
ATOM      3  N   UNL     1       2.413   6.432  18.783  0.00  0.00    -0.261 N 
ATOM      4  C   UNL     1       3.249   5.629  18.057  0.00  0.00    +0.165 A 
ATOM      5  N   UNL     1       4.179   5.955  17.202  0.00  0.00    -0.225 NA
ATOM      6  C   UNL     1       4.776   4.814  16.701  0.00  0.00    +0.082 A 
ATOM      7  C   UNL     1       4.265   3.629  17.198  0.00  0.00    +0.005 A 
ATOM      8  S   UNL     1       3.009   3.960  18.320  0.00  0.00    -0.060 S 
ATOM      9  H   UNL     1       1.776   5.960  19.404  0.00  0.00    +0.157 HD
ATOM     10  H   UNL     1       4.558   2.616  16.966  0.00  0.00    +0.072 HD
ENDROOT
BRANCH   6  11
ATOM     11  C   UNL     1       5.861   4.940  15.718  0.00  0.00    +0.026 A 
ATOM     12  C   UNL     1       7.057   5.606  15.897  0.00  0.00    +0.012 A 
ATOM     13  N   UNL     1       7.785   5.484  14.744  0.00  0.00    -0.360 N 
ATOM     14  C   UNL     1       7.088   4.751  13.813  0.00  0.00    +0.047 A 
ATOM     15  C   UNL     1       7.448   4.384  12.510  0.00  0.00    -0.038 A 
ATOM     16  C   UNL     1       6.535   3.627  11.771  0.00  0.00    -0.060 A 
ATOM     17  C   UNL     1       5.311   3.251  12.317  0.00  0.00    -0.061 A 
ATOM     18  C   UNL     1       4.969   3.626  13.622  0.00  0.00    -0.052 A 
ATOM     19  C   UNL     1       5.869   4.392  14.396  0.00  0.00    +0.009 A 
ATOM     20  H   UNL     1       7.456   6.155  16.739  0.00  0.00    +0.081 HD
ATOM     21  H   UNL     1       8.705   5.875  14.590  0.00  0.00    +0.165 HD
ATOM     22  H   UNL     1       8.401   4.676  12.080  0.00  0.00    +0.064 HD
ATOM     23  H   UNL     1       6.785   3.326  10.756  0.00  0.00    +0.062 HD
ATOM     24  H   UNL     1       4.612   2.662  11.732  0.00  0.00    +0.062 HD
ATOM     25  H   UNL     1       4.008   3.323  14.032  0.00  0.00    +0.062 HD
ENDBRANCH   6  11
BRANCH   1  30
ATOM     26  C   UNL     1      -0.126  10.307  19.764  0.00  0.00    +0.048 A 
ATOM     27  C   UNL     1      -0.426   9.898  21.062  0.00  0.00    -0.039 A 
ATOM     28  C   UNL     1       0.218   8.791  21.617  0.00  0.00    -0.059 A 
ATOM     29  C   UNL     1       1.174   8.093  20.878  0.00  0.00    -0.050 A 
ATOM     30  C   UNL     1       1.495   8.517  19.581  0.00  0.00    +0.039 A 
ATOM     31  C   UNL     1       0.835   9.621  19.023  0.00  0.00    -0.027 A 
ATOM     32  H   UNL     1      -1.163  10.437  21.655  0.00  0.00    +0.064 HD
ATOM     33  H   UNL     1      -0.038   8.469  22.625  0.00  0.00    +0.062 HD
ATOM     34  H   UNL     1       1.631   7.209  21.315  0.00  0.00    +0.063 HD
ATOM     35  H   UNL     1       1.078   9.929  18.008  0.00  0.00    +0.064 HD
BRANCH  26  36
ATOM     36  N   UNL     1      -0.792  11.414  19.165  0.00  0.00    -0.221 N 
ATOM     37  H   UNL     1      -1.812  11.395  19.153  0.00  0.00    +0.173 HD
BRANCH  36  38
ATOM     38  S   UNL     1      -0.196  12.973  19.410  0.00  0.00    +0.040 S 
ATOM     39  O   UNL     1       1.016  12.918  20.196  0.00  0.00    -0.155 OA
ATOM     40  O   UNL     1      -0.218  13.607  18.108  0.00  0.00    -0.155 OA
BRANCH  38  41
ATOM     41  C   UNL     1      -1.482  13.723  20.391  0.00  0.00    +0.074 C 
ATOM     42  H   UNL     1      -2.279  12.986  20.517  0.00  0.00    +0.048 HD
ATOM     43  H   UNL     1      -1.073  13.992  21.367  0.00  0.00    +0.048 HD
ATOM     44  H   UNL     1      -1.872  14.599  19.870  0.00  0.00    +0.048 HD
ENDBRANCH  38  41
ENDBRANCH  36  38
ENDBRANCH  26  36
ENDBRANCH   1  30
TORSDOF 5
ENDMDL
MODEL 6
REMARK VINA RESULT:    -7.704      3.259      9.209
REMARK INTER + INTRA:         -10.385
REMARK INTER:                  -9.758
REMARK INTRA:                  -0.627
REMARK UNBOUND:                -0.655
REMARK  Name = 
REMARK  5 active torsions:
REMARK  status: ('A' for Active; 'I' for Inactive)
REMARK    1  A    between atoms: C_1  and  S_2
REMARK    2  A    between atoms: S_2  and  N_5
REMARK    3  A    between atoms: N_5  and  C_6
REMARK    4  A    between atoms: C_10  and  C_11
REMARK    5  A    between atoms: C_16  and  C_17
REMARK                            x       y       z     vdW  Elec       q    Type
REMARK                         _______ _______ _______ _____ _____    ______ ____
ROOT
ATOM      1  C   UNL     1       2.884   7.636  18.097  0.00  0.00    +0.250 C 
ATOM      2  O   UNL     1       2.655   8.519  17.279  0.00  0.00    -0.270 OA
ATOM      3  N   UNL     1       2.344   7.495  19.353  0.00  0.00    -0.261 N 
ATOM      4  C   UNL     1       1.476   8.412  19.880  0.00  0.00    +0.165 A 
ATOM      5  N   UNL     1       1.058   9.543  19.382  0.00  0.00    -0.225 NA
ATOM      6  C   UNL     1       0.185  10.150  20.264  0.00  0.00    +0.082 A 
ATOM      7  C   UNL     1      -0.034   9.448  21.435  0.00  0.00    +0.005 A 
ATOM      8  S   UNL     1       0.877   7.993  21.423  0.00  0.00    -0.060 S 
ATOM      9  H   UNL     1       2.511   6.673  19.911  0.00  0.00    +0.157 HD
ATOM     10  H   UNL     1      -0.664   9.708  22.273  0.00  0.00    +0.072 HD
ENDROOT
BRANCH   6  11
ATOM     11  C   UNL     1      -0.418  11.442  19.908  0.00  0.00    +0.026 A 
ATOM     12  C   UNL     1      -1.768  11.722  19.823  0.00  0.00    +0.012 A 
ATOM     13  N   UNL     1      -1.904  13.036  19.464  0.00  0.00    -0.360 N 
ATOM     14  C   UNL     1      -0.669  13.621  19.312  0.00  0.00    +0.047 A 
ATOM     15  C   UNL     1      -0.339  14.936  18.956  0.00  0.00    -0.038 A 
ATOM     16  C   UNL     1       1.015  15.267  18.873  0.00  0.00    -0.060 A 
ATOM     17  C   UNL     1       2.000  14.319  19.137  0.00  0.00    -0.061 A 
ATOM     18  C   UNL     1       1.651  13.010  19.492  0.00  0.00    -0.052 A 
ATOM     19  C   UNL     1       0.291  12.643  19.585  0.00  0.00    +0.009 A 
ATOM     20  H   UNL     1      -2.642  11.106  19.984  0.00  0.00    +0.081 HD
ATOM     21  H   UNL     1      -2.784  13.515  19.327  0.00  0.00    +0.165 HD
ATOM     22  H   UNL     1      -1.104  15.677  18.749  0.00  0.00    +0.064 HD
ATOM     23  H   UNL     1       1.305  16.279  18.599  0.00  0.00    +0.062 HD
ATOM     24  H   UNL     1       3.049  14.590  19.069  0.00  0.00    +0.062 HD
ATOM     25  H   UNL     1       2.435  12.283  19.694  0.00  0.00    +0.062 HD
ENDBRANCH   6  11
BRANCH   1  30
ATOM     26  C   UNL     1       4.641   4.305  18.066  0.00  0.00    +0.048 A 
ATOM     27  C   UNL     1       5.520   4.451  16.994  0.00  0.00    -0.039 A 
ATOM     28  C   UNL     1       5.542   5.638  16.259  0.00  0.00    -0.059 A 
ATOM     29  C   UNL     1       4.690   6.689  16.602  0.00  0.00    -0.050 A 
ATOM     30  C   UNL     1       3.823   6.553  17.694  0.00  0.00    +0.039 A 
ATOM     31  C   UNL     1       3.794   5.354  18.420  0.00  0.00    -0.027 A 
ATOM     32  H   UNL     1       6.197   3.644  16.720  0.00  0.00    +0.064 HD
ATOM     33  H   UNL     1       6.219   5.734  15.413  0.00  0.00    +0.062 HD
ATOM     34  H   UNL     1       4.695   7.587  15.989  0.00  0.00    +0.063 HD
ATOM     35  H   UNL     1       3.103   5.252  19.253  0.00  0.00    +0.064 HD
BRANCH  26  36
ATOM     36  N   UNL     1       4.578   3.092  18.810  0.00  0.00    -0.221 N 
ATOM     37  H   UNL     1       4.848   3.133  19.794  0.00  0.00    +0.173 HD
BRANCH  36  38
ATOM     38  S   UNL     1       3.298   2.026  18.553  0.00  0.00    +0.040 S 
ATOM     39  O   UNL     1       2.606   2.373  17.332  0.00  0.00    -0.155 OA
ATOM     40  O   UNL     1       3.848   0.701  18.752  0.00  0.00    -0.155 OA
BRANCH  38  41
ATOM     41  C   UNL     1       2.228   2.373  19.936  0.00  0.00    +0.074 C 
ATOM     42  H   UNL     1       2.791   2.174  20.851  0.00  0.00    +0.048 HD
ATOM     43  H   UNL     1       1.936   3.424  19.905  0.00  0.00    +0.048 HD
ATOM     44  H   UNL     1       1.356   1.719  19.894  0.00  0.00    +0.048 HD
ENDBRANCH  38  41
ENDBRANCH  36  38
ENDBRANCH  26  36
ENDBRANCH   1  30
TORSDOF 5
ENDMDL
MODEL 7
REMARK VINA RESULT:    -7.692      1.730      2.271
REMARK INTER + INTRA:         -10.370
REMARK INTER:                 -10.120
REMARK INTRA:                  -0.250
REMARK UNBOUND:                -0.655
REMARK  Name = 
REMARK  5 active torsions:
REMARK  status: ('A' for Active; 'I' for Inactive)
REMARK    1  A    between atoms: C_1  and  S_2
REMARK    2  A    between atoms: S_2  and  N_5
REMARK    3  A    between atoms: N_5  and  C_6
REMARK    4  A    between atoms: C_10  and  C_11
REMARK    5  A    between atoms: C_16  and  C_17
REMARK                            x       y       z     vdW  Elec       q    Type
REMARK                         _______ _______ _______ _____ _____    ______ ____
ROOT
ATOM      1  C   UNL     1       1.518   9.359  18.418  0.00  0.00    +0.250 C 
ATOM      2  O   UNL     1       2.159   9.145  17.396  0.00  0.00    -0.270 OA
ATOM      3  N   UNL     1       1.373   8.532  19.507  0.00  0.00    -0.261 N 
ATOM      4  C   UNL     1       1.919   7.279  19.549  0.00  0.00    +0.165 A 
ATOM      5  N   UNL     1       2.582   6.630  18.630  0.00  0.00    -0.225 NA
ATOM      6  C   UNL     1       2.946   5.385  19.106  0.00  0.00    +0.082 A 
ATOM      7  C   UNL     1       2.534   5.117  20.398  0.00  0.00    +0.005 A 
ATOM      8  S   UNL     1       1.672   6.462  21.027  0.00  0.00    -0.060 S 
ATOM      9  H   UNL     1       0.915   8.842  20.349  0.00  0.00    +0.157 HD
ATOM     10  H   UNL     1       2.690   4.226  20.988  0.00  0.00    +0.072 HD
ENDROOT
BRANCH   6  11
ATOM     11  C   UNL     1       3.709   4.476  18.239  0.00  0.00    +0.026 A 
ATOM     12  C   UNL     1       3.774   3.101  18.346  0.00  0.00    +0.012 A 
ATOM     13  N   UNL     1       4.589   2.639  17.348  0.00  0.00    -0.360 N 
ATOM     14  C   UNL     1       5.060   3.685  16.590  0.00  0.00    +0.047 A 
ATOM     15  C   UNL     1       5.913   3.673  15.479  0.00  0.00    -0.038 A 
ATOM     16  C   UNL     1       6.234   4.899  14.892  0.00  0.00    -0.060 A 
ATOM     17  C   UNL     1       5.720   6.090  15.397  0.00  0.00    -0.061 A 
ATOM     18  C   UNL     1       4.868   6.082  16.508  0.00  0.00    -0.052 A 
ATOM     19  C   UNL     1       4.523   4.860  17.125  0.00  0.00    +0.009 A 
ATOM     20  H   UNL     1       3.315   2.411  19.041  0.00  0.00    +0.081 HD
ATOM     21  H   UNL     1       4.819   1.667  17.185  0.00  0.00    +0.165 HD
ATOM     22  H   UNL     1       6.316   2.747  15.083  0.00  0.00    +0.064 HD
ATOM     23  H   UNL     1       6.895   4.924  14.028  0.00  0.00    +0.062 HD
ATOM     24  H   UNL     1       5.977   7.036  14.930  0.00  0.00    +0.062 HD
ATOM     25  H   UNL     1       4.476   7.023  16.889  0.00  0.00    +0.062 HD
ENDBRANCH   6  11
BRANCH   1  30
ATOM     26  C   UNL     1      -1.235  11.926  18.550  0.00  0.00    +0.048 A 
ATOM     27  C   UNL     1      -0.525  13.100  18.790  0.00  0.00    -0.039 A 
ATOM     28  C   UNL     1       0.865  13.067  18.923  0.00  0.00    -0.059 A 
ATOM     29  C   UNL     1       1.551  11.857  18.806  0.00  0.00    -0.050 A 
ATOM     30  C   UNL     1       0.841  10.679  18.540  0.00  0.00    +0.039 A 
ATOM     31  C   UNL     1      -0.556  10.715  18.422  0.00  0.00    -0.027 A 
ATOM     32  H   UNL     1      -1.044  14.053  18.875  0.00  0.00    +0.064 HD
ATOM     33  H   UNL     1       1.407  13.987  19.130  0.00  0.00    +0.062 HD
ATOM     34  H   UNL     1       2.627  11.850  18.956  0.00  0.00    +0.063 HD
ATOM     35  H   UNL     1      -1.099   9.791  18.236  0.00  0.00    +0.064 HD
BRANCH  26  36
ATOM     36  N   UNL     1      -2.655  11.930  18.441  0.00  0.00    -0.221 N 
ATOM     37  H   UNL     1      -3.135  12.811  18.626  0.00  0.00    +0.173 HD
BRANCH  36  38
ATOM     38  S   UNL     1      -3.396  11.060  17.201  0.00  0.00    +0.040 S 
ATOM     39  O   UNL     1      -2.679  11.263  15.962  0.00  0.00    -0.155 OA
ATOM     40  O   UNL     1      -3.611   9.730  17.734  0.00  0.00    -0.155 OA
BRANCH  38  41
ATOM     41  C   UNL     1      -4.989  11.851  17.078  0.00  0.00    +0.074 C 
ATOM     42  H   UNL     1      -5.738  11.154  17.461  0.00  0.00    +0.048 HD
ATOM     43  H   UNL     1      -4.984  12.757  17.687  0.00  0.00    +0.048 HD
ATOM     44  H   UNL     1      -5.201  12.078  16.032  0.00  0.00    +0.048 HD
ENDBRANCH  38  41
ENDBRANCH  36  38
ENDBRANCH  26  36
ENDBRANCH   1  30
TORSDOF 5
ENDMDL
MODEL 8
REMARK VINA RESULT:    -7.677      3.574      9.319
REMARK INTER + INTRA:         -10.352
REMARK INTER:                  -9.759
REMARK INTRA:                  -0.593
REMARK UNBOUND:                -0.655
REMARK  Name = 
REMARK  5 active torsions:
REMARK  status: ('A' for Active; 'I' for Inactive)
REMARK    1  A    between atoms: C_1  and  S_2
REMARK    2  A    between atoms: S_2  and  N_5
REMARK    3  A    between atoms: N_5  and  C_6
REMARK    4  A    between atoms: C_10  and  C_11
REMARK    5  A    between atoms: C_16  and  C_17
REMARK                            x       y       z     vdW  Elec       q    Type
REMARK                         _______ _______ _______ _____ _____    ______ ____
ROOT
ATOM      1  C   UNL     1       1.988   7.463  19.714  0.00  0.00    +0.250 C 
ATOM      2  O   UNL     1       2.000   8.159  18.706  0.00  0.00    -0.270 OA
ATOM      3  N   UNL     1       1.404   7.749  20.926  0.00  0.00    -0.261 N 
ATOM      4  C   UNL     1       0.777   8.940  21.169  0.00  0.00    +0.165 A 
ATOM      5  N   UNL     1       0.660   9.990  20.402  0.00  0.00    -0.225 NA
ATOM      6  C   UNL     1      -0.056  10.973  21.059  0.00  0.00    +0.082 A 
ATOM      7  C   UNL     1      -0.464  10.634  22.335  0.00  0.00    +0.005 A 
ATOM      8  S   UNL     1       0.063   9.045  22.715  0.00  0.00    -0.060 S 
ATOM      9  H   UNL     1       1.353   7.064  21.663  0.00  0.00    +0.157 HD
ATOM     10  H   UNL     1      -1.028  11.222  23.044  0.00  0.00    +0.072 HD
ENDROOT
BRANCH   6  11
ATOM     11  C   UNL     1      -0.316  12.250  20.380  0.00  0.00    +0.026 A 
ATOM     12  C   UNL     1      -1.549  12.839  20.185  0.00  0.00    +0.012 A 
ATOM     13  N   UNL     1      -1.353  14.016  19.515  0.00  0.00    -0.360 N 
ATOM     14  C   UNL     1      -0.014  14.209  19.266  0.00  0.00    +0.047 A 
ATOM     15  C   UNL     1       0.633  15.267  18.614  0.00  0.00    -0.038 A 
ATOM     16  C   UNL     1       2.024  15.207  18.499  0.00  0.00    -0.060 A 
ATOM     17  C   UNL     1       2.738  14.131  19.017  0.00  0.00    -0.061 A 
ATOM     18  C   UNL     1       2.075  13.083  19.666  0.00  0.00    -0.052 A 
ATOM     19  C   UNL     1       0.669  13.112  19.800  0.00  0.00    +0.009 A 
ATOM     20  H   UNL     1      -2.547  12.528  20.462  0.00  0.00    +0.081 HD
ATOM     21  H   UNL     1      -2.083  14.659  19.236  0.00  0.00    +0.165 HD
ATOM     22  H   UNL     1       0.080  16.107  18.209  0.00  0.00    +0.064 HD
ATOM     23  H   UNL     1       2.556  16.013  17.998  0.00  0.00    +0.062 HD
ATOM     24  H   UNL     1       3.819  14.097  18.921  0.00  0.00    +0.062 HD
ATOM     25  H   UNL     1       2.650  12.249  20.065  0.00  0.00    +0.062 HD
ENDBRANCH   6  11
BRANCH   1  30
ATOM     26  C   UNL     1       4.376   4.747  18.660  0.00  0.00    +0.048 A 
ATOM     27  C   UNL     1       3.953   3.671  19.439  0.00  0.00    -0.039 A 
ATOM     28  C   UNL     1       2.888   3.824  20.329  0.00  0.00    -0.059 A 
ATOM     29  C   UNL     1       2.234   5.052  20.435  0.00  0.00    -0.050 A 
ATOM     30  C   UNL     1       2.641   6.127  19.634  0.00  0.00    +0.039 A 
ATOM     31  C   UNL     1       3.720   5.974  18.753  0.00  0.00    -0.027 A 
ATOM     32  H   UNL     1       4.447   2.704  19.362  0.00  0.00    +0.064 HD
ATOM     33  H   UNL     1       2.579   2.982  20.947  0.00  0.00    +0.062 HD
ATOM     34  H   UNL     1       1.435   5.158  21.165  0.00  0.00    +0.063 HD
ATOM     35  H   UNL     1       4.041   6.821  18.151  0.00  0.00    +0.064 HD
BRANCH  26  36
ATOM     36  N   UNL     1       5.479   4.625  17.769  0.00  0.00    -0.221 N 
ATOM     37  H   UNL     1       5.297   4.774  16.775  0.00  0.00    +0.173 HD
BRANCH  36  38
ATOM     38  S   UNL     1       6.987   5.225  18.227  0.00  0.00    +0.040 S 
ATOM     39  O   UNL     1       7.001   5.485  19.649  0.00  0.00    -0.155 OA
ATOM     40  O   UNL     1       7.960   4.343  17.616  0.00  0.00    -0.155 OA
BRANCH  38  41
ATOM     41  C   UNL     1       7.059   6.781  17.360  0.00  0.00    +0.074 C 
ATOM     42  H   UNL     1       8.103   6.970  17.100  0.00  0.00    +0.048 HD
ATOM     43  H   UNL     1       6.460   6.709  16.450  0.00  0.00    +0.048 HD
ATOM     44  H   UNL     1       6.695   7.577  18.012  0.00  0.00    +0.048 HD
ENDBRANCH  38  41
ENDBRANCH  36  38
ENDBRANCH  26  36
ENDBRANCH   1  30
TORSDOF 5
ENDMDL
MODEL 9
REMARK VINA RESULT:    -7.659      3.558      9.757
REMARK INTER + INTRA:         -10.330
REMARK INTER:                  -9.966
REMARK INTRA:                  -0.363
REMARK UNBOUND:                -0.655
REMARK  Name = 
REMARK  5 active torsions:
REMARK  status: ('A' for Active; 'I' for Inactive)
REMARK    1  A    between atoms: C_1  and  S_2
REMARK    2  A    between atoms: S_2  and  N_5
REMARK    3  A    between atoms: N_5  and  C_6
REMARK    4  A    between atoms: C_10  and  C_11
REMARK    5  A    between atoms: C_16  and  C_17
REMARK                            x       y       z     vdW  Elec       q    Type
REMARK                         _______ _______ _______ _____ _____    ______ ____
ROOT
ATOM      1  C   UNL     1       2.267   5.975  19.642  0.00  0.00    +0.250 C 
ATOM      2  O   UNL     1       1.803   5.872  20.770  0.00  0.00    -0.270 OA
ATOM      3  N   UNL     1       2.297   7.095  18.845  0.00  0.00    -0.261 N 
ATOM      4  C   UNL     1       1.730   8.278  19.230  0.00  0.00    +0.165 A 
ATOM      5  N   UNL     1       1.046   8.562  20.305  0.00  0.00    -0.225 NA
ATOM      6  C   UNL     1       0.660   9.888  20.279  0.00  0.00    +0.082 A 
ATOM      7  C   UNL     1       1.066  10.586  19.157  0.00  0.00    +0.005 A 
ATOM      8  S   UNL     1       1.953   9.551  18.114  0.00  0.00    -0.060 S 
ATOM      9  H   UNL     1       2.801   7.110  17.973  0.00  0.00    +0.157 HD
ATOM     10  H   UNL     1       0.891  11.621  18.903  0.00  0.00    +0.072 HD
ENDROOT
BRANCH   6  11
ATOM     11  C   UNL     1      -0.121  10.433  21.398  0.00  0.00    +0.026 A 
ATOM     12  C   UNL     1      -0.045  10.042  22.720  0.00  0.00    +0.012 A 
ATOM     13  N   UNL     1      -0.935  10.796  23.435  0.00  0.00    -0.360 N 
ATOM     14  C   UNL     1      -1.595  11.673  22.607  0.00  0.00    +0.047 A 
ATOM     15  C   UNL     1      -2.580  12.623  22.909  0.00  0.00    -0.038 A 
ATOM     16  C   UNL     1      -3.086  13.392  21.859  0.00  0.00    -0.060 A 
ATOM     17  C   UNL     1      -2.623  13.218  20.558  0.00  0.00    -0.061 A 
ATOM     18  C   UNL     1      -1.637  12.266  20.274  0.00  0.00    -0.052 A 
ATOM     19  C   UNL     1      -1.104  11.471  21.313  0.00  0.00    +0.009 A 
ATOM     20  H   UNL     1       0.561   9.296  23.216  0.00  0.00    +0.081 HD
ATOM     21  H   UNL     1      -1.094  10.724  24.432  0.00  0.00    +0.165 HD
ATOM     22  H   UNL     1      -2.943  12.761  23.921  0.00  0.00    +0.064 HD
ATOM     23  H   UNL     1      -3.851  14.138  22.060  0.00  0.00    +0.062 HD
ATOM     24  H   UNL     1      -3.024  13.824  19.751  0.00  0.00    +0.062 HD
ATOM     25  H   UNL     1      -1.288  12.144  19.251  0.00  0.00    +0.062 HD
ENDBRANCH   6  11
BRANCH   1  30
ATOM     26  C   UNL     1       4.244   3.826  17.262  0.00  0.00    +0.048 A 
ATOM     27  C   UNL     1       4.202   2.583  17.891  0.00  0.00    -0.039 A 
ATOM     28  C   UNL     1       3.535   2.434  19.109  0.00  0.00    -0.059 A 
ATOM     29  C   UNL     1       2.898   3.527  19.697  0.00  0.00    -0.050 A 
ATOM     30  C   UNL     1       2.919   4.772  19.054  0.00  0.00    +0.039 A 
ATOM     31  C   UNL     1       3.602   4.921  17.839  0.00  0.00    -0.027 A 
ATOM     32  H   UNL     1       4.686   1.719  17.441  0.00  0.00    +0.064 HD
ATOM     33  H   UNL     1       3.525   1.463  19.600  0.00  0.00    +0.062 HD
ATOM     34  H   UNL     1       2.422   3.396  20.665  0.00  0.00    +0.063 HD
ATOM     35  H   UNL     1       3.628   5.896  17.359  0.00  0.00    +0.064 HD
BRANCH  26  36
ATOM     36  N   UNL     1       4.944   4.010  16.036  0.00  0.00    -0.221 N 
ATOM     37  H   UNL     1       4.384   4.119  15.189  0.00  0.00    +0.173 HD
BRANCH  36  38
ATOM     38  S   UNL     1       6.324   4.980  16.005  0.00  0.00    +0.040 S 
ATOM     39  O   UNL     1       5.953   6.367  16.175  0.00  0.00    -0.155 OA
ATOM     40  O   UNL     1       7.269   4.341  16.897  0.00  0.00    -0.155 OA
BRANCH  38  41
ATOM     41  C   UNL     1       6.918   4.746  14.340  0.00  0.00    +0.074 C 
ATOM     42  H   UNL     1       7.399   5.675  14.025  0.00  0.00    +0.048 HD
ATOM     43  H   UNL     1       7.646   3.933  14.333  0.00  0.00    +0.048 HD
ATOM     44  H   UNL     1       6.075   4.530  13.681  0.00  0.00    +0.048 HD
ENDBRANCH  38  41
ENDBRANCH  36  38
ENDBRANCH  26  36
ENDBRANCH   1  30
TORSDOF 5
ENDMDL
MODEL 10
REMARK VINA RESULT:    -7.627      2.260      2.966
REMARK INTER + INTRA:         -10.289
REMARK INTER:                  -9.767
REMARK INTRA:                  -0.522
REMARK UNBOUND:                -0.655
REMARK  Name = 
REMARK  5 active torsions:
REMARK  status: ('A' for Active; 'I' for Inactive)
REMARK    1  A    between atoms: C_1  and  S_2
REMARK    2  A    between atoms: S_2  and  N_5
REMARK    3  A    between atoms: N_5  and  C_6
REMARK    4  A    between atoms: C_10  and  C_11
REMARK    5  A    between atoms: C_16  and  C_17
REMARK                            x       y       z     vdW  Elec       q    Type
REMARK                         _______ _______ _______ _____ _____    ______ ____
ROOT
ATOM      1  C   UNL     1       1.334   9.313  18.233  0.00  0.00    +0.250 C 
ATOM      2  O   UNL     1       2.120   9.773  17.415  0.00  0.00    -0.270 OA
ATOM      3  N   UNL     1       1.450   8.141  18.944  0.00  0.00    -0.261 N 
ATOM      4  C   UNL     1       2.498   7.282  18.765  0.00  0.00    +0.165 A 
ATOM      5  N   UNL     1       3.490   7.345  17.919  0.00  0.00    -0.225 NA
ATOM      6  C   UNL     1       4.321   6.254  18.088  0.00  0.00    +0.082 A 
ATOM      7  C   UNL     1       3.922   5.372  19.075  0.00  0.00    +0.005 A 
ATOM      8  S   UNL     1       2.473   5.929  19.806  0.00  0.00    -0.060 S 
ATOM      9  H   UNL     1       0.802   7.902  19.678  0.00  0.00    +0.157 HD
ATOM     10  H   UNL     1       4.395   4.455  19.394  0.00  0.00    +0.072 HD
ENDROOT
BRANCH   6  11
ATOM     11  C   UNL     1       5.514   6.118  17.240  0.00  0.00    +0.026 A 
ATOM     12  C   UNL     1       6.740   6.719  17.447  0.00  0.00    +0.012 A 
ATOM     13  N   UNL     1       7.575   6.333  16.433  0.00  0.00    -0.360 N 
ATOM     14  C   UNL     1       6.918   5.493  15.565  0.00  0.00    +0.047 A 
ATOM     15  C   UNL     1       7.382   4.866  14.401  0.00  0.00    -0.038 A 
ATOM     16  C   UNL     1       6.489   4.053  13.699  0.00  0.00    -0.060 A 
ATOM     17  C   UNL     1       5.184   3.873  14.147  0.00  0.00    -0.061 A 
ATOM     18  C   UNL     1       4.737   4.506  15.313  0.00  0.00    -0.052 A 
ATOM     19  C   UNL     1       5.615   5.335  16.046  0.00  0.00    +0.009 A 
ATOM     20  H   UNL     1       7.094   7.384  18.222  0.00  0.00    +0.081 HD
ATOM     21  H   UNL     1       8.538   6.622  16.328  0.00  0.00    +0.165 HD
ATOM     22  H   UNL     1       8.399   5.004  14.049  0.00  0.00    +0.064 HD
ATOM     23  H   UNL     1       6.819   3.552  12.792  0.00  0.00    +0.062 HD
ATOM     24  H   UNL     1       4.500   3.237  13.592  0.00  0.00    +0.062 HD
ATOM     25  H   UNL     1       3.713   4.354  15.647  0.00  0.00    +0.062 HD
ENDBRANCH   6  11
BRANCH   1  30
ATOM     26  C   UNL     1      -0.926  11.798  19.938  0.00  0.00    +0.048 A 
ATOM     27  C   UNL     1      -2.094  11.691  19.186  0.00  0.00    -0.039 A 
ATOM     28  C   UNL     1      -2.155  10.811  18.103  0.00  0.00    -0.059 A 
ATOM     29  C   UNL     1      -1.049  10.027  17.775  0.00  0.00    -0.050 A 
ATOM     30  C   UNL     1       0.119  10.116  18.545  0.00  0.00    +0.039 A 
ATOM     31  C   UNL     1       0.180  11.010  19.623  0.00  0.00    -0.027 A 
ATOM     32  H   UNL     1      -2.969  12.289  19.435  0.00  0.00    +0.064 HD
ATOM     33  H   UNL     1      -3.066  10.750  17.511  0.00  0.00    +0.062 HD
ATOM     34  H   UNL     1      -1.105   9.381  16.903  0.00  0.00    +0.063 HD
ATOM     35  H   UNL     1       1.098  11.086  20.201  0.00  0.00    +0.064 HD
BRANCH  26  36
ATOM     36  N   UNL     1      -0.829  12.710  21.027  0.00  0.00    -0.221 N 
ATOM     37  H   UNL     1      -0.860  13.707  20.807  0.00  0.00    +0.173 HD
BRANCH  36  38
ATOM     38  S   UNL     1      -1.623  12.363  22.474  0.00  0.00    +0.040 S 
ATOM     39  O   UNL     1      -3.052  12.333  22.256  0.00  0.00    -0.155 OA
ATOM     40  O   UNL     1      -0.926  11.225  23.037  0.00  0.00    -0.155 OA
BRANCH  38  41
ATOM     41  C   UNL     1      -1.227  13.782  23.478  0.00  0.00    +0.074 C 
ATOM     42  H   UNL     1      -0.986  14.609  22.805  0.00  0.00    +0.048 HD
ATOM     43  H   UNL     1      -2.096  14.043  24.084  0.00  0.00    +0.048 HD
ATOM     44  H   UNL     1      -0.362  13.555  24.102  0.00  0.00    +0.048 HD
ENDBRANCH  38  41
ENDBRANCH  36  38
ENDBRANCH  26  36
ENDBRANCH   1  30
TORSDOF 5
ENDMDL
MODEL 11
REMARK VINA RESULT:    -7.611      3.244      9.961
REMARK INTER + INTRA:         -10.268
REMARK INTER:                  -9.988
REMARK INTRA:                  -0.280
REMARK UNBOUND:                -0.655
REMARK  Name = 
REMARK  5 active torsions:
REMARK  status: ('A' for Active; 'I' for Inactive)
REMARK    1  A    between atoms: C_1  and  S_2
REMARK    2  A    between atoms: S_2  and  N_5
REMARK    3  A    between atoms: N_5  and  C_6
REMARK    4  A    between atoms: C_10  and  C_11
REMARK    5  A    between atoms: C_16  and  C_17
REMARK                            x       y       z     vdW  Elec       q    Type
REMARK                         _______ _______ _______ _____ _____    ______ ____
ROOT
ATOM      1  C   UNL     1       2.000   8.033  18.512  0.00  0.00    +0.250 C 
ATOM      2  O   UNL     1       1.349   8.671  17.694  0.00  0.00    -0.270 OA
ATOM      3  N   UNL     1       1.937   8.115  19.883  0.00  0.00    -0.261 N 
ATOM      4  C   UNL     1       1.127   9.013  20.523  0.00  0.00    +0.165 A 
ATOM      5  N   UNL     1       0.357   9.941  20.024  0.00  0.00    -0.225 NA
ATOM      6  C   UNL     1      -0.282  10.619  21.044  0.00  0.00    +0.082 A 
ATOM      7  C   UNL     1       0.034  10.180  22.316  0.00  0.00    +0.005 A 
ATOM      8  S   UNL     1       1.157   8.885  22.225  0.00  0.00    -0.060 S 
ATOM      9  H   UNL     1       2.433   7.469  20.475  0.00  0.00    +0.157 HD
ATOM     10  H   UNL     1      -0.327  10.543  23.267  0.00  0.00    +0.072 HD
ENDROOT
BRANCH   6  11
ATOM     11  C   UNL     1      -1.208  11.711  20.714  0.00  0.00    +0.026 A 
ATOM     12  C   UNL     1      -1.302  12.371  19.504  0.00  0.00    +0.012 A 
ATOM     13  N   UNL     1      -2.286  13.316  19.614  0.00  0.00    -0.360 N 
ATOM     14  C   UNL     1      -2.838  13.289  20.873  0.00  0.00    +0.047 A 
ATOM     15  C   UNL     1      -3.863  14.072  21.419  0.00  0.00    -0.038 A 
ATOM     16  C   UNL     1      -4.232  13.831  22.745  0.00  0.00    -0.060 A 
ATOM     17  C   UNL     1      -3.600  12.842  23.493  0.00  0.00    -0.061 A 
ATOM     18  C   UNL     1      -2.578  12.068  22.931  0.00  0.00    -0.052 A 
ATOM     19  C   UNL     1      -2.181  12.286  21.593  0.00  0.00    +0.009 A 
ATOM     20  H   UNL     1      -0.759  12.253  18.577  0.00  0.00    +0.081 HD
ATOM     21  H   UNL     1      -2.572  13.949  18.879  0.00  0.00    +0.165 HD
ATOM     22  H   UNL     1      -4.358  14.844  20.839  0.00  0.00    +0.064 HD
ATOM     23  H   UNL     1      -5.025  14.422  23.198  0.00  0.00    +0.062 HD
ATOM     24  H   UNL     1      -3.897  12.664  24.522  0.00  0.00    +0.062 HD
ATOM     25  H   UNL     1      -2.095  11.300  23.531  0.00  0.00    +0.062 HD
ENDBRANCH   6  11
BRANCH   1  30
ATOM     26  C   UNL     1       3.415   4.675  17.559  0.00  0.00    +0.048 A 
ATOM     27  C   UNL     1       4.644   5.026  17.003  0.00  0.00    -0.039 A 
ATOM     28  C   UNL     1       5.022   6.368  16.923  0.00  0.00    -0.059 A 
ATOM     29  C   UNL     1       4.174   7.365  17.408  0.00  0.00    -0.050 A 
ATOM     30  C   UNL     1       2.949   7.012  17.990  0.00  0.00    +0.039 A 
ATOM     31  C   UNL     1       2.568   5.665  18.056  0.00  0.00    -0.027 A 
ATOM     32  H   UNL     1       5.321   4.260  16.628  0.00  0.00    +0.064 HD
ATOM     33  H   UNL     1       5.975   6.632  16.469  0.00  0.00    +0.062 HD
ATOM     34  H   UNL     1       4.471   8.404  17.296  0.00  0.00    +0.063 HD
ATOM     35  H   UNL     1       1.605   5.404  18.490  0.00  0.00    +0.064 HD
BRANCH  26  36
ATOM     36  N   UNL     1       2.995   3.317  17.624  0.00  0.00    -0.221 N 
ATOM     37  H   UNL     1       3.021   2.777  16.758  0.00  0.00    +0.173 HD
BRANCH  36  38
ATOM     38  S   UNL     1       3.419   2.379  18.960  0.00  0.00    +0.040 S 
ATOM     39  O   UNL     1       3.679   1.019  18.544  0.00  0.00    -0.155 OA
ATOM     40  O   UNL     1       4.415   3.149  19.676  0.00  0.00    -0.155 OA
BRANCH  38  41
ATOM     41  C   UNL     1       1.925   2.403  19.933  0.00  0.00    +0.074 C 
ATOM     42  H   UNL     1       1.196   1.754  19.442  0.00  0.00    +0.048 HD
ATOM     43  H   UNL     1       2.145   2.020  20.932  0.00  0.00    +0.048 HD
ATOM     44  H   UNL     1       1.537   3.422  19.977  0.00  0.00    +0.048 HD
ENDBRANCH  38  41
ENDBRANCH  36  38
ENDBRANCH  26  36
ENDBRANCH   1  30
TORSDOF 5
ENDMDL
MODEL 12
REMARK VINA RESULT:    -7.482      3.652     10.300
REMARK INTER + INTRA:         -10.106
REMARK INTER:                  -9.730
REMARK INTRA:                  -0.376
REMARK UNBOUND:                -0.655
REMARK  Name = 
REMARK  5 active torsions:
REMARK  status: ('A' for Active; 'I' for Inactive)
REMARK    1  A    between atoms: C_1  and  S_2
REMARK    2  A    between atoms: S_2  and  N_5
REMARK    3  A    between atoms: N_5  and  C_6
REMARK    4  A    between atoms: C_10  and  C_11
REMARK    5  A    between atoms: C_16  and  C_17
REMARK                            x       y       z     vdW  Elec       q    Type
REMARK                         _______ _______ _______ _____ _____    ______ ____
ROOT
ATOM      1  C   UNL     1       1.416   8.746  19.381  0.00  0.00    +0.250 C 
ATOM      2  O   UNL     1       0.940   9.486  18.529  0.00  0.00    -0.270 OA
ATOM      3  N   UNL     1       1.154   8.741  20.731  0.00  0.00    -0.261 N 
ATOM      4  C   UNL     1       0.320   9.654  21.315  0.00  0.00    +0.165 A 
ATOM      5  N   UNL     1      -0.302  10.671  20.784  0.00  0.00    -0.225 NA
ATOM      6  C   UNL     1      -1.039  11.327  21.750  0.00  0.00    +0.082 A 
ATOM      7  C   UNL     1      -0.947  10.780  23.017  0.00  0.00    +0.005 A 
ATOM      8  S   UNL     1       0.087   9.411  22.988  0.00  0.00    -0.060 S 
ATOM      9  H   UNL     1       1.512   8.019  21.336  0.00  0.00    +0.157 HD
ATOM     10  H   UNL     1      -1.421  11.106  23.931  0.00  0.00    +0.072 HD
ENDROOT
BRANCH   6  11
ATOM     11  C   UNL     1      -1.830  12.508  21.376  0.00  0.00    +0.026 A 
ATOM     12  C   UNL     1      -1.631  13.312  20.272  0.00  0.00    +0.012 A 
ATOM     13  N   UNL     1      -2.580  14.299  20.292  0.00  0.00    -0.360 N 
ATOM     14  C   UNL     1      -3.396  14.156  21.389  0.00  0.00    +0.047 A 
ATOM     15  C   UNL     1      -4.487  14.932  21.801  0.00  0.00    -0.038 A 
ATOM     16  C   UNL     1      -5.147  14.557  22.974  0.00  0.00    -0.060 A 
ATOM     17  C   UNL     1      -4.731  13.448  23.704  0.00  0.00    -0.061 A 
ATOM     18  C   UNL     1      -3.639  12.683  23.277  0.00  0.00    -0.052 A 
ATOM     19  C   UNL     1      -2.950  13.034  22.095  0.00  0.00    +0.009 A 
ATOM     20  H   UNL     1      -0.901  13.273  19.474  0.00  0.00    +0.081 HD
ATOM     21  H   UNL     1      -2.674  15.033  19.602  0.00  0.00    +0.165 HD
ATOM     22  H   UNL     1      -4.814  15.798  21.235  0.00  0.00    +0.064 HD
ATOM     23  H   UNL     1      -5.998  15.139  23.321  0.00  0.00    +0.062 HD
ATOM     24  H   UNL     1      -5.254  13.167  24.614  0.00  0.00    +0.062 HD
ATOM     25  H   UNL     1      -3.329  11.819  23.861  0.00  0.00    +0.062 HD
ENDBRANCH   6  11
BRANCH   1  30
ATOM     26  C   UNL     1       3.298   5.485  19.270  0.00  0.00    +0.048 A 
ATOM     27  C   UNL     1       4.078   5.640  18.125  0.00  0.00    -0.039 A 
ATOM     28  C   UNL     1       3.990   6.809  17.367  0.00  0.00    -0.059 A 
ATOM     29  C   UNL     1       3.128   7.834  17.759  0.00  0.00    -0.050 A 
ATOM     30  C   UNL     1       2.361   7.691  18.923  0.00  0.00    +0.039 A 
ATOM     31  C   UNL     1       2.442   6.509  19.673  0.00  0.00    -0.027 A 
ATOM     32  H   UNL     1       4.762   4.853  17.811  0.00  0.00    +0.064 HD
ATOM     33  H   UNL     1       4.590   6.911  16.465  0.00  0.00    +0.062 HD
ATOM     34  H   UNL     1       3.045   8.717  17.130  0.00  0.00    +0.063 HD
ATOM     35  H   UNL     1       1.827   6.400  20.563  0.00  0.00    +0.064 HD
BRANCH  26  36
ATOM     36  N   UNL     1       3.347   4.289  20.041  0.00  0.00    -0.221 N 
ATOM     37  H   UNL     1       3.477   4.388  21.049  0.00  0.00    +0.173 HD
BRANCH  36  38
ATOM     38  S   UNL     1       2.310   3.015  19.663  0.00  0.00    +0.040 S 
ATOM     39  O   UNL     1       1.246   3.484  18.805  0.00  0.00    -0.155 OA
ATOM     40  O   UNL     1       3.169   1.919  19.263  0.00  0.00    -0.155 OA
BRANCH  38  41
ATOM     41  C   UNL     1       1.620   2.599  21.254  0.00  0.00    +0.074 C 
ATOM     42  H   UNL     1       1.593   1.509  21.331  0.00  0.00    +0.048 HD
ATOM     43  H   UNL     1       2.262   3.007  22.037  0.00  0.00    +0.048 HD
ATOM     44  H   UNL     1       0.607   2.995  21.325  0.00  0.00    +0.048 HD
ENDBRANCH  38  41
ENDBRANCH  36  38
ENDBRANCH  26  36
ENDBRANCH   1  30
TORSDOF 5
ENDMDL
MODEL 13
REMARK VINA RESULT:    -7.422      2.689      3.373
REMARK INTER + INTRA:         -10.030
REMARK INTER:                  -9.551
REMARK INTRA:                  -0.479
REMARK UNBOUND:                -0.655
REMARK  Name = 
REMARK  5 active torsions:
REMARK  status: ('A' for Active; 'I' for Inactive)
REMARK    1  A    between atoms: C_1  and  S_2
REMARK    2  A    between atoms: S_2  and  N_5
REMARK    3  A    between atoms: N_5  and  C_6
REMARK    4  A    between atoms: C_10  and  C_11
REMARK    5  A    between atoms: C_16  and  C_17
REMARK                            x       y       z     vdW  Elec       q    Type
REMARK                         _______ _______ _______ _____ _____    ______ ____
ROOT
ATOM      1  C   UNL     1       1.535   7.904  20.382  0.00  0.00    +0.250 C 
ATOM      2  O   UNL     1       2.207   8.261  19.423  0.00  0.00    -0.270 OA
ATOM      3  N   UNL     1       1.469   6.650  20.942  0.00  0.00    -0.261 N 
ATOM      4  C   UNL     1       2.150   5.584  20.423  0.00  0.00    +0.165 A 
ATOM      5  N   UNL     1       2.891   5.513  19.351  0.00  0.00    -0.225 NA
ATOM      6  C   UNL     1       3.385   4.231  19.206  0.00  0.00    +0.082 A 
ATOM      7  C   UNL     1       2.990   3.345  20.191  0.00  0.00    +0.005 A 
ATOM      8  S   UNL     1       1.977   4.144  21.323  0.00  0.00    -0.060 S 
ATOM      9  H   UNL     1       0.970   6.480  21.801  0.00  0.00    +0.157 HD
ATOM     10  H   UNL     1       3.236   2.299  20.300  0.00  0.00    +0.072 HD
ENDROOT
BRANCH   6  11
ATOM     11  C   UNL     1       4.254   3.917  18.063  0.00  0.00    +0.026 A 
ATOM     12  C   UNL     1       4.231   2.762  17.307  0.00  0.00    +0.012 A 
ATOM     13  N   UNL     1       5.197   2.869  16.343  0.00  0.00    -0.360 N 
ATOM     14  C   UNL     1       5.854   4.072  16.455  0.00  0.00    +0.047 A 
ATOM     15  C   UNL     1       6.901   4.596  15.685  0.00  0.00    -0.038 A 
ATOM     16  C   UNL     1       7.387   5.861  16.023  0.00  0.00    -0.060 A 
ATOM     17  C   UNL     1       6.844   6.574  17.088  0.00  0.00    -0.061 A 
ATOM     18  C   UNL     1       5.797   6.036  17.845  0.00  0.00    -0.052 A 
ATOM     19  C   UNL     1       5.282   4.759  17.530  0.00  0.00    +0.009 A 
ATOM     20  H   UNL     1       3.616   1.875  17.367  0.00  0.00    +0.081 HD
ATOM     21  H   UNL     1       5.407   2.168  15.646  0.00  0.00    +0.165 HD
ATOM     22  H   UNL     1       7.327   4.043  14.855  0.00  0.00    +0.064 HD
ATOM     23  H   UNL     1       8.200   6.296  15.446  0.00  0.00    +0.062 HD
ATOM     24  H   UNL     1       7.231   7.558  17.339  0.00  0.00    +0.062 HD
ATOM     25  H   UNL     1       5.386   6.608  18.674  0.00  0.00    +0.062 HD
ENDBRANCH   6  11
BRANCH   1  30
ATOM     26  C   UNL     1      -0.674  10.914  20.879  0.00  0.00    +0.048 A 
ATOM     27  C   UNL     1      -0.872  10.904  22.258  0.00  0.00    -0.039 A 
ATOM     28  C   UNL     1      -0.295   9.904  23.044  0.00  0.00    -0.059 A 
ATOM     29  C   UNL     1       0.493   8.916  22.452  0.00  0.00    -0.050 A 
ATOM     30  C   UNL     1       0.714   8.939  21.069  0.00  0.00    +0.039 A 
ATOM     31  C   UNL     1       0.121   9.937  20.282  0.00  0.00    -0.027 A 
ATOM     32  H   UNL     1      -1.477  11.672  22.736  0.00  0.00    +0.064 HD
ATOM     33  H   UNL     1      -0.473   9.894  24.118  0.00  0.00    +0.062 HD
ATOM     34  H   UNL     1       0.897   8.124  23.078  0.00  0.00    +0.063 HD
ATOM     35  H   UNL     1       0.282   9.933  19.207  0.00  0.00    +0.064 HD
BRANCH  26  36
ATOM     36  N   UNL     1      -1.277  11.905  20.053  0.00  0.00    -0.221 N 
ATOM     37  H   UNL     1      -2.252  12.142  20.243  0.00  0.00    +0.173 HD
BRANCH  36  38
ATOM     38  S   UNL     1      -0.383  13.257  19.589  0.00  0.00    +0.040 S 
ATOM     39  O   UNL     1       0.925  13.216  20.205  0.00  0.00    -0.155 OA
ATOM     40  O   UNL     1      -0.533  13.349  18.152  0.00  0.00    -0.155 OA
BRANCH  38  41
ATOM     41  C   UNL     1      -1.313  14.597  20.310  0.00  0.00    +0.074 C 
ATOM     42  H   UNL     1      -0.970  14.724  21.340  0.00  0.00    +0.048 HD
ATOM     43  H   UNL     1      -1.119  15.509  19.743  0.00  0.00    +0.048 HD
ATOM     44  H   UNL     1      -2.374  14.345  20.306  0.00  0.00    +0.048 HD
ENDBRANCH  38  41
ENDBRANCH  36  38
ENDBRANCH  26  36
ENDBRANCH   1  30
TORSDOF 5
ENDMDL
MODEL 14
REMARK VINA RESULT:    -7.372      3.463      9.916
REMARK INTER + INTRA:          -9.967
REMARK INTER:                  -9.624
REMARK INTRA:                  -0.343
REMARK UNBOUND:                -0.655
REMARK  Name = 
REMARK  5 active torsions:
REMARK  status: ('A' for Active; 'I' for Inactive)
REMARK    1  A    between atoms: C_1  and  S_2
REMARK    2  A    between atoms: S_2  and  N_5
REMARK    3  A    between atoms: N_5  and  C_6
REMARK    4  A    between atoms: C_10  and  C_11
REMARK    5  A    between atoms: C_16  and  C_17
REMARK                            x       y       z     vdW  Elec       q    Type
REMARK                         _______ _______ _______ _____ _____    ______ ____
ROOT
ATOM      1  C   UNL     1       2.398   7.656  18.861  0.00  0.00    +0.250 C 
ATOM      2  O   UNL     1       1.899   7.250  19.903  0.00  0.00    -0.270 OA
ATOM      3  N   UNL     1       2.324   8.924  18.333  0.00  0.00    -0.261 N 
ATOM      4  C   UNL     1       1.597   9.918  18.926  0.00  0.00    +0.165 A 
ATOM      5  N   UNL     1       0.836   9.874  19.985  0.00  0.00    -0.225 NA
ATOM      6  C   UNL     1       0.289  11.120  20.223  0.00  0.00    +0.082 A 
ATOM      7  C   UNL     1       0.655  12.094  19.313  0.00  0.00    +0.005 A 
ATOM      8  S   UNL     1       1.710  11.427  18.135  0.00  0.00    -0.060 S 
ATOM      9  H   UNL     1       2.861   9.191  17.524  0.00  0.00    +0.157 HD
ATOM     10  H   UNL     1       0.364  13.134  19.281  0.00  0.00    +0.072 HD
ENDROOT
BRANCH   6  11
ATOM     11  C   UNL     1      -0.604  11.308  21.375  0.00  0.00    +0.026 A 
ATOM     12  C   UNL     1      -0.437  10.775  22.638  0.00  0.00    +0.012 A 
ATOM     13  N   UNL     1      -1.486  11.191  23.413  0.00  0.00    -0.360 N 
ATOM     14  C   UNL     1      -2.337  11.985  22.681  0.00  0.00    +0.047 A 
ATOM     15  C   UNL     1      -3.524  12.621  23.069  0.00  0.00    -0.038 A 
ATOM     16  C   UNL     1      -4.201  13.378  22.109  0.00  0.00    -0.060 A 
ATOM     17  C   UNL     1      -3.706  13.494  20.813  0.00  0.00    -0.061 A 
ATOM     18  C   UNL     1      -2.518  12.853  20.444  0.00  0.00    -0.052 A 
ATOM     19  C   UNL     1      -1.809  12.080  21.390  0.00  0.00    +0.009 A 
ATOM     20  H   UNL     1       0.331  10.138  23.055  0.00  0.00    +0.081 HD
ATOM     21  H   UNL     1      -1.624  10.951  24.386  0.00  0.00    +0.165 HD
ATOM     22  H   UNL     1      -3.913  12.532  24.078  0.00  0.00    +0.064 HD
ATOM     23  H   UNL     1      -5.125  13.883  22.378  0.00  0.00    +0.062 HD
ATOM     24  H   UNL     1      -4.242  14.087  20.077  0.00  0.00    +0.062 HD
ATOM     25  H   UNL     1      -2.147  12.955  19.426  0.00  0.00    +0.062 HD
ENDBRANCH   6  11
BRANCH   1  30
ATOM     26  C   UNL     1       3.607   4.407  17.389  0.00  0.00    +0.048 A 
ATOM     27  C   UNL     1       4.678   4.826  16.602  0.00  0.00    -0.039 A 
ATOM     28  C   UNL     1       5.012   6.180  16.532  0.00  0.00    -0.059 A 
ATOM     29  C   UNL     1       4.281   7.120  17.260  0.00  0.00    -0.050 A 
ATOM     30  C   UNL     1       3.220   6.697  18.072  0.00  0.00    +0.039 A 
ATOM     31  C   UNL     1       2.879   5.338  18.128  0.00  0.00    -0.027 A 
ATOM     32  H   UNL     1       5.263   4.105  16.034  0.00  0.00    +0.064 HD
ATOM     33  H   UNL     1       5.837   6.498  15.899  0.00  0.00    +0.062 HD
ATOM     34  H   UNL     1       4.532   8.172  17.158  0.00  0.00    +0.063 HD
ATOM     35  H   UNL     1       2.041   5.024  18.745  0.00  0.00    +0.064 HD
BRANCH  26  36
ATOM     36  N   UNL     1       3.229   3.036  17.451  0.00  0.00    -0.221 N 
ATOM     37  H   UNL     1       3.370   2.473  16.612  0.00  0.00    +0.173 HD
BRANCH  36  38
ATOM     38  S   UNL     1       3.531   2.153  18.857  0.00  0.00    +0.040 S 
ATOM     39  O   UNL     1       3.856   0.786  18.518  0.00  0.00    -0.155 OA
ATOM     40  O   UNL     1       4.435   2.968  19.641  0.00  0.00    -0.155 OA
BRANCH  38  41
ATOM     41  C   UNL     1       1.945   2.179  19.672  0.00  0.00    +0.074 C 
ATOM     42  H   UNL     1       2.123   2.130  20.749  0.00  0.00    +0.048 HD
ATOM     43  H   UNL     1       1.434   3.111  19.426  0.00  0.00    +0.048 HD
ATOM     44  H   UNL     1       1.362   1.312  19.358  0.00  0.00    +0.048 HD
ENDBRANCH  38  41
ENDBRANCH  36  38
ENDBRANCH  26  36
ENDBRANCH   1  30
TORSDOF 5
ENDMDL
MODEL 15
REMARK VINA RESULT:    -7.365      2.410      4.122
REMARK INTER + INTRA:          -9.958
REMARK INTER:                  -9.631
REMARK INTRA:                  -0.327
REMARK UNBOUND:                -0.655
REMARK  Name = 
REMARK  5 active torsions:
REMARK  status: ('A' for Active; 'I' for Inactive)
REMARK    1  A    between atoms: C_1  and  S_2
REMARK    2  A    between atoms: S_2  and  N_5
REMARK    3  A    between atoms: N_5  and  C_6
REMARK    4  A    between atoms: C_10  and  C_11
REMARK    5  A    between atoms: C_16  and  C_17
REMARK                            x       y       z     vdW  Elec       q    Type
REMARK                         _______ _______ _______ _____ _____    ______ ____
ROOT
ATOM      1  C   UNL     1       1.522   9.238  18.678  0.00  0.00    +0.250 C 
ATOM      2  O   UNL     1       1.132   8.513  19.585  0.00  0.00    -0.270 OA
ATOM      3  N   UNL     1       2.463   8.949  17.718  0.00  0.00    -0.261 N 
ATOM      4  C   UNL     1       3.147   7.765  17.701  0.00  0.00    +0.165 A 
ATOM      5  N   UNL     1       3.108   6.770  18.545  0.00  0.00    -0.225 NA
ATOM      6  C   UNL     1       3.972   5.773  18.135  0.00  0.00    +0.082 A 
ATOM      7  C   UNL     1       4.661   6.050  16.969  0.00  0.00    +0.005 A 
ATOM      8  S   UNL     1       4.210   7.596  16.377  0.00  0.00    -0.060 S 
ATOM      9  H   UNL     1       2.637   9.571  16.944  0.00  0.00    +0.157 HD
ATOM     10  H   UNL     1       5.386   5.440  16.450  0.00  0.00    +0.072 HD
ENDROOT
BRANCH   6  11
ATOM     11  C   UNL     1       4.090   4.547  18.936  0.00  0.00    +0.026 A 
ATOM     12  C   UNL     1       5.178   3.698  18.982  0.00  0.00    +0.012 A 
ATOM     13  N   UNL     1       4.882   2.679  19.847  0.00  0.00    -0.360 N 
ATOM     14  C   UNL     1       3.620   2.844  20.368  0.00  0.00    +0.047 A 
ATOM     15  C   UNL     1       2.918   2.048  21.282  0.00  0.00    -0.038 A 
ATOM     16  C   UNL     1       1.631   2.454  21.644  0.00  0.00    -0.060 A 
ATOM     17  C   UNL     1       1.071   3.612  21.112  0.00  0.00    -0.061 A 
ATOM     18  C   UNL     1       1.789   4.396  20.201  0.00  0.00    -0.052 A 
ATOM     19  C   UNL     1       3.092   4.014  19.814  0.00  0.00    +0.009 A 
ATOM     20  H   UNL     1       6.135   3.727  18.479  0.00  0.00    +0.081 HD
ATOM     21  H   UNL     1       5.498   1.910  20.076  0.00  0.00    +0.165 HD
ATOM     22  H   UNL     1       3.350   1.145  21.698  0.00  0.00    +0.064 HD
ATOM     23  H   UNL     1       1.059   1.858  22.351  0.00  0.00    +0.062 HD
ATOM     24  H   UNL     1       0.070   3.917  21.403  0.00  0.00    +0.062 HD
ATOM     25  H   UNL     1       1.335   5.298  19.796  0.00  0.00    +0.062 HD
ENDBRANCH   6  11
BRANCH   1  30
ATOM     26  C   UNL     1      -1.142  11.880  18.349  0.00  0.00    +0.048 A 
ATOM     27  C   UNL     1      -0.388  13.053  18.346  0.00  0.00    -0.039 A 
ATOM     28  C   UNL     1       1.002  12.995  18.463  0.00  0.00    -0.059 A 
ATOM     29  C   UNL     1       1.645  11.762  18.573  0.00  0.00    -0.050 A 
ATOM     30  C   UNL     1       0.891  10.580  18.551  0.00  0.00    +0.039 A 
ATOM     31  C   UNL     1      -0.506  10.644  18.448  0.00  0.00    -0.027 A 
ATOM     32  H   UNL     1      -0.874  14.023  18.252  0.00  0.00    +0.064 HD
ATOM     33  H   UNL     1       1.579  13.918  18.480  0.00  0.00    +0.062 HD
ATOM     34  H   UNL     1       2.724  11.744  18.706  0.00  0.00    +0.063 HD
ATOM     35  H   UNL     1      -1.082   9.722  18.453  0.00  0.00    +0.064 HD
BRANCH  26  36
ATOM     36  N   UNL     1      -2.563  11.915  18.262  0.00  0.00    -0.221 N 
ATOM     37  H   UNL     1      -3.018  12.819  18.399  0.00  0.00    +0.173 HD
BRANCH  36  38
ATOM     38  S   UNL     1      -3.346  10.989  17.091  0.00  0.00    +0.040 S 
ATOM     39  O   UNL     1      -2.651  11.103  15.828  0.00  0.00    -0.155 OA
ATOM     40  O   UNL     1      -3.579   9.699  17.706  0.00  0.00    -0.155 OA
BRANCH  38  41
ATOM     41  C   UNL     1      -4.925  11.807  16.950  0.00  0.00    +0.074 C 
ATOM     42  H   UNL     1      -5.408  11.769  17.930  0.00  0.00    +0.048 HD
ATOM     43  H   UNL     1      -4.762  12.846  16.659  0.00  0.00    +0.048 HD
ATOM     44  H   UNL     1      -5.541  11.282  16.219  0.00  0.00    +0.048 HD
ENDBRANCH  38  41
ENDBRANCH  36  38
ENDBRANCH  26  36
ENDBRANCH   1  30
TORSDOF 5
ENDMDL
MODEL 16
REMARK VINA RESULT:    -7.329      3.461      4.079
REMARK INTER + INTRA:          -9.912
REMARK INTER:                  -9.489
REMARK INTRA:                  -0.422
REMARK UNBOUND:                -0.655
REMARK  Name = 
REMARK  5 active torsions:
REMARK  status: ('A' for Active; 'I' for Inactive)
REMARK    1  A    between atoms: C_1  and  S_2
REMARK    2  A    between atoms: S_2  and  N_5
REMARK    3  A    between atoms: N_5  and  C_6
REMARK    4  A    between atoms: C_10  and  C_11
REMARK    5  A    between atoms: C_16  and  C_17
REMARK                            x       y       z     vdW  Elec       q    Type
REMARK                         _______ _______ _______ _____ _____    ______ ____
ROOT
ATOM      1  C   UNL     1       0.128   9.427  21.053  0.00  0.00    +0.250 C 
ATOM      2  O   UNL     1       0.159   8.383  21.692  0.00  0.00    -0.270 OA
ATOM      3  N   UNL     1       0.757   9.701  19.862  0.00  0.00    -0.261 N 
ATOM      4  C   UNL     1       1.582   8.799  19.249  0.00  0.00    +0.165 A 
ATOM      5  N   UNL     1       1.966   7.618  19.649  0.00  0.00    -0.225 NA
ATOM      6  C   UNL     1       2.807   7.054  18.709  0.00  0.00    +0.082 A 
ATOM      7  C   UNL     1       3.047   7.845  17.601  0.00  0.00    +0.005 A 
ATOM      8  S   UNL     1       2.194   9.328  17.746  0.00  0.00    -0.060 S 
ATOM      9  H   UNL     1       0.581  10.554  19.355  0.00  0.00    +0.157 HD
ATOM     10  H   UNL     1       3.662   7.634  16.739  0.00  0.00    +0.072 HD
ENDROOT
BRANCH   6  11
ATOM     11  C   UNL     1       3.362   5.714  18.949  0.00  0.00    +0.026 A 
ATOM     12  C   UNL     1       4.677   5.411  19.237  0.00  0.00    +0.012 A 
ATOM     13  N   UNL     1       4.773   4.053  19.388  0.00  0.00    -0.360 N 
ATOM     14  C   UNL     1       3.546   3.463  19.204  0.00  0.00    +0.047 A 
ATOM     15  C   UNL     1       3.184   2.110  19.265  0.00  0.00    -0.038 A 
ATOM     16  C   UNL     1       1.846   1.783  19.032  0.00  0.00    -0.060 A 
ATOM     17  C   UNL     1       0.907   2.772  18.750  0.00  0.00    -0.061 A 
ATOM     18  C   UNL     1       1.287   4.118  18.694  0.00  0.00    -0.052 A 
ATOM     19  C   UNL     1       2.631   4.483  18.925  0.00  0.00    +0.009 A 
ATOM     20  H   UNL     1       5.553   6.036  19.347  0.00  0.00    +0.081 HD
ATOM     21  H   UNL     1       5.623   3.549  19.604  0.00  0.00    +0.165 HD
ATOM     22  H   UNL     1       3.912   1.337  19.484  0.00  0.00    +0.064 HD
ATOM     23  H   UNL     1       1.533   0.743  19.072  0.00  0.00    +0.062 HD
ATOM     24  H   UNL     1      -0.130   2.504  18.572  0.00  0.00    +0.062 HD
ATOM     25  H   UNL     1       0.539   4.877  18.473  0.00  0.00    +0.062 HD
ENDBRANCH   6  11
BRANCH   1  30
ATOM     26  C   UNL     1      -2.248  12.349  21.117  0.00  0.00    +0.048 A 
ATOM     27  C   UNL     1      -2.356  12.605  22.482  0.00  0.00    -0.039 A 
ATOM     28  C   UNL     1      -1.660  11.818  23.402  0.00  0.00    -0.059 A 
ATOM     29  C   UNL     1      -0.846  10.776  22.958  0.00  0.00    -0.050 A 
ATOM     30  C   UNL     1      -0.717  10.532  21.583  0.00  0.00    +0.039 A 
ATOM     31  C   UNL     1      -1.428  11.316  20.664  0.00  0.00    -0.027 A 
ATOM     32  H   UNL     1      -2.980  13.420  22.845  0.00  0.00    +0.064 HD
ATOM     33  H   UNL     1      -1.767  12.014  24.467  0.00  0.00    +0.062 HD
ATOM     34  H   UNL     1      -0.348  10.150  23.694  0.00  0.00    +0.063 HD
ATOM     35  H   UNL     1      -1.337  11.105  19.601  0.00  0.00    +0.064 HD
BRANCH  26  36
ATOM     36  N   UNL     1      -2.972  13.118  20.162  0.00  0.00    -0.221 N 
ATOM     37  H   UNL     1      -2.545  13.245  19.243  0.00  0.00    +0.173 HD
BRANCH  36  38
ATOM     38  S   UNL     1      -4.647  12.950  20.057  0.00  0.00    +0.040 S 
ATOM     39  O   UNL     1      -5.145  12.263  21.227  0.00  0.00    -0.155 OA
ATOM     40  O   UNL     1      -5.147  14.257  19.684  0.00  0.00    -0.155 OA
BRANCH  38  41
ATOM     41  C   UNL     1      -4.836  11.882  18.642  0.00  0.00    +0.074 C 
ATOM     42  H   UNL     1      -4.439  10.900  18.910  0.00  0.00    +0.048 HD
ATOM     43  H   UNL     1      -5.897  11.797  18.401  0.00  0.00    +0.048 HD
ATOM     44  H   UNL     1      -4.270  12.288  17.802  0.00  0.00    +0.048 HD
ENDBRANCH  38  41
ENDBRANCH  36  38
ENDBRANCH  26  36
ENDBRANCH   1  30
TORSDOF 5
ENDMDL
MODEL 17
REMARK VINA RESULT:    -7.281      3.891     10.740
REMARK INTER + INTRA:          -9.851
REMARK INTER:                  -9.208
REMARK INTRA:                  -0.643
REMARK UNBOUND:                -0.655
REMARK  Name = 
REMARK  5 active torsions:
REMARK  status: ('A' for Active; 'I' for Inactive)
REMARK    1  A    between atoms: C_1  and  S_2
REMARK    2  A    between atoms: S_2  and  N_5
REMARK    3  A    between atoms: N_5  and  C_6
REMARK    4  A    between atoms: C_10  and  C_11
REMARK    5  A    between atoms: C_16  and  C_17
REMARK                            x       y       z     vdW  Elec       q    Type
REMARK                         _______ _______ _______ _____ _____    ______ ____
ROOT
ATOM      1  C   UNL     1       0.725   9.389  20.130  0.00  0.00    +0.250 C 
ATOM      2  O   UNL     1       0.401   9.177  21.292  0.00  0.00    -0.270 OA
ATOM      3  N   UNL     1       0.370  10.457  19.341  0.00  0.00    -0.261 N 
ATOM      4  C   UNL     1      -0.480  11.435  19.778  0.00  0.00    +0.165 A 
ATOM      5  N   UNL     1      -1.127  11.531  20.908  0.00  0.00    -0.225 NA
ATOM      6  C   UNL     1      -1.877  12.691  20.923  0.00  0.00    +0.082 A 
ATOM      7  C   UNL     1      -1.779  13.456  19.776  0.00  0.00    +0.005 A 
ATOM      8  S   UNL     1      -0.720  12.700  18.657  0.00  0.00    -0.060 S 
ATOM      9  H   UNL     1       0.777  10.601  18.430  0.00  0.00    +0.157 HD
ATOM     10  H   UNL     1      -2.262  14.394  19.544  0.00  0.00    +0.072 HD
ENDROOT
BRANCH   6  11
ATOM     11  C   UNL     1      -2.689  13.009  22.105  0.00  0.00    +0.026 A 
ATOM     12  C   UNL     1      -3.979  12.583  22.354  0.00  0.00    +0.012 A 
ATOM     13  N   UNL     1      -4.369  13.101  23.559  0.00  0.00    -0.360 N 
ATOM     14  C   UNL     1      -3.360  13.859  24.105  0.00  0.00    +0.047 A 
ATOM     15  C   UNL     1      -3.324  14.566  25.314  0.00  0.00    -0.038 A 
ATOM     16  C   UNL     1      -2.154  15.262  25.626  0.00  0.00    -0.060 A 
ATOM     17  C   UNL     1      -1.063  15.249  24.762  0.00  0.00    -0.061 A 
ATOM     18  C   UNL     1      -1.116  14.536  23.558  0.00  0.00    -0.052 A 
ATOM     19  C   UNL     1      -2.284  13.821  23.212  0.00  0.00    +0.009 A 
ATOM     20  H   UNL     1      -4.654  11.960  21.783  0.00  0.00    +0.081 HD
ATOM     21  H   UNL     1      -5.270  12.953  23.994  0.00  0.00    +0.165 HD
ATOM     22  H   UNL     1      -4.172  14.578  25.990  0.00  0.00    +0.064 HD
ATOM     23  H   UNL     1      -2.094  15.821  26.557  0.00  0.00    +0.062 HD
ATOM     24  H   UNL     1      -0.159  15.794  25.017  0.00  0.00    +0.062 HD
ATOM     25  H   UNL     1      -0.254  14.538  22.895  0.00  0.00    +0.062 HD
ENDBRANCH   6  11
BRANCH   1  30
ATOM     26  C   UNL     1       2.815   6.297  19.620  0.00  0.00    +0.048 A 
ATOM     27  C   UNL     1       3.330   6.503  18.342  0.00  0.00    -0.039 A 
ATOM     28  C   UNL     1       2.991   7.652  17.624  0.00  0.00    -0.059 A 
ATOM     29  C   UNL     1       2.142   8.605  18.188  0.00  0.00    -0.050 A 
ATOM     30  C   UNL     1       1.643   8.412  19.483  0.00  0.00    +0.039 A 
ATOM     31  C   UNL     1       1.975   7.250  20.195  0.00  0.00    -0.027 A 
ATOM     32  H   UNL     1       4.000   5.773  17.891  0.00  0.00    +0.064 HD
ATOM     33  H   UNL     1       3.383   7.792  16.619  0.00  0.00    +0.062 HD
ATOM     34  H   UNL     1       1.859   9.470  17.594  0.00  0.00    +0.063 HD
ATOM     35  H   UNL     1       1.566   7.101  21.191  0.00  0.00    +0.064 HD
BRANCH  26  36
ATOM     36  N   UNL     1       3.121   5.119  20.359  0.00  0.00    -0.221 N 
ATOM     37  H   UNL     1       3.211   5.212  21.372  0.00  0.00    +0.173 HD
BRANCH  36  38
ATOM     38  S   UNL     1       2.404   3.656  19.924  0.00  0.00    +0.040 S 
ATOM     39  O   UNL     1       1.128   3.903  19.291  0.00  0.00    -0.155 OA
ATOM     40  O   UNL     1       3.440   2.899  19.253  0.00  0.00    -0.155 OA
BRANCH  38  41
ATOM     41  C   UNL     1       2.118   2.885  21.506  0.00  0.00    +0.074 C 
ATOM     42  H   UNL     1       3.064   2.884  22.053  0.00  0.00    +0.048 HD
ATOM     43  H   UNL     1       1.376   3.467  22.056  0.00  0.00    +0.048 HD
ATOM     44  H   UNL     1       1.783   1.858  21.354  0.00  0.00    +0.048 HD
ENDBRANCH  38  41
ENDBRANCH  36  38
ENDBRANCH  26  36
ENDBRANCH   1  30
TORSDOF 5
ENDMDL
MODEL 18
REMARK VINA RESULT:    -7.257      2.444      3.056
REMARK INTER + INTRA:          -9.821
REMARK INTER:                  -9.470
REMARK INTRA:                  -0.351
REMARK UNBOUND:                -0.655
REMARK  Name = 
REMARK  5 active torsions:
REMARK  status: ('A' for Active; 'I' for Inactive)
REMARK    1  A    between atoms: C_1  and  S_2
REMARK    2  A    between atoms: S_2  and  N_5
REMARK    3  A    between atoms: N_5  and  C_6
REMARK    4  A    between atoms: C_10  and  C_11
REMARK    5  A    between atoms: C_16  and  C_17
REMARK                            x       y       z     vdW  Elec       q    Type
REMARK                         _______ _______ _______ _____ _____    ______ ____
ROOT
ATOM      1  C   UNL     1       1.601   9.899  18.558  0.00  0.00    +0.250 C 
ATOM      2  O   UNL     1       2.329   9.657  17.603  0.00  0.00    -0.270 OA
ATOM      3  N   UNL     1       1.289   9.069  19.608  0.00  0.00    -0.261 N 
ATOM      4  C   UNL     1       1.743   7.781  19.679  0.00  0.00    +0.165 A 
ATOM      5  N   UNL     1       2.453   7.101  18.820  0.00  0.00    -0.225 NA
ATOM      6  C   UNL     1       2.682   5.828  19.303  0.00  0.00    +0.082 A 
ATOM      7  C   UNL     1       2.121   5.570  20.540  0.00  0.00    +0.005 A 
ATOM      8  S   UNL     1       1.291   6.962  21.106  0.00  0.00    -0.060 S 
ATOM      9  H   UNL     1       0.769   9.398  20.406  0.00  0.00    +0.157 HD
ATOM     10  H   UNL     1       2.155   4.662  21.123  0.00  0.00    +0.072 HD
ENDROOT
BRANCH   6  11
ATOM     11  C   UNL     1       3.468   4.882  18.499  0.00  0.00    +0.026 A 
ATOM     12  C   UNL     1       3.580   3.522  18.709  0.00  0.00    +0.012 A 
ATOM     13  N   UNL     1       4.402   3.011  17.741  0.00  0.00    -0.360 N 
ATOM     14  C   UNL     1       4.833   4.012  16.902  0.00  0.00    +0.047 A 
ATOM     15  C   UNL     1       5.678   3.944  15.787  0.00  0.00    -0.038 A 
ATOM     16  C   UNL     1       5.954   5.132  15.106  0.00  0.00    -0.060 A 
ATOM     17  C   UNL     1       5.404   6.340  15.525  0.00  0.00    -0.061 A 
ATOM     18  C   UNL     1       4.561   6.389  16.641  0.00  0.00    -0.052 A 
ATOM     19  C   UNL     1       4.261   5.206  17.352  0.00  0.00    +0.009 A 
ATOM     20  H   UNL     1       3.149   2.871  19.458  0.00  0.00    +0.081 HD
ATOM     21  H   UNL     1       4.663   2.038  17.649  0.00  0.00    +0.165 HD
ATOM     22  H   UNL     1       6.109   3.005  15.457  0.00  0.00    +0.064 HD
ATOM     23  H   UNL     1       6.607   5.113  14.236  0.00  0.00    +0.062 HD
ATOM     24  H   UNL     1       5.627   7.256  14.986  0.00  0.00    +0.062 HD
ATOM     25  H   UNL     1       4.140   7.342  16.954  0.00  0.00    +0.062 HD
ENDBRANCH   6  11
BRANCH   1  30
ATOM     26  C   UNL     1      -0.981  12.616  18.930  0.00  0.00    +0.048 A 
ATOM     27  C   UNL     1      -0.204  13.769  18.837  0.00  0.00    -0.039 A 
ATOM     28  C   UNL     1       1.178  13.673  18.662  0.00  0.00    -0.059 A 
ATOM     29  C   UNL     1       1.787  12.421  18.570  0.00  0.00    -0.050 A 
ATOM     30  C   UNL     1       1.004  11.261  18.638  0.00  0.00    +0.039 A 
ATOM     31  C   UNL     1      -0.381  11.362  18.828  0.00  0.00    -0.027 A 
ATOM     32  H   UNL     1      -0.665  14.753  18.899  0.00  0.00    +0.064 HD
ATOM     33  H   UNL     1       1.777  14.580  18.610  0.00  0.00    +0.062 HD
ATOM     34  H   UNL     1       2.869  12.371  18.476  0.00  0.00    +0.063 HD
ATOM     35  H   UNL     1      -0.976  10.454  18.900  0.00  0.00    +0.064 HD
BRANCH  26  36
ATOM     36  N   UNL     1      -2.388  12.688  19.139  0.00  0.00    -0.221 N 
ATOM     37  H   UNL     1      -2.966  11.983  18.680  0.00  0.00    +0.173 HD
BRANCH  36  38
ATOM     38  S   UNL     1      -2.980  13.087  20.667  0.00  0.00    +0.040 S 
ATOM     39  O   UNL     1      -2.356  12.254  21.670  0.00  0.00    -0.155 OA
ATOM     40  O   UNL     1      -2.915  14.532  20.745  0.00  0.00    -0.155 OA
BRANCH  38  41
ATOM     41  C   UNL     1      -4.701  12.636  20.539  0.00  0.00    +0.074 C 
ATOM     42  H   UNL     1      -5.070  12.442  21.549  0.00  0.00    +0.048 HD
ATOM     43  H   UNL     1      -5.254  13.468  20.099  0.00  0.00    +0.048 HD
ATOM     44  H   UNL     1      -4.795  11.733  19.935  0.00  0.00    +0.048 HD
ENDBRANCH  38  41
ENDBRANCH  36  38
ENDBRANCH  26  36
ENDBRANCH   1  30
TORSDOF 5
ENDMDL
MODEL 19
REMARK VINA RESULT:    -7.221      2.771      9.093
REMARK INTER + INTRA:          -9.775
REMARK INTER:                  -9.665
REMARK INTRA:                  -0.111
REMARK UNBOUND:                -0.655
REMARK  Name = 
REMARK  5 active torsions:
REMARK  status: ('A' for Active; 'I' for Inactive)
REMARK    1  A    between atoms: C_1  and  S_2
REMARK    2  A    between atoms: S_2  and  N_5
REMARK    3  A    between atoms: N_5  and  C_6
REMARK    4  A    between atoms: C_10  and  C_11
REMARK    5  A    between atoms: C_16  and  C_17
REMARK                            x       y       z     vdW  Elec       q    Type
REMARK                         _______ _______ _______ _____ _____    ______ ____
ROOT
ATOM      1  C   UNL     1       2.390   7.545  18.497  0.00  0.00    +0.250 C 
ATOM      2  O   UNL     1       1.716   7.766  17.498  0.00  0.00    -0.270 OA
ATOM      3  N   UNL     1       2.181   8.018  19.771  0.00  0.00    -0.261 N 
ATOM      4  C   UNL     1       1.164   8.882  20.070  0.00  0.00    +0.165 A 
ATOM      5  N   UNL     1       0.290   9.443  19.280  0.00  0.00    -0.225 NA
ATOM      6  C   UNL     1      -0.556  10.250  20.015  0.00  0.00    +0.082 A 
ATOM      7  C   UNL     1      -0.290  10.284  21.371  0.00  0.00    +0.005 A 
ATOM      8  S   UNL     1       1.053   9.276  21.727  0.00  0.00    -0.060 S 
ATOM      9  H   UNL     1       2.728   7.691  20.552  0.00  0.00    +0.157 HD
ATOM     10  H   UNL     1      -0.800  10.832  22.149  0.00  0.00    +0.072 HD
ENDROOT
BRANCH   6  11
ATOM     11  C   UNL     1      -1.629  10.984  19.329  0.00  0.00    +0.026 A 
ATOM     12  C   UNL     1      -2.298  12.094  19.805  0.00  0.00    +0.012 A 
ATOM     13  N   UNL     1      -3.218  12.468  18.863  0.00  0.00    -0.360 N 
ATOM     14  C   UNL     1      -3.165  11.623  17.780  0.00  0.00    +0.047 A 
ATOM     15  C   UNL     1      -3.918  11.633  16.598  0.00  0.00    -0.038 A 
ATOM     16  C   UNL     1      -3.654  10.642  15.649  0.00  0.00    -0.060 A 
ATOM     17  C   UNL     1      -2.673   9.680  15.875  0.00  0.00    -0.061 A 
ATOM     18  C   UNL     1      -1.930   9.687  17.061  0.00  0.00    -0.052 A 
ATOM     19  C   UNL     1      -2.172  10.675  18.041  0.00  0.00    +0.009 A 
ATOM     20  H   UNL     1      -2.204  12.651  20.727  0.00  0.00    +0.081 HD
ATOM     21  H   UNL     1      -3.852  13.252  18.944  0.00  0.00    +0.165 HD
ATOM     22  H   UNL     1      -4.683  12.381  16.419  0.00  0.00    +0.064 HD
ATOM     23  H   UNL     1      -4.221  10.622  14.722  0.00  0.00    +0.062 HD
ATOM     24  H   UNL     1      -2.477   8.916  15.129  0.00  0.00    +0.062 HD
ATOM     25  H   UNL     1      -1.168   8.927  17.220  0.00  0.00    +0.062 HD
ENDBRANCH   6  11
BRANCH   1  30
ATOM     26  C   UNL     1       5.392   5.848  16.982  0.00  0.00    +0.048 A 
ATOM     27  C   UNL     1       5.775   4.975  17.999  0.00  0.00    -0.039 A 
ATOM     28  C   UNL     1       5.062   4.938  19.199  0.00  0.00    -0.059 A 
ATOM     29  C   UNL     1       3.956   5.769  19.383  0.00  0.00    -0.050 A 
ATOM     30  C   UNL     1       3.554   6.629  18.352  0.00  0.00    +0.039 A 
ATOM     31  C   UNL     1       4.281   6.673  17.154  0.00  0.00    -0.027 A 
ATOM     32  H   UNL     1       6.630   4.315  17.868  0.00  0.00    +0.064 HD
ATOM     33  H   UNL     1       5.382   4.267  19.993  0.00  0.00    +0.062 HD
ATOM     34  H   UNL     1       3.443   5.752  20.340  0.00  0.00    +0.063 HD
ATOM     35  H   UNL     1       3.973   7.360  16.369  0.00  0.00    +0.064 HD
BRANCH  26  36
ATOM     36  N   UNL     1       6.121   5.927  15.762  0.00  0.00    -0.221 N 
ATOM     37  H   UNL     1       6.980   6.479  15.764  0.00  0.00    +0.173 HD
BRANCH  36  38
ATOM     38  S   UNL     1       6.260   4.557  14.788  0.00  0.00    +0.040 S 
ATOM     39  O   UNL     1       6.798   3.458  15.558  0.00  0.00    -0.155 OA
ATOM     40  O   UNL     1       4.991   4.439  14.099  0.00  0.00    -0.155 OA
BRANCH  38  41
ATOM     41  C   UNL     1       7.475   5.063  13.586  0.00  0.00    +0.074 C 
ATOM     42  H   UNL     1       7.692   6.121  13.756  0.00  0.00    +0.048 HD
ATOM     43  H   UNL     1       8.383   4.474  13.728  0.00  0.00    +0.048 HD
ATOM     44  H   UNL     1       7.070   4.931  12.582  0.00  0.00    +0.048 HD
ENDBRANCH  38  41
ENDBRANCH  36  38
ENDBRANCH  26  36
ENDBRANCH   1  30
TORSDOF 5
ENDMDL
MODEL 20
REMARK VINA RESULT:    -7.174      3.170      9.027
REMARK INTER + INTRA:          -9.717
REMARK INTER:                  -9.732
REMARK INTRA:                   0.015
REMARK UNBOUND:                -0.655
REMARK  Name = 
REMARK  5 active torsions:
REMARK  status: ('A' for Active; 'I' for Inactive)
REMARK    1  A    between atoms: C_1  and  S_2
REMARK    2  A    between atoms: S_2  and  N_5
REMARK    3  A    between atoms: N_5  and  C_6
REMARK    4  A    between atoms: C_10  and  C_11
REMARK    5  A    between atoms: C_16  and  C_17
REMARK                            x       y       z     vdW  Elec       q    Type
REMARK                         _______ _______ _______ _____ _____    ______ ____
ROOT
ATOM      1  C   UNL     1       2.192   6.479  19.437  0.00  0.00    +0.250 C 
ATOM      2  O   UNL     1       1.757   6.691  18.312  0.00  0.00    -0.270 OA
ATOM      3  N   UNL     1       2.011   7.245  20.565  0.00  0.00    -0.261 N 
ATOM      4  C   UNL     1       1.326   8.428  20.540  0.00  0.00    +0.165 A 
ATOM      5  N   UNL     1       0.798   9.062  19.530  0.00  0.00    -0.225 NA
ATOM      6  C   UNL     1       0.201  10.229  19.967  0.00  0.00    +0.082 A 
ATOM      7  C   UNL     1       0.302  10.454  21.327  0.00  0.00    +0.005 A 
ATOM      8  S   UNL     1       1.165   9.169  22.070  0.00  0.00    -0.060 S 
ATOM      9  H   UNL     1       2.317   6.930  21.472  0.00  0.00    +0.157 HD
ATOM     10  H   UNL     1      -0.075  11.284  21.906  0.00  0.00    +0.072 HD
ENDROOT
BRANCH   6  11
ATOM     11  C   UNL     1      -0.466  11.106  18.995  0.00  0.00    +0.026 A 
ATOM     12  C   UNL     1      -0.177  12.435  18.757  0.00  0.00    +0.012 A 
ATOM     13  N   UNL     1      -1.025  12.882  17.779  0.00  0.00    -0.360 N 
ATOM     14  C   UNL     1      -1.863  11.871  17.373  0.00  0.00    +0.047 A 
ATOM     15  C   UNL     1      -2.876  11.882  16.405  0.00  0.00    -0.038 A 
ATOM     16  C   UNL     1      -3.585  10.697  16.191  0.00  0.00    -0.060 A 
ATOM     17  C   UNL     1      -3.289   9.547  16.917  0.00  0.00    -0.061 A 
ATOM     18  C   UNL     1      -2.272   9.554  17.880  0.00  0.00    -0.052 A 
ATOM     19  C   UNL     1      -1.537  10.736  18.121  0.00  0.00    +0.009 A 
ATOM     20  H   UNL     1       0.553  13.103  19.194  0.00  0.00    +0.081 HD
ATOM     21  H   UNL     1      -1.040  13.821  17.403  0.00  0.00    +0.165 HD
ATOM     22  H   UNL     1      -3.110  12.776  15.838  0.00  0.00    +0.064 HD
ATOM     23  H   UNL     1      -4.378  10.672  15.447  0.00  0.00    +0.062 HD
ATOM     24  H   UNL     1      -3.847   8.632  16.740  0.00  0.00    +0.062 HD
ATOM     25  H   UNL     1      -2.055   8.646  18.437  0.00  0.00    +0.062 HD
ENDBRANCH   6  11
BRANCH   1  30
ATOM     26  C   UNL     1       5.033   4.013  19.255  0.00  0.00    +0.048 A 
ATOM     27  C   UNL     1       4.543   2.951  20.012  0.00  0.00    -0.039 A 
ATOM     28  C   UNL     1       3.280   3.031  20.603  0.00  0.00    -0.059 A 
ATOM     29  C   UNL     1       2.497   4.173  20.428  0.00  0.00    -0.050 A 
ATOM     30  C   UNL     1       2.978   5.232  19.647  0.00  0.00    +0.039 A 
ATOM     31  C   UNL     1       4.252   5.153  19.068  0.00  0.00    -0.027 A 
ATOM     32  H   UNL     1       5.138   2.049  20.150  0.00  0.00    +0.064 HD
ATOM     33  H   UNL     1       2.916   2.203  21.208  0.00  0.00    +0.062 HD
ATOM     34  H   UNL     1       1.536   4.230  20.932  0.00  0.00    +0.063 HD
ATOM     35  H   UNL     1       4.623   5.990  18.481  0.00  0.00    +0.064 HD
BRANCH  26  36
ATOM     36  N   UNL     1       6.330   3.967  18.669  0.00  0.00    -0.221 N 
ATOM     37  H   UNL     1       6.845   3.089  18.742  0.00  0.00    +0.173 HD
BRANCH  36  38
ATOM     38  S   UNL     1       6.602   4.734  17.193  0.00  0.00    +0.040 S 
ATOM     39  O   UNL     1       6.266   6.136  17.298  0.00  0.00    -0.155 OA
ATOM     40  O   UNL     1       7.920   4.309  16.769  0.00  0.00    -0.155 OA
BRANCH  38  41
ATOM     41  C   UNL     1       5.416   3.940  16.125  0.00  0.00    +0.074 C 
ATOM     42  H   UNL     1       4.516   4.560  16.106  0.00  0.00    +0.048 HD
ATOM     43  H   UNL     1       5.834   3.869  15.119  0.00  0.00    +0.048 HD
ATOM     44  H   UNL     1       5.172   2.954  16.523  0.00  0.00    +0.048 HD
ENDBRANCH  38  41
ENDBRANCH  36  38
ENDBRANCH  26  36
ENDBRANCH   1  30
TORSDOF 5
ENDMDL
MODEL 21
REMARK VINA RESULT:    -7.160      3.487      9.650
REMARK INTER + INTRA:          -9.698
REMARK INTER:                  -9.663
REMARK INTRA:                  -0.035
REMARK UNBOUND:                -0.655
REMARK  Name = 
REMARK  5 active torsions:
REMARK  status: ('A' for Active; 'I' for Inactive)
REMARK    1  A    between atoms: C_1  and  S_2
REMARK    2  A    between atoms: S_2  and  N_5
REMARK    3  A    between atoms: N_5  and  C_6
REMARK    4  A    between atoms: C_10  and  C_11
REMARK    5  A    between atoms: C_16  and  C_17
REMARK                            x       y       z     vdW  Elec       q    Type
REMARK                         _______ _______ _______ _____ _____    ______ ____
ROOT
ATOM      1  C   UNL     1       1.733   6.555  20.217  0.00  0.00    +0.250 C 
ATOM      2  O   UNL     1       0.857   6.786  21.041  0.00  0.00    -0.270 OA
ATOM      3  N   UNL     1       2.209   7.396  19.239  0.00  0.00    -0.261 N 
ATOM      4  C   UNL     1       1.686   8.642  19.031  0.00  0.00    +0.165 A 
ATOM      5  N   UNL     1       0.678   9.229  19.617  0.00  0.00    -0.225 NA
ATOM      6  C   UNL     1       0.498  10.492  19.088  0.00  0.00    +0.082 A 
ATOM      7  C   UNL     1       1.392  10.832  18.089  0.00  0.00    +0.005 A 
ATOM      8  S   UNL     1       2.481   9.535  17.813  0.00  0.00    -0.060 S 
ATOM      9  H   UNL     1       3.011   7.154  18.678  0.00  0.00    +0.157 HD
ATOM     10  H   UNL     1       1.458  11.750  17.524  0.00  0.00    +0.072 HD
ENDROOT
BRANCH   6  11
ATOM     11  C   UNL     1      -0.584  11.342  19.603  0.00  0.00    +0.026 A 
ATOM     12  C   UNL     1      -1.335  12.244  18.876  0.00  0.00    +0.012 A 
ATOM     13  N   UNL     1      -2.234  12.828  19.727  0.00  0.00    -0.360 N 
ATOM     14  C   UNL     1      -2.085  12.326  20.998  0.00  0.00    +0.047 A 
ATOM     15  C   UNL     1      -2.787  12.635  22.171  0.00  0.00    -0.038 A 
ATOM     16  C   UNL     1      -2.423  11.966  23.343  0.00  0.00    -0.060 A 
ATOM     17  C   UNL     1      -1.399  11.023  23.338  0.00  0.00    -0.061 A 
ATOM     18  C   UNL     1      -0.710  10.726  22.156  0.00  0.00    -0.052 A 
ATOM     19  C   UNL     1      -1.052  11.385  20.955  0.00  0.00    +0.009 A 
ATOM     20  H   UNL     1      -1.312  12.524  17.831  0.00  0.00    +0.081 HD
ATOM     21  H   UNL     1      -2.914  13.530  19.467  0.00  0.00    +0.165 HD
ATOM     22  H   UNL     1      -3.585  13.369  22.179  0.00  0.00    +0.064 HD
ATOM     23  H   UNL     1      -2.948  12.183  24.270  0.00  0.00    +0.062 HD
ATOM     24  H   UNL     1      -1.127  10.509  24.256  0.00  0.00    +0.062 HD
ATOM     25  H   UNL     1       0.089   9.987  22.173  0.00  0.00    +0.062 HD
ENDBRANCH   6  11
BRANCH   1  30
ATOM     26  C   UNL     1       4.283   3.846  19.626  0.00  0.00    +0.048 A 
ATOM     27  C   UNL     1       3.769   2.795  20.383  0.00  0.00    -0.039 A 
ATOM     28  C   UNL     1       2.587   2.962  21.106  0.00  0.00    -0.059 A 
ATOM     29  C   UNL     1       1.907   4.180  21.067  0.00  0.00    -0.050 A 
ATOM     30  C   UNL     1       2.409   5.230  20.287  0.00  0.00    +0.039 A 
ATOM     31  C   UNL     1       3.604   5.063  19.573  0.00  0.00    -0.027 A 
ATOM     32  H   UNL     1       4.282   1.835  20.417  0.00  0.00    +0.064 HD
ATOM     33  H   UNL     1       2.205   2.140  21.709  0.00  0.00    +0.062 HD
ATOM     34  H   UNL     1       1.012   4.300  21.672  0.00  0.00    +0.063 HD
ATOM     35  H   UNL     1       3.995   5.892  18.988  0.00  0.00    +0.064 HD
BRANCH  26  36
ATOM     36  N   UNL     1       5.503   3.710  18.905  0.00  0.00    -0.221 N 
ATOM     37  H   UNL     1       5.548   2.977  18.196  0.00  0.00    +0.173 HD
BRANCH  36  38
ATOM     38  S   UNL     1       6.348   5.092  18.434  0.00  0.00    +0.040 S 
ATOM     39  O   UNL     1       5.496   5.939  17.631  0.00  0.00    -0.155 OA
ATOM     40  O   UNL     1       6.982   5.589  19.638  0.00  0.00    -0.155 OA
BRANCH  38  41
ATOM     41  C   UNL     1       7.631   4.419  17.394  0.00  0.00    +0.074 C 
ATOM     42  H   UNL     1       7.153   3.780  16.648  0.00  0.00    +0.048 HD
ATOM     43  H   UNL     1       8.151   5.240  16.896  0.00  0.00    +0.048 HD
ATOM     44  H   UNL     1       8.316   3.825  18.000  0.00  0.00    +0.048 HD
ENDBRANCH  38  41
ENDBRANCH  36  38
ENDBRANCH  26  36
ENDBRANCH   1  30
TORSDOF 5
ENDMDL
MODEL 22
REMARK VINA RESULT:    -7.047      4.089      5.245
REMARK INTER + INTRA:          -9.556
REMARK INTER:                  -9.233
REMARK INTRA:                  -0.322
REMARK UNBOUND:                -0.655
REMARK  Name = 
REMARK  5 active torsions:
REMARK  status: ('A' for Active; 'I' for Inactive)
REMARK    1  A    between atoms: C_1  and  S_2
REMARK    2  A    between atoms: S_2  and  N_5
REMARK    3  A    between atoms: N_5  and  C_6
REMARK    4  A    between atoms: C_10  and  C_11
REMARK    5  A    between atoms: C_16  and  C_17
REMARK                            x       y       z     vdW  Elec       q    Type
REMARK                         _______ _______ _______ _____ _____    ______ ____
ROOT
ATOM      1  C   UNL     1       0.145  10.398  21.407  0.00  0.00    +0.250 C 
ATOM      2  O   UNL     1      -0.085   9.482  22.186  0.00  0.00    -0.270 OA
ATOM      3  N   UNL     1       0.780  10.326  20.190  0.00  0.00    -0.261 N 
ATOM      4  C   UNL     1       1.304   9.158  19.710  0.00  0.00    +0.165 A 
ATOM      5  N   UNL     1       1.366   7.982  20.271  0.00  0.00    -0.225 NA
ATOM      6  C   UNL     1       1.986   7.087  19.420  0.00  0.00    +0.082 A 
ATOM      7  C   UNL     1       2.391   7.625  18.213  0.00  0.00    +0.005 A 
ATOM      8  S   UNL     1       1.980   9.290  18.148  0.00  0.00    -0.060 S 
ATOM      9  H   UNL     1       0.824  11.118  19.569  0.00  0.00    +0.157 HD
ATOM     10  H   UNL     1       2.893   7.139  17.389  0.00  0.00    +0.072 HD
ENDROOT
BRANCH   6  11
ATOM     11  C   UNL     1       2.164   5.692  19.845  0.00  0.00    +0.026 A 
ATOM     12  C   UNL     1       2.144   5.220  21.143  0.00  0.00    +0.012 A 
ATOM     13  N   UNL     1       2.347   3.867  21.103  0.00  0.00    -0.360 N 
ATOM     14  C   UNL     1       2.501   3.444  19.804  0.00  0.00    +0.047 A 
ATOM     15  C   UNL     1       2.726   2.155  19.303  0.00  0.00    -0.038 A 
ATOM     16  C   UNL     1       2.847   2.006  17.919  0.00  0.00    -0.060 A 
ATOM     17  C   UNL     1       2.744   3.105  17.071  0.00  0.00    -0.061 A 
ATOM     18  C   UNL     1       2.517   4.386  17.590  0.00  0.00    -0.052 A 
ATOM     19  C   UNL     1       2.390   4.571  18.984  0.00  0.00    +0.009 A 
ATOM     20  H   UNL     1       2.003   5.724  22.090  0.00  0.00    +0.081 HD
ATOM     21  H   UNL     1       2.381   3.258  21.910  0.00  0.00    +0.165 HD
ATOM     22  H   UNL     1       2.808   1.296  19.961  0.00  0.00    +0.064 HD
ATOM     23  H   UNL     1       3.022   1.019  17.499  0.00  0.00    +0.062 HD
ATOM     24  H   UNL     1       2.838   2.976  15.997  0.00  0.00    +0.062 HD
ATOM     25  H   UNL     1       2.439   5.233  16.911  0.00  0.00    +0.062 HD
ENDBRANCH   6  11
BRANCH   1  30
ATOM     26  C   UNL     1      -1.847  13.095  23.124  0.00  0.00    +0.048 A 
ATOM     27  C   UNL     1      -1.310  14.253  22.563  0.00  0.00    -0.039 A 
ATOM     28  C   UNL     1      -0.281  14.167  21.623  0.00  0.00    -0.059 A 
ATOM     29  C   UNL     1       0.209  12.920  21.232  0.00  0.00    -0.050 A 
ATOM     30  C   UNL     1      -0.347  11.754  21.777  0.00  0.00    +0.039 A 
ATOM     31  C   UNL     1      -1.370  11.846  22.731  0.00  0.00    -0.027 A 
ATOM     32  H   UNL     1      -1.687  15.233  22.850  0.00  0.00    +0.064 HD
ATOM     33  H   UNL     1       0.144  15.078  21.206  0.00  0.00    +0.062 HD
ATOM     34  H   UNL     1       1.038  12.880  20.531  0.00  0.00    +0.063 HD
ATOM     35  H   UNL     1      -1.779  10.935  23.162  0.00  0.00    +0.064 HD
BRANCH  26  36
ATOM     36  N   UNL     1      -2.875  13.159  24.107  0.00  0.00    -0.221 N 
ATOM     37  H   UNL     1      -2.754  13.830  24.867  0.00  0.00    +0.173 HD
BRANCH  36  38
ATOM     38  S   UNL     1      -4.487  13.032  23.631  0.00  0.00    +0.040 S 
ATOM     39  O   UNL     1      -4.561  12.631  22.244  0.00  0.00    -0.155 OA
ATOM     40  O   UNL     1      -5.141  12.263  24.670  0.00  0.00    -0.155 OA
BRANCH  38  41
ATOM     41  C   UNL     1      -5.061  14.715  23.771  0.00  0.00    +0.074 C 
ATOM     42  H   UNL     1      -5.996  14.702  24.335  0.00  0.00    +0.048 HD
ATOM     43  H   UNL     1      -4.314  15.301  24.311  0.00  0.00    +0.048 HD
ATOM     44  H   UNL     1      -5.239  15.122  22.775  0.00  0.00    +0.048 HD
ENDBRANCH  38  41
ENDBRANCH  36  38
ENDBRANCH  26  36
ENDBRANCH   1  30
TORSDOF 5
ENDMDL
MODEL 23
REMARK VINA RESULT:    -7.044      3.308     10.007
REMARK INTER + INTRA:          -9.553
REMARK INTER:                  -9.180
REMARK INTRA:                  -0.373
REMARK UNBOUND:                -0.655
REMARK  Name = 
REMARK  5 active torsions:
REMARK  status: ('A' for Active; 'I' for Inactive)
REMARK    1  A    between atoms: C_1  and  S_2
REMARK    2  A    between atoms: S_2  and  N_5
REMARK    3  A    between atoms: N_5  and  C_6
REMARK    4  A    between atoms: C_10  and  C_11
REMARK    5  A    between atoms: C_16  and  C_17
REMARK                            x       y       z     vdW  Elec       q    Type
REMARK                         _______ _______ _______ _____ _____    ______ ____
ROOT
ATOM      1  C   UNL     1       1.877   7.859  18.520  0.00  0.00    +0.250 C 
ATOM      2  O   UNL     1       1.516   8.639  17.647  0.00  0.00    -0.270 OA
ATOM      3  N   UNL     1       1.696   7.978  19.878  0.00  0.00    -0.261 N 
ATOM      4  C   UNL     1       1.102   9.074  20.441  0.00  0.00    +0.165 A 
ATOM      5  N   UNL     1       0.674  10.170  19.876  0.00  0.00    -0.225 NA
ATOM      6  C   UNL     1       0.143  11.014  20.832  0.00  0.00    +0.082 A 
ATOM      7  C   UNL     1       0.191  10.526  22.125  0.00  0.00    +0.005 A 
ATOM      8  S   UNL     1       0.918   8.970  22.135  0.00  0.00    -0.060 S 
ATOM      9  H   UNL     1       1.930   7.229  20.510  0.00  0.00    +0.157 HD
ATOM     10  H   UNL     1      -0.153  10.989  23.037  0.00  0.00    +0.072 HD
ENDROOT
BRANCH   6  11
ATOM     11  C   UNL     1      -0.406  12.314  20.422  0.00  0.00    +0.026 A 
ATOM     12  C   UNL     1      -0.065  13.029  19.291  0.00  0.00    +0.012 A 
ATOM     13  N   UNL     1      -0.804  14.180  19.281  0.00  0.00    -0.360 N 
ATOM     14  C   UNL     1      -1.623  14.234  20.384  0.00  0.00    +0.047 A 
ATOM     15  C   UNL     1      -2.539  15.220  20.773  0.00  0.00    -0.038 A 
ATOM     16  C   UNL     1      -3.249  15.018  21.959  0.00  0.00    -0.060 A 
ATOM     17  C   UNL     1      -3.050  13.872  22.724  0.00  0.00    -0.061 A 
ATOM     18  C   UNL     1      -2.132  12.896  22.320  0.00  0.00    -0.052 A 
ATOM     19  C   UNL     1      -1.397  13.070  21.126  0.00  0.00    +0.009 A 
ATOM     20  H   UNL     1       0.636  12.823  18.494  0.00  0.00    +0.081 HD
ATOM     21  H   UNL     1      -0.760  14.897  18.568  0.00  0.00    +0.165 HD
ATOM     22  H   UNL     1      -2.697  16.114  20.180  0.00  0.00    +0.064 HD
ATOM     23  H   UNL     1      -3.968  15.764  22.289  0.00  0.00    +0.062 HD
ATOM     24  H   UNL     1      -3.610  13.727  23.644  0.00  0.00    +0.062 HD
ATOM     25  H   UNL     1      -1.989  12.008  22.931  0.00  0.00    +0.062 HD
ENDBRANCH   6  11
BRANCH   1  30
ATOM     26  C   UNL     1       4.601   5.530  17.364  0.00  0.00    +0.048 A 
ATOM     27  C   UNL     1       3.930   4.310  17.297  0.00  0.00    -0.039 A 
ATOM     28  C   UNL     1       2.579   4.231  17.640  0.00  0.00    -0.059 A 
ATOM     29  C   UNL     1       1.890   5.376  18.042  0.00  0.00    -0.050 A 
ATOM     30  C   UNL     1       2.557   6.608  18.087  0.00  0.00    +0.039 A 
ATOM     31  C   UNL     1       3.917   6.680  17.755  0.00  0.00    -0.027 A 
ATOM     32  H   UNL     1       4.450   3.409  16.977  0.00  0.00    +0.064 HD
ATOM     33  H   UNL     1       2.070   3.270  17.603  0.00  0.00    +0.062 HD
ATOM     34  H   UNL     1       0.851   5.283  18.345  0.00  0.00    +0.063 HD
ATOM     35  H   UNL     1       4.430   7.637  17.813  0.00  0.00    +0.064 HD
BRANCH  26  36
ATOM     36  N   UNL     1       5.986   5.629  17.049  0.00  0.00    -0.221 N 
ATOM     37  H   UNL     1       6.263   6.345  16.376  0.00  0.00    +0.173 HD
BRANCH  36  38
ATOM     38  S   UNL     1       7.131   5.442  18.273  0.00  0.00    +0.040 S 
ATOM     39  O   UNL     1       6.467   5.282  19.547  0.00  0.00    -0.155 OA
ATOM     40  O   UNL     1       8.065   4.449  17.784  0.00  0.00    -0.155 OA
BRANCH  38  41
ATOM     41  C   UNL     1       7.968   7.016  18.257  0.00  0.00    +0.074 C 
ATOM     42  H   UNL     1       8.929   6.878  17.757  0.00  0.00    +0.048 HD
ATOM     43  H   UNL     1       7.363   7.734  17.700  0.00  0.00    +0.048 HD
ATOM     44  H   UNL     1       8.134   7.349  19.282  0.00  0.00    +0.048 HD
ENDBRANCH  38  41
ENDBRANCH  36  38
ENDBRANCH  26  36
ENDBRANCH   1  30
TORSDOF 5
ENDMDL
MODEL 24
REMARK VINA RESULT:    -6.999      3.587      4.391
REMARK INTER + INTRA:          -9.495
REMARK INTER:                  -9.069
REMARK INTRA:                  -0.426
REMARK UNBOUND:                -0.655
REMARK  Name = 
REMARK  5 active torsions:
REMARK  status: ('A' for Active; 'I' for Inactive)
REMARK    1  A    between atoms: C_1  and  S_2
REMARK    2  A    between atoms: S_2  and  N_5
REMARK    3  A    between atoms: N_5  and  C_6
REMARK    4  A    between atoms: C_10  and  C_11
REMARK    5  A    between atoms: C_16  and  C_17
REMARK                            x       y       z     vdW  Elec       q    Type
REMARK                         _______ _______ _______ _____ _____    ______ ____
ROOT
ATOM      1  C   UNL     1       0.590   8.823  20.937  0.00  0.00    +0.250 C 
ATOM      2  O   UNL     1       0.597   7.725  21.481  0.00  0.00    -0.270 OA
ATOM      3  N   UNL     1       1.234   9.191  19.779  0.00  0.00    -0.261 N 
ATOM      4  C   UNL     1       2.047   8.332  19.093  0.00  0.00    +0.165 A 
ATOM      5  N   UNL     1       2.405   7.112  19.387  0.00  0.00    -0.225 NA
ATOM      6  C   UNL     1       3.243   6.619  18.406  0.00  0.00    +0.082 A 
ATOM      7  C   UNL     1       3.507   7.502  17.375  0.00  0.00    +0.005 A 
ATOM      8  S   UNL     1       2.680   8.982  17.647  0.00  0.00    -0.060 S 
ATOM      9  H   UNL     1       1.078  10.090  19.351  0.00  0.00    +0.157 HD
ATOM     10  H   UNL     1       4.124   7.357  16.501  0.00  0.00    +0.072 HD
ENDROOT
BRANCH   6  11
ATOM     11  C   UNL     1       3.770   5.253  18.527  0.00  0.00    +0.026 A 
ATOM     12  C   UNL     1       5.101   4.889  18.576  0.00  0.00    +0.012 A 
ATOM     13  N   UNL     1       5.162   3.526  18.691  0.00  0.00    -0.360 N 
ATOM     14  C   UNL     1       3.896   2.991  18.718  0.00  0.00    +0.047 A 
ATOM     15  C   UNL     1       3.490   1.654  18.824  0.00  0.00    -0.038 A 
ATOM     16  C   UNL     1       2.119   1.388  18.826  0.00  0.00    -0.060 A 
ATOM     17  C   UNL     1       1.191   2.420  18.726  0.00  0.00    -0.061 A 
ATOM     18  C   UNL     1       1.614   3.750  18.621  0.00  0.00    -0.052 A 
ATOM     19  C   UNL     1       2.993   4.054  18.617  0.00  0.00    +0.009 A 
ATOM     20  H   UNL     1       6.010   5.475  18.539  0.00  0.00    +0.081 HD
ATOM     21  H   UNL     1       6.012   2.982  18.748  0.00  0.00    +0.165 HD
ATOM     22  H   UNL     1       4.211   0.847  18.902  0.00  0.00    +0.064 HD
ATOM     23  H   UNL     1       1.771   0.360  18.907  0.00  0.00    +0.062 HD
ATOM     24  H   UNL     1       0.127   2.199  18.729  0.00  0.00    +0.062 HD
ATOM     25  H   UNL     1       0.874   4.544  18.544  0.00  0.00    +0.062 HD
ENDBRANCH   6  11
BRANCH   1  30
ATOM     26  C   UNL     1      -1.404  11.998  21.297  0.00  0.00    +0.048 A 
ATOM     27  C   UNL     1      -1.819  11.931  22.626  0.00  0.00    -0.039 A 
ATOM     28  C   UNL     1      -1.461  10.839  23.419  0.00  0.00    -0.059 A 
ATOM     29  C   UNL     1      -0.677   9.814  22.889  0.00  0.00    -0.050 A 
ATOM     30  C   UNL     1      -0.238   9.893  21.560  0.00  0.00    +0.039 A 
ATOM     31  C   UNL     1      -0.612  10.984  20.763  0.00  0.00    -0.027 A 
ATOM     32  H   UNL     1      -2.424  12.726  23.058  0.00  0.00    +0.064 HD
ATOM     33  H   UNL     1      -1.807  10.787  24.450  0.00  0.00    +0.062 HD
ATOM     34  H   UNL     1      -0.446   8.955  23.512  0.00  0.00    +0.063 HD
ATOM     35  H   UNL     1      -0.282  11.024  19.727  0.00  0.00    +0.064 HD
BRANCH  26  36
ATOM     36  N   UNL     1      -1.782  13.086  20.460  0.00  0.00    -0.221 N 
ATOM     37  H   UNL     1      -2.772  13.175  20.227  0.00  0.00    +0.173 HD
BRANCH  36  38
ATOM     38  S   UNL     1      -1.050  14.590  20.670  0.00  0.00    +0.040 S 
ATOM     39  O   UNL     1      -0.819  15.209  19.384  0.00  0.00    -0.155 OA
ATOM     40  O   UNL     1      -1.822  15.259  21.697  0.00  0.00    -0.155 OA
BRANCH  38  41
ATOM     41  C   UNL     1       0.524  14.152  21.385  0.00  0.00    +0.074 C 
ATOM     42  H   UNL     1       0.329  13.608  22.312  0.00  0.00    +0.048 HD
ATOM     43  H   UNL     1       1.064  13.509  20.688  0.00  0.00    +0.048 HD
ATOM     44  H   UNL     1       1.088  15.060  21.606  0.00  0.00    +0.048 HD
ENDBRANCH  38  41
ENDBRANCH  36  38
ENDBRANCH  26  36
ENDBRANCH   1  30
TORSDOF 5
ENDMDL
MODEL 25
REMARK VINA RESULT:    -6.971      3.369      9.728
REMARK INTER + INTRA:          -9.460
REMARK INTER:                  -9.237
REMARK INTRA:                  -0.223
REMARK UNBOUND:                -0.655
REMARK  Name = 
REMARK  5 active torsions:
REMARK  status: ('A' for Active; 'I' for Inactive)
REMARK    1  A    between atoms: C_1  and  S_2
REMARK    2  A    between atoms: S_2  and  N_5
REMARK    3  A    between atoms: N_5  and  C_6
REMARK    4  A    between atoms: C_10  and  C_11
REMARK    5  A    between atoms: C_16  and  C_17
REMARK                            x       y       z     vdW  Elec       q    Type
REMARK                         _______ _______ _______ _____ _____    ______ ____
ROOT
ATOM      1  C   UNL     1       2.311   7.241  18.647  0.00  0.00    +0.250 C 
ATOM      2  O   UNL     1       2.309   8.064  17.739  0.00  0.00    -0.270 OA
ATOM      3  N   UNL     1       1.863   7.411  19.936  0.00  0.00    -0.261 N 
ATOM      4  C   UNL     1       1.382   8.609  20.388  0.00  0.00    +0.165 A 
ATOM      5  N   UNL     1       1.308   9.759  19.776  0.00  0.00    -0.225 NA
ATOM      6  C   UNL     1       0.754  10.704  20.618  0.00  0.00    +0.082 A 
ATOM      7  C   UNL     1       0.421  10.233  21.874  0.00  0.00    +0.005 A 
ATOM      8  S   UNL     1       0.814   8.566  21.996  0.00  0.00    -0.060 S 
ATOM      9  H   UNL     1       1.804   6.639  20.581  0.00  0.00    +0.157 HD
ATOM     10  H   UNL     1      -0.019  10.767  22.703  0.00  0.00    +0.072 HD
ENDROOT
BRANCH   6  11
ATOM     11  C   UNL     1       0.569  12.080  20.136  0.00  0.00    +0.026 A 
ATOM     12  C   UNL     1       1.390  12.759  19.258  0.00  0.00    +0.012 A 
ATOM     13  N   UNL     1       0.865  14.009  19.071  0.00  0.00    -0.360 N 
ATOM     14  C   UNL     1      -0.284  14.162  19.811  0.00  0.00    +0.047 A 
ATOM     15  C   UNL     1      -1.139  15.267  19.919  0.00  0.00    -0.038 A 
ATOM     16  C   UNL     1      -2.252  15.149  20.756  0.00  0.00    -0.060 A 
ATOM     17  C   UNL     1      -2.499  13.970  21.454  0.00  0.00    -0.061 A 
ATOM     18  C   UNL     1      -1.634  12.876  21.332  0.00  0.00    -0.052 A 
ATOM     19  C   UNL     1      -0.500  12.962  20.495  0.00  0.00    +0.009 A 
ATOM     20  H   UNL     1       2.299  12.467  18.750  0.00  0.00    +0.081 HD
ATOM     21  H   UNL     1       1.260  14.725  18.476  0.00  0.00    +0.165 HD
ATOM     22  H   UNL     1      -0.950  16.187  19.377  0.00  0.00    +0.064 HD
ATOM     23  H   UNL     1      -2.935  15.988  20.862  0.00  0.00    +0.062 HD
ATOM     24  H   UNL     1      -3.368  13.891  22.100  0.00  0.00    +0.062 HD
ATOM     25  H   UNL     1      -1.843  11.963  21.886  0.00  0.00    +0.062 HD
ENDBRANCH   6  11
BRANCH   1  30
ATOM     26  C   UNL     1       4.681   4.331  18.325  0.00  0.00    +0.048 A 
ATOM     27  C   UNL     1       3.849   3.335  17.817  0.00  0.00    -0.039 A 
ATOM     28  C   UNL     1       2.498   3.599  17.583  0.00  0.00    -0.059 A 
ATOM     29  C   UNL     1       1.976   4.866  17.848  0.00  0.00    -0.050 A 
ATOM     30  C   UNL     1       2.816   5.876  18.335  0.00  0.00    +0.039 A 
ATOM     31  C   UNL     1       4.169   5.602  18.582  0.00  0.00    -0.027 A 
ATOM     32  H   UNL     1       4.243   2.344  17.597  0.00  0.00    +0.064 HD
ATOM     33  H   UNL     1       1.854   2.808  17.205  0.00  0.00    +0.062 HD
ATOM     34  H   UNL     1       0.913   5.035  17.698  0.00  0.00    +0.063 HD
ATOM     35  H   UNL     1       4.807   6.387  18.980  0.00  0.00    +0.064 HD
BRANCH  26  36
ATOM     36  N   UNL     1       6.055   4.077  18.601  0.00  0.00    -0.221 N 
ATOM     37  H   UNL     1       6.325   3.108  18.777  0.00  0.00    +0.173 HD
BRANCH  36  38
ATOM     38  S   UNL     1       7.242   4.914  17.745  0.00  0.00    +0.040 S 
ATOM     39  O   UNL     1       7.163   6.325  18.048  0.00  0.00    -0.155 OA
ATOM     40  O   UNL     1       8.468   4.170  17.950  0.00  0.00    -0.155 OA
BRANCH  38  41
ATOM     41  C   UNL     1       6.742   4.663  16.052  0.00  0.00    +0.074 C 
ATOM     42  H   UNL     1       7.574   4.965  15.410  0.00  0.00    +0.048 HD
ATOM     43  H   UNL     1       6.525   3.604  15.899  0.00  0.00    +0.048 HD
ATOM     44  H   UNL     1       5.870   5.282  15.836  0.00  0.00    +0.048 HD
ENDBRANCH  38  41
ENDBRANCH  36  38
ENDBRANCH  26  36
ENDBRANCH   1  30
TORSDOF 5
ENDMDL
MODEL 26
REMARK VINA RESULT:    -6.968      3.531     10.347
REMARK INTER + INTRA:          -9.456
REMARK INTER:                  -8.921
REMARK INTRA:                  -0.535
REMARK UNBOUND:                -0.655
REMARK  Name = 
REMARK  5 active torsions:
REMARK  status: ('A' for Active; 'I' for Inactive)
REMARK    1  A    between atoms: C_1  and  S_2
REMARK    2  A    between atoms: S_2  and  N_5
REMARK    3  A    between atoms: N_5  and  C_6
REMARK    4  A    between atoms: C_10  and  C_11
REMARK    5  A    between atoms: C_16  and  C_17
REMARK                            x       y       z     vdW  Elec       q    Type
REMARK                         _______ _______ _______ _____ _____    ______ ____
ROOT
ATOM      1  C   UNL     1       1.363   8.369  20.604  0.00  0.00    +0.250 C 
ATOM      2  O   UNL     1       1.610   8.756  21.740  0.00  0.00    -0.270 OA
ATOM      3  N   UNL     1       0.665   9.034  19.623  0.00  0.00    -0.261 N 
ATOM      4  C   UNL     1       0.088  10.255  19.840  0.00  0.00    +0.165 A 
ATOM      5  N   UNL     1       0.026  10.962  20.935  0.00  0.00    -0.225 NA
ATOM      6  C   UNL     1      -0.659  12.138  20.695  0.00  0.00    +0.082 A 
ATOM      7  C   UNL     1      -1.111  12.289  19.398  0.00  0.00    +0.005 A 
ATOM      8  S   UNL     1      -0.663  10.922  18.461  0.00  0.00    -0.060 S 
ATOM      9  H   UNL     1       0.609   8.679  18.682  0.00  0.00    +0.157 HD
ATOM     10  H   UNL     1      -1.666  13.108  18.965  0.00  0.00    +0.072 HD
ENDROOT
BRANCH   6  11
ATOM     11  C   UNL     1      -0.849  13.098  21.792  0.00  0.00    +0.026 A 
ATOM     12  C   UNL     1      -0.015  14.150  22.114  0.00  0.00    +0.012 A 
ATOM     13  N   UNL     1      -0.551  14.797  23.196  0.00  0.00    -0.360 N 
ATOM     14  C   UNL     1      -1.719  14.187  23.588  0.00  0.00    +0.047 A 
ATOM     15  C   UNL     1      -2.590  14.510  24.636  0.00  0.00    -0.038 A 
ATOM     16  C   UNL     1      -3.722  13.710  24.813  0.00  0.00    -0.060 A 
ATOM     17  C   UNL     1      -3.971  12.630  23.971  0.00  0.00    -0.061 A 
ATOM     18  C   UNL     1      -3.090  12.322  22.928  0.00  0.00    -0.052 A 
ATOM     19  C   UNL     1      -1.937  13.111  22.722  0.00  0.00    +0.009 A 
ATOM     20  H   UNL     1       0.910  14.497  21.674  0.00  0.00    +0.081 HD
ATOM     21  H   UNL     1      -0.150  15.607  23.649  0.00  0.00    +0.165 HD
ATOM     22  H   UNL     1      -2.399  15.351  25.294  0.00  0.00    +0.064 HD
ATOM     23  H   UNL     1      -4.418  13.935  25.618  0.00  0.00    +0.062 HD
ATOM     24  H   UNL     1      -4.855  12.017  24.119  0.00  0.00    +0.062 HD
ATOM     25  H   UNL     1      -3.302  11.474  22.280  0.00  0.00    +0.062 HD
ENDBRANCH   6  11
BRANCH   1  30
ATOM     26  C   UNL     1       3.387   5.792  18.747  0.00  0.00    +0.048 A 
ATOM     27  C   UNL     1       3.008   4.612  19.383  0.00  0.00    -0.039 A 
ATOM     28  C   UNL     1       2.093   4.645  20.438  0.00  0.00    -0.059 A 
ATOM     29  C   UNL     1       1.545   5.859  20.852  0.00  0.00    -0.050 A 
ATOM     30  C   UNL     1       1.906   7.044  20.196  0.00  0.00    +0.039 A 
ATOM     31  C   UNL     1       2.836   7.008  19.148  0.00  0.00    -0.027 A 
ATOM     32  H   UNL     1       3.419   3.655  19.067  0.00  0.00    +0.064 HD
ATOM     33  H   UNL     1       1.818   3.719  20.940  0.00  0.00    +0.062 HD
ATOM     34  H   UNL     1       0.867   5.865  21.701  0.00  0.00    +0.063 HD
ATOM     35  H   UNL     1       3.125   7.936  18.660  0.00  0.00    +0.064 HD
BRANCH  26  36
ATOM     36  N   UNL     1       4.342   5.787  17.691  0.00  0.00    -0.221 N 
ATOM     37  H   UNL     1       4.253   6.511  16.976  0.00  0.00    +0.173 HD
BRANCH  36  38
ATOM     38  S   UNL     1       5.957   5.439  18.032  0.00  0.00    +0.040 S 
ATOM     39  O   UNL     1       6.158   5.398  19.463  0.00  0.00    -0.155 OA
ATOM     40  O   UNL     1       6.297   4.309  17.194  0.00  0.00    -0.155 OA
BRANCH  38  41
ATOM     41  C   UNL     1       6.802   6.865  17.376  0.00  0.00    +0.074 C 
ATOM     42  H   UNL     1       7.206   6.592  16.398  0.00  0.00    +0.048 HD
ATOM     43  H   UNL     1       6.087   7.682  17.263  0.00  0.00    +0.048 HD
ATOM     44  H   UNL     1       7.618   7.143  18.044  0.00  0.00    +0.048 HD
ENDBRANCH  38  41
ENDBRANCH  36  38
ENDBRANCH  26  36
ENDBRANCH   1  30
TORSDOF 5
ENDMDL
MODEL 27
REMARK VINA RESULT:    -6.812      3.312      4.351
REMARK INTER + INTRA:          -9.259
REMARK INTER:                  -8.746
REMARK INTRA:                  -0.513
REMARK UNBOUND:                -0.655
REMARK  Name = 
REMARK  5 active torsions:
REMARK  status: ('A' for Active; 'I' for Inactive)
REMARK    1  A    between atoms: C_1  and  S_2
REMARK    2  A    between atoms: S_2  and  N_5
REMARK    3  A    between atoms: N_5  and  C_6
REMARK    4  A    between atoms: C_10  and  C_11
REMARK    5  A    between atoms: C_16  and  C_17
REMARK                            x       y       z     vdW  Elec       q    Type
REMARK                         _______ _______ _______ _____ _____    ______ ____
ROOT
ATOM      1  C   UNL     1       1.234  11.332  18.956  0.00  0.00    +0.250 C 
ATOM      2  O   UNL     1       1.949  11.094  17.990  0.00  0.00    -0.270 OA
ATOM      3  N   UNL     1       0.889  10.478  19.976  0.00  0.00    -0.261 N 
ATOM      4  C   UNL     1       1.288   9.170  19.998  0.00  0.00    +0.165 A 
ATOM      5  N   UNL     1       1.967   8.493  19.112  0.00  0.00    -0.225 NA
ATOM      6  C   UNL     1       2.142   7.194  19.548  0.00  0.00    +0.082 A 
ATOM      7  C   UNL     1       1.573   6.915  20.777  0.00  0.00    +0.005 A 
ATOM      8  S   UNL     1       0.804   8.320  21.396  0.00  0.00    -0.060 S 
ATOM      9  H   UNL     1       0.385  10.799  20.787  0.00  0.00    +0.157 HD
ATOM     10  H   UNL     1       1.570   5.986  21.327  0.00  0.00    +0.072 HD
ENDROOT
BRANCH   6  11
ATOM     11  C   UNL     1       2.886   6.245  18.708  0.00  0.00    +0.026 A 
ATOM     12  C   UNL     1       3.998   6.527  17.939  0.00  0.00    +0.012 A 
ATOM     13  N   UNL     1       4.382   5.372  17.314  0.00  0.00    -0.360 N 
ATOM     14  C   UNL     1       3.543   4.339  17.658  0.00  0.00    +0.047 A 
ATOM     15  C   UNL     1       3.564   2.996  17.258  0.00  0.00    -0.038 A 
ATOM     16  C   UNL     1       2.576   2.149  17.768  0.00  0.00    -0.060 A 
ATOM     17  C   UNL     1       1.607   2.628  18.644  0.00  0.00    -0.061 A 
ATOM     18  C   UNL     1       1.603   3.973  19.034  0.00  0.00    -0.052 A 
ATOM     19  C   UNL     1       2.587   4.856  18.538  0.00  0.00    +0.009 A 
ATOM     20  H   UNL     1       4.549   7.444  17.780  0.00  0.00    +0.081 HD
ATOM     21  H   UNL     1       5.170   5.282  16.686  0.00  0.00    +0.165 HD
ATOM     22  H   UNL     1       4.317   2.619  16.575  0.00  0.00    +0.064 HD
ATOM     23  H   UNL     1       2.565   1.102  17.476  0.00  0.00    +0.062 HD
ATOM     24  H   UNL     1       0.846   1.959  19.034  0.00  0.00    +0.062 HD
ATOM     25  H   UNL     1       0.837   4.329  19.720  0.00  0.00    +0.062 HD
ENDBRANCH   6  11
BRANCH   1  30
ATOM     26  C   UNL     1      -1.128  14.147  19.783  0.00  0.00    +0.048 A 
ATOM     27  C   UNL     1      -0.387  15.267  19.407  0.00  0.00    -0.039 A 
ATOM     28  C   UNL     1       0.900  15.116  18.888  0.00  0.00    -0.059 A 
ATOM     29  C   UNL     1       1.448  13.842  18.733  0.00  0.00    -0.050 A 
ATOM     30  C   UNL     1       0.696  12.714  19.088  0.00  0.00    +0.039 A 
ATOM     31  C   UNL     1      -0.591  12.871  19.622  0.00  0.00    -0.027 A 
ATOM     32  H   UNL     1      -0.804  16.267  19.514  0.00  0.00    +0.064 HD
ATOM     33  H   UNL     1       1.476  15.998  18.616  0.00  0.00    +0.062 HD
ATOM     34  H   UNL     1       2.467  13.752  18.367  0.00  0.00    +0.063 HD
ATOM     35  H   UNL     1      -1.158  11.989  19.913  0.00  0.00    +0.064 HD
BRANCH  26  36
ATOM     36  N   UNL     1      -2.430  14.277  20.344  0.00  0.00    -0.221 N 
ATOM     37  H   UNL     1      -3.221  14.007  19.758  0.00  0.00    +0.173 HD
BRANCH  36  38
ATOM     38  S   UNL     1      -2.681  13.874  21.962  0.00  0.00    +0.040 S 
ATOM     39  O   UNL     1      -3.075  12.487  22.068  0.00  0.00    -0.155 OA
ATOM     40  O   UNL     1      -1.527  14.382  22.674  0.00  0.00    -0.155 OA
BRANCH  38  41
ATOM     41  C   UNL     1      -4.073  14.899  22.400  0.00  0.00    +0.074 C 
ATOM     42  H   UNL     1      -4.155  15.688  21.648  0.00  0.00    +0.048 HD
ATOM     43  H   UNL     1      -4.979  14.290  22.395  0.00  0.00    +0.048 HD
ATOM     44  H   UNL     1      -3.901  15.345  23.380  0.00  0.00    +0.048 HD
ENDBRANCH  38  41
ENDBRANCH  36  38
ENDBRANCH  26  36
ENDBRANCH   1  30
TORSDOF 5
ENDMDL
MODEL 28
REMARK VINA RESULT:    -6.808      3.884      5.303
REMARK INTER + INTRA:          -9.254
REMARK INTER:                  -9.016
REMARK INTRA:                  -0.238
REMARK UNBOUND:                -0.655
REMARK  Name = 
REMARK  5 active torsions:
REMARK  status: ('A' for Active; 'I' for Inactive)
REMARK    1  A    between atoms: C_1  and  S_2
REMARK    2  A    between atoms: S_2  and  N_5
REMARK    3  A    between atoms: N_5  and  C_6
REMARK    4  A    between atoms: C_10  and  C_11
REMARK    5  A    between atoms: C_16  and  C_17
REMARK                            x       y       z     vdW  Elec       q    Type
REMARK                         _______ _______ _______ _____ _____    ______ ____
ROOT
ATOM      1  C   UNL     1       0.838   9.719  21.085  0.00  0.00    +0.250 C 
ATOM      2  O   UNL     1       0.969   8.825  21.911  0.00  0.00    -0.270 OA
ATOM      3  N   UNL     1       1.222   9.706  19.765  0.00  0.00    -0.261 N 
ATOM      4  C   UNL     1       1.882   8.646  19.208  0.00  0.00    +0.165 A 
ATOM      5  N   UNL     1       2.307   7.545  19.766  0.00  0.00    -0.225 NA
ATOM      6  C   UNL     1       2.926   6.749  18.823  0.00  0.00    +0.082 A 
ATOM      7  C   UNL     1       2.959   7.284  17.548  0.00  0.00    +0.005 A 
ATOM      8  S   UNL     1       2.193   8.820  17.539  0.00  0.00    -0.060 S 
ATOM      9  H   UNL     1       0.971  10.451  19.134  0.00  0.00    +0.157 HD
ATOM     10  H   UNL     1       3.383   6.863  16.648  0.00  0.00    +0.072 HD
ENDROOT
BRANCH   6  11
ATOM     11  C   UNL     1       3.481   5.450  19.227  0.00  0.00    +0.026 A 
ATOM     12  C   UNL     1       4.730   4.955  18.906  0.00  0.00    +0.012 A 
ATOM     13  N   UNL     1       4.853   3.717  19.478  0.00  0.00    -0.360 N 
ATOM     14  C   UNL     1       3.708   3.392  20.166  0.00  0.00    +0.047 A 
ATOM     15  C   UNL     1       3.400   2.235  20.895  0.00  0.00    -0.038 A 
ATOM     16  C   UNL     1       2.144   2.165  21.503  0.00  0.00    -0.060 A 
ATOM     17  C   UNL     1       1.235   3.212  21.387  0.00  0.00    -0.061 A 
ATOM     18  C   UNL     1       1.561   4.361  20.656  0.00  0.00    -0.052 A 
ATOM     19  C   UNL     1       2.822   4.464  20.029  0.00  0.00    +0.009 A 
ATOM     20  H   UNL     1       5.540   5.371  18.323  0.00  0.00    +0.081 HD
ATOM     21  H   UNL     1       5.666   3.120  19.408  0.00  0.00    +0.165 HD
ATOM     22  H   UNL     1       4.106   1.417  20.987  0.00  0.00    +0.064 HD
ATOM     23  H   UNL     1       1.874   1.281  22.075  0.00  0.00    +0.062 HD
ATOM     24  H   UNL     1       0.262   3.145  21.866  0.00  0.00    +0.062 HD
ATOM     25  H   UNL     1       0.837   5.169  20.577  0.00  0.00    +0.062 HD
ENDBRANCH   6  11
BRANCH   1  30
ATOM     26  C   UNL     1      -1.632  11.974  22.818  0.00  0.00    +0.048 A 
ATOM     27  C   UNL     1      -1.193  13.238  22.428  0.00  0.00    -0.039 A 
ATOM     28  C   UNL     1      -0.075  13.370  21.602  0.00  0.00    -0.059 A 
ATOM     29  C   UNL     1       0.602  12.236  21.153  0.00  0.00    -0.050 A 
ATOM     30  C   UNL     1       0.147  10.963  21.523  0.00  0.00    +0.039 A 
ATOM     31  C   UNL     1      -0.966  10.836  22.365  0.00  0.00    -0.027 A 
ATOM     32  H   UNL     1      -1.715  14.133  22.763  0.00  0.00    +0.064 HD
ATOM     33  H   UNL     1       0.270  14.363  21.319  0.00  0.00    +0.062 HD
ATOM     34  H   UNL     1       1.494  12.365  20.545  0.00  0.00    +0.063 HD
ATOM     35  H   UNL     1      -1.298   9.844  22.663  0.00  0.00    +0.064 HD
BRANCH  26  36
ATOM     36  N   UNL     1      -2.749  11.815  23.686  0.00  0.00    -0.221 N 
ATOM     37  H   UNL     1      -2.564  11.472  24.629  0.00  0.00    +0.173 HD
BRANCH  36  38
ATOM     38  S   UNL     1      -3.985  12.963  23.667  0.00  0.00    +0.040 S 
ATOM     39  O   UNL     1      -3.490  14.226  24.167  0.00  0.00    -0.155 OA
ATOM     40  O   UNL     1      -4.591  12.861  22.356  0.00  0.00    -0.155 OA
BRANCH  38  41
ATOM     41  C   UNL     1      -5.144  12.296  24.846  0.00  0.00    +0.074 C 
ATOM     42  H   UNL     1      -5.083  11.206  24.794  0.00  0.00    +0.048 HD
ATOM     43  H   UNL     1      -4.867  12.633  25.846  0.00  0.00    +0.048 HD
ATOM     44  H   UNL     1      -6.153  12.618  24.584  0.00  0.00    +0.048 HD
ENDBRANCH  38  41
ENDBRANCH  36  38
ENDBRANCH  26  36
ENDBRANCH   1  30
TORSDOF 5
ENDMDL
MODEL 29
REMARK VINA RESULT:    -6.722      4.132     10.326
REMARK INTER + INTRA:          -9.145
REMARK INTER:                  -8.591
REMARK INTRA:                  -0.554
REMARK UNBOUND:                -0.655
REMARK  Name = 
REMARK  5 active torsions:
REMARK  status: ('A' for Active; 'I' for Inactive)
REMARK    1  A    between atoms: C_1  and  S_2
REMARK    2  A    between atoms: S_2  and  N_5
REMARK    3  A    between atoms: N_5  and  C_6
REMARK    4  A    between atoms: C_10  and  C_11
REMARK    5  A    between atoms: C_16  and  C_17
REMARK                            x       y       z     vdW  Elec       q    Type
REMARK                         _______ _______ _______ _____ _____    ______ ____
ROOT
ATOM      1  C   UNL     1       1.228   9.131  20.260  0.00  0.00    +0.250 C 
ATOM      2  O   UNL     1       0.804   9.018  21.404  0.00  0.00    -0.270 OA
ATOM      3  N   UNL     1       1.216  10.254  19.467  0.00  0.00    -0.261 N 
ATOM      4  C   UNL     1       0.645  11.428  19.875  0.00  0.00    +0.165 A 
ATOM      5  N   UNL     1      -0.004  11.699  20.974  0.00  0.00    -0.225 NA
ATOM      6  C   UNL     1      -0.409  13.020  20.966  0.00  0.00    +0.082 A 
ATOM      7  C   UNL     1      -0.052  13.727  19.833  0.00  0.00    +0.005 A 
ATOM      8  S   UNL     1       0.813  12.706  18.756  0.00  0.00    -0.060 S 
ATOM      9  H   UNL     1       1.689  10.278  18.578  0.00  0.00    +0.157 HD
ATOM     10  H   UNL     1      -0.249  14.760  19.589  0.00  0.00    +0.072 HD
ENDROOT
BRANCH   6  11
ATOM     11  C   UNL     1      -1.159  13.551  22.113  0.00  0.00    +0.026 A 
ATOM     12  C   UNL     1      -0.656  14.341  23.127  0.00  0.00    +0.012 A 
ATOM     13  N   UNL     1      -1.679  14.618  23.993  0.00  0.00    -0.360 N 
ATOM     14  C   UNL     1      -2.842  14.023  23.566  0.00  0.00    +0.047 A 
ATOM     15  C   UNL     1      -4.121  14.041  24.139  0.00  0.00    -0.038 A 
ATOM     16  C   UNL     1      -5.137  13.339  23.486  0.00  0.00    -0.060 A 
ATOM     17  C   UNL     1      -4.883  12.649  22.305  0.00  0.00    -0.061 A 
ATOM     18  C   UNL     1      -3.600  12.643  21.746  0.00  0.00    -0.052 A 
ATOM     19  C   UNL     1      -2.549  13.342  22.381  0.00  0.00    +0.009 A 
ATOM     20  H   UNL     1       0.336  14.731  23.311  0.00  0.00    +0.081 HD
ATOM     21  H   UNL     1      -1.599  15.178  24.832  0.00  0.00    +0.165 HD
ATOM     22  H   UNL     1      -4.323  14.578  25.060  0.00  0.00    +0.064 HD
ATOM     23  H   UNL     1      -6.141  13.334  23.905  0.00  0.00    +0.062 HD
ATOM     24  H   UNL     1      -5.683  12.108  21.806  0.00  0.00    +0.062 HD
ATOM     25  H   UNL     1      -3.420  12.097  20.822  0.00  0.00    +0.062 HD
ENDBRANCH   6  11
BRANCH   1  30
ATOM     26  C   UNL     1       2.592   5.639  19.895  0.00  0.00    +0.048 A 
ATOM     27  C   UNL     1       3.042   5.641  18.576  0.00  0.00    -0.039 A 
ATOM     28  C   UNL     1       2.896   6.781  17.784  0.00  0.00    -0.059 A 
ATOM     29  C   UNL     1       2.306   7.930  18.313  0.00  0.00    -0.050 A 
ATOM     30  C   UNL     1       1.875   7.939  19.647  0.00  0.00    +0.039 A 
ATOM     31  C   UNL     1       2.011   6.786  20.434  0.00  0.00    -0.027 A 
ATOM     32  H   UNL     1       3.512   4.755  18.151  0.00  0.00    +0.064 HD
ATOM     33  H   UNL     1       3.234   6.765  16.750  0.00  0.00    +0.062 HD
ATOM     34  H   UNL     1       2.165   8.791  17.666  0.00  0.00    +0.063 HD
ATOM     35  H   UNL     1       1.654   6.797  21.461  0.00  0.00    +0.064 HD
BRANCH  26  36
ATOM     36  N   UNL     1       2.702   4.478  20.711  0.00  0.00    -0.221 N 
ATOM     37  H   UNL     1       2.943   4.618  21.693  0.00  0.00    +0.173 HD
BRANCH  36  38
ATOM     38  S   UNL     1       1.605   3.213  20.509  0.00  0.00    +0.040 S 
ATOM     39  O   UNL     1       1.420   2.517  21.762  0.00  0.00    -0.155 OA
ATOM     40  O   UNL     1       0.481   3.783  19.794  0.00  0.00    -0.155 OA
BRANCH  38  41
ATOM     41  C   UNL     1       2.467   2.137  19.378  0.00  0.00    +0.074 C 
ATOM     42  H   UNL     1       3.427   2.602  19.142  0.00  0.00    +0.048 HD
ATOM     43  H   UNL     1       2.634   1.173  19.863  0.00  0.00    +0.048 HD
ATOM     44  H   UNL     1       1.880   2.025  18.465  0.00  0.00    +0.048 HD
ENDBRANCH  38  41
ENDBRANCH  36  38
ENDBRANCH  26  36
ENDBRANCH   1  30
TORSDOF 5
ENDMDL
MODEL 30
REMARK VINA RESULT:    -6.689      3.094     10.035
REMARK INTER + INTRA:          -9.104
REMARK INTER:                  -9.146
REMARK INTRA:                   0.042
REMARK UNBOUND:                -0.655
REMARK  Name = 
REMARK  5 active torsions:
REMARK  status: ('A' for Active; 'I' for Inactive)
REMARK    1  A    between atoms: C_1  and  S_2
REMARK    2  A    between atoms: S_2  and  N_5
REMARK    3  A    between atoms: N_5  and  C_6
REMARK    4  A    between atoms: C_10  and  C_11
REMARK    5  A    between atoms: C_16  and  C_17
REMARK                            x       y       z     vdW  Elec       q    Type
REMARK                         _______ _______ _______ _____ _____    ______ ____
ROOT
ATOM      1  C   UNL     1       2.169   7.671  19.113  0.00  0.00    +0.250 C 
ATOM      2  O   UNL     1       1.665   8.273  18.173  0.00  0.00    -0.270 OA
ATOM      3  N   UNL     1       1.960   7.882  20.456  0.00  0.00    -0.261 N 
ATOM      4  C   UNL     1       1.154   8.885  20.918  0.00  0.00    +0.165 A 
ATOM      5  N   UNL     1       0.516   9.812  20.256  0.00  0.00    -0.225 NA
ATOM      6  C   UNL     1      -0.180  10.621  21.133  0.00  0.00    +0.082 A 
ATOM      7  C   UNL     1      -0.042  10.280  22.466  0.00  0.00    +0.005 A 
ATOM      8  S   UNL     1       0.983   8.911  22.616  0.00  0.00    -0.060 S 
ATOM      9  H   UNL     1       2.337   7.261  21.153  0.00  0.00    +0.157 HD
ATOM     10  H   UNL     1      -0.479  10.751  23.334  0.00  0.00    +0.072 HD
ENDROOT
BRANCH   6  11
ATOM     11  C   UNL     1      -0.978  11.736  20.607  0.00  0.00    +0.026 A 
ATOM     12  C   UNL     1      -0.836  12.335  19.371  0.00  0.00    +0.012 A 
ATOM     13  N   UNL     1      -1.771  13.330  19.274  0.00  0.00    -0.360 N 
ATOM     14  C   UNL     1      -2.522  13.395  20.424  0.00  0.00    +0.047 A 
ATOM     15  C   UNL     1      -3.578  14.254  20.758  0.00  0.00    -0.038 A 
ATOM     16  C   UNL     1      -4.170  14.100  22.013  0.00  0.00    -0.060 A 
ATOM     17  C   UNL     1      -3.724  13.123  22.899  0.00  0.00    -0.061 A 
ATOM     18  C   UNL     1      -2.669  12.273  22.548  0.00  0.00    -0.052 A 
ATOM     19  C   UNL     1      -2.047  12.402  21.287  0.00  0.00    +0.009 A 
ATOM     20  H   UNL     1      -0.156  12.143  18.552  0.00  0.00    +0.081 HD
ATOM     21  H   UNL     1      -1.898  13.937  18.475  0.00  0.00    +0.165 HD
ATOM     22  H   UNL     1      -3.928  15.016  20.070  0.00  0.00    +0.064 HD
ATOM     23  H   UNL     1      -4.992  14.751  22.302  0.00  0.00    +0.062 HD
ATOM     24  H   UNL     1      -4.195  13.014  23.871  0.00  0.00    +0.062 HD
ATOM     25  H   UNL     1      -2.333  11.516  23.254  0.00  0.00    +0.062 HD
ENDBRANCH   6  11
BRANCH   1  30
ATOM     26  C   UNL     1       4.668   5.565  17.239  0.00  0.00    +0.048 A 
ATOM     27  C   UNL     1       4.868   4.502  18.118  0.00  0.00    -0.039 A 
ATOM     28  C   UNL     1       4.197   4.466  19.342  0.00  0.00    -0.059 A 
ATOM     29  C   UNL     1       3.313   5.489  19.686  0.00  0.00    -0.050 A 
ATOM     30  C   UNL     1       3.091   6.546  18.793  0.00  0.00    +0.039 A 
ATOM     31  C   UNL     1       3.779   6.586  17.572  0.00  0.00    -0.027 A 
ATOM     32  H   UNL     1       5.548   3.692  17.860  0.00  0.00    +0.064 HD
ATOM     33  H   UNL     1       4.375   3.641  20.028  0.00  0.00    +0.062 HD
ATOM     34  H   UNL     1       2.834   5.460  20.661  0.00  0.00    +0.063 HD
ATOM     35  H   UNL     1       3.615   7.422  16.896  0.00  0.00    +0.064 HD
BRANCH  26  36
ATOM     36  N   UNL     1       5.366   5.641  16.000  0.00  0.00    -0.221 N 
ATOM     37  H   UNL     1       5.603   6.571  15.653  0.00  0.00    +0.173 HD
BRANCH  36  38
ATOM     38  S   UNL     1       6.574   4.515  15.658  0.00  0.00    +0.040 S 
ATOM     39  O   UNL     1       7.620   4.599  16.652  0.00  0.00    -0.155 OA
ATOM     40  O   UNL     1       5.883   3.269  15.398  0.00  0.00    -0.155 OA
BRANCH  38  41
ATOM     41  C   UNL     1       7.215   5.105  14.102  0.00  0.00    +0.074 C 
ATOM     42  H   UNL     1       6.379   5.514  13.530  0.00  0.00    +0.048 HD
ATOM     43  H   UNL     1       7.948   5.890  14.295  0.00  0.00    +0.048 HD
ATOM     44  H   UNL     1       7.661   4.273  13.554  0.00  0.00    +0.048 HD
ENDBRANCH  38  41
ENDBRANCH  36  38
ENDBRANCH  26  36
ENDBRANCH   1  30
TORSDOF 5
ENDMDL
MODEL 31
REMARK VINA RESULT:    -6.677      3.252      9.790
REMARK INTER + INTRA:          -9.089
REMARK INTER:                  -8.532
REMARK INTRA:                  -0.557
REMARK UNBOUND:                -0.655
REMARK  Name = 
REMARK  5 active torsions:
REMARK  status: ('A' for Active; 'I' for Inactive)
REMARK    1  A    between atoms: C_1  and  S_2
REMARK    2  A    between atoms: S_2  and  N_5
REMARK    3  A    between atoms: N_5  and  C_6
REMARK    4  A    between atoms: C_10  and  C_11
REMARK    5  A    between atoms: C_16  and  C_17
REMARK                            x       y       z     vdW  Elec       q    Type
REMARK                         _______ _______ _______ _____ _____    ______ ____
ROOT
ATOM      1  C   UNL     1       2.227   7.981  18.130  0.00  0.00    +0.250 C 
ATOM      2  O   UNL     1       1.194   7.605  18.671  0.00  0.00    -0.270 OA
ATOM      3  N   UNL     1       2.625   9.275  17.890  0.00  0.00    -0.261 N 
ATOM      4  C   UNL     1       1.839  10.349  18.202  0.00  0.00    +0.165 A 
ATOM      5  N   UNL     1       0.629  10.381  18.691  0.00  0.00    -0.225 NA
ATOM      6  C   UNL     1       0.219  11.691  18.846  0.00  0.00    +0.082 A 
ATOM      7  C   UNL     1       1.148  12.637  18.454  0.00  0.00    +0.005 A 
ATOM      8  S   UNL     1       2.567  11.859  17.882  0.00  0.00    -0.060 S 
ATOM      9  H   UNL     1       3.545   9.488  17.538  0.00  0.00    +0.157 HD
ATOM     10  H   UNL     1       1.068  13.713  18.475  0.00  0.00    +0.072 HD
ENDROOT
BRANCH   6  11
ATOM     11  C   UNL     1      -1.118  11.968  19.389  0.00  0.00    +0.026 A 
ATOM     12  C   UNL     1      -2.294  12.057  18.670  0.00  0.00    +0.012 A 
ATOM     13  N   UNL     1      -3.307  12.328  19.550  0.00  0.00    -0.360 N 
ATOM     14  C   UNL     1      -2.817  12.420  20.831  0.00  0.00    +0.047 A 
ATOM     15  C   UNL     1      -3.491  12.680  22.031  0.00  0.00    -0.038 A 
ATOM     16  C   UNL     1      -2.737  12.718  23.207  0.00  0.00    -0.060 A 
ATOM     17  C   UNL     1      -1.362  12.502  23.180  0.00  0.00    -0.061 A 
ATOM     18  C   UNL     1      -0.705  12.242  21.971  0.00  0.00    -0.052 A 
ATOM     19  C   UNL     1      -1.438  12.197  20.765  0.00  0.00    +0.009 A 
ATOM     20  H   UNL     1      -2.501  11.953  17.613  0.00  0.00    +0.081 HD
ATOM     21  H   UNL     1      -4.280  12.447  19.301  0.00  0.00    +0.165 HD
ATOM     22  H   UNL     1      -4.562  12.849  22.056  0.00  0.00    +0.064 HD
ATOM     23  H   UNL     1      -3.230  12.917  24.155  0.00  0.00    +0.062 HD
ATOM     24  H   UNL     1      -0.788  12.533  24.101  0.00  0.00    +0.062 HD
ATOM     25  H   UNL     1       0.370  12.077  21.971  0.00  0.00    +0.062 HD
ENDBRANCH   6  11
BRANCH   1  30
ATOM     26  C   UNL     1       3.681   4.585  17.398  0.00  0.00    +0.048 A 
ATOM     27  C   UNL     1       4.946   4.910  16.912  0.00  0.00    -0.039 A 
ATOM     28  C   UNL     1       5.337   6.247  16.807  0.00  0.00    -0.059 A 
ATOM     29  C   UNL     1       4.465   7.264  17.198  0.00  0.00    -0.050 A 
ATOM     30  C   UNL     1       3.202   6.938  17.710  0.00  0.00    +0.039 A 
ATOM     31  C   UNL     1       2.809   5.595  17.800  0.00  0.00    -0.027 A 
ATOM     32  H   UNL     1       5.641   4.128  16.611  0.00  0.00    +0.064 HD
ATOM     33  H   UNL     1       6.320   6.490  16.408  0.00  0.00    +0.062 HD
ATOM     34  H   UNL     1       4.775   8.297  17.067  0.00  0.00    +0.063 HD
ATOM     35  H   UNL     1       1.818   5.355  18.179  0.00  0.00    +0.064 HD
BRANCH  26  36
ATOM     36  N   UNL     1       3.249   3.231  17.484  0.00  0.00    -0.221 N 
ATOM     37  H   UNL     1       3.362   2.650  16.653  0.00  0.00    +0.173 HD
BRANCH  36  38
ATOM     38  S   UNL     1       3.526   2.360  18.902  0.00  0.00    +0.040 S 
ATOM     39  O   UNL     1       3.795   0.976  18.583  0.00  0.00    -0.155 OA
ATOM     40  O   UNL     1       4.468   3.151  19.667  0.00  0.00    -0.155 OA
BRANCH  38  41
ATOM     41  C   UNL     1       1.949   2.461  19.727  0.00  0.00    +0.074 C 
ATOM     42  H   UNL     1       1.764   3.512  19.965  0.00  0.00    +0.048 HD
ATOM     43  H   UNL     1       1.172   2.094  19.054  0.00  0.00    +0.048 HD
ATOM     44  H   UNL     1       1.983   1.878  20.649  0.00  0.00    +0.048 HD
ENDBRANCH  38  41
ENDBRANCH  36  38
ENDBRANCH  26  36
ENDBRANCH   1  30
TORSDOF 5
ENDMDL
MODEL 32
REMARK VINA RESULT:    -6.641      3.648      9.763
REMARK INTER + INTRA:          -9.044
REMARK INTER:                  -8.807
REMARK INTRA:                  -0.237
REMARK UNBOUND:                -0.655
REMARK  Name = 
REMARK  5 active torsions:
REMARK  status: ('A' for Active; 'I' for Inactive)
REMARK    1  A    between atoms: C_1  and  S_2
REMARK    2  A    between atoms: S_2  and  N_5
REMARK    3  A    between atoms: N_5  and  C_6
REMARK    4  A    between atoms: C_10  and  C_11
REMARK    5  A    between atoms: C_16  and  C_17
REMARK                            x       y       z     vdW  Elec       q    Type
REMARK                         _______ _______ _______ _____ _____    ______ ____
ROOT
ATOM      1  C   UNL     1       1.987   6.697  20.161  0.00  0.00    +0.250 C 
ATOM      2  O   UNL     1       1.443   6.872  21.244  0.00  0.00    -0.270 OA
ATOM      3  N   UNL     1       2.150   7.611  19.146  0.00  0.00    -0.261 N 
ATOM      4  C   UNL     1       1.645   8.879  19.220  0.00  0.00    +0.165 A 
ATOM      5  N   UNL     1       0.915   9.431  20.151  0.00  0.00    -0.225 NA
ATOM      6  C   UNL     1       0.628  10.738  19.809  0.00  0.00    +0.082 A 
ATOM      7  C   UNL     1       1.156  11.148  18.598  0.00  0.00    +0.005 A 
ATOM      8  S   UNL     1       2.032   9.860  17.877  0.00  0.00    -0.060 S 
ATOM      9  H   UNL     1       2.710   7.404  18.334  0.00  0.00    +0.157 HD
ATOM     10  H   UNL     1       1.073  12.109  18.114  0.00  0.00    +0.072 HD
ENDROOT
BRANCH   6  11
ATOM     11  C   UNL     1      -0.184  11.560  20.717  0.00  0.00    +0.026 A 
ATOM     12  C   UNL     1      -1.443  11.256  21.194  0.00  0.00    +0.012 A 
ATOM     13  N   UNL     1      -1.845  12.280  22.009  0.00  0.00    -0.360 N 
ATOM     14  C   UNL     1      -0.872  13.249  22.074  0.00  0.00    +0.047 A 
ATOM     15  C   UNL     1      -0.858  14.458  22.782  0.00  0.00    -0.038 A 
ATOM     16  C   UNL     1       0.275  15.267  22.668  0.00  0.00    -0.060 A 
ATOM     17  C   UNL     1       1.352  14.879  21.876  0.00  0.00    -0.061 A 
ATOM     18  C   UNL     1       1.322  13.667  21.176  0.00  0.00    -0.052 A 
ATOM     19  C   UNL     1       0.191  12.826  21.271  0.00  0.00    +0.009 A 
ATOM     20  H   UNL     1      -2.090  10.405  21.027  0.00  0.00    +0.081 HD
ATOM     21  H   UNL     1      -2.729  12.325  22.497  0.00  0.00    +0.165 HD
ATOM     22  H   UNL     1      -1.696  14.764  23.400  0.00  0.00    +0.064 HD
ATOM     23  H   UNL     1       0.317  16.212  23.205  0.00  0.00    +0.062 HD
ATOM     24  H   UNL     1       2.227  15.517  21.796  0.00  0.00    +0.062 HD
ATOM     25  H   UNL     1       2.173  13.381  20.562  0.00  0.00    +0.062 HD
ENDBRANCH   6  11
BRANCH   1  30
ATOM     26  C   UNL     1       4.519   4.079  19.198  0.00  0.00    +0.048 A 
ATOM     27  C   UNL     1       3.812   2.898  19.418  0.00  0.00    -0.039 A 
ATOM     28  C   UNL     1       2.500   2.942  19.895  0.00  0.00    -0.059 A 
ATOM     29  C   UNL     1       1.887   4.170  20.145  0.00  0.00    -0.050 A 
ATOM     30  C   UNL     1       2.587   5.359  19.901  0.00  0.00    +0.039 A 
ATOM     31  C   UNL     1       3.909   5.310  19.435  0.00  0.00    -0.027 A 
ATOM     32  H   UNL     1       4.273   1.932  19.220  0.00  0.00    +0.064 HD
ATOM     33  H   UNL     1       1.965   2.013  20.082  0.00  0.00    +0.062 HD
ATOM     34  H   UNL     1       0.881   4.179  20.556  0.00  0.00    +0.063 HD
ATOM     35  H   UNL     1       4.450   6.239  19.269  0.00  0.00    +0.064 HD
BRANCH  26  36
ATOM     36  N   UNL     1       5.867   4.059  18.742  0.00  0.00    -0.221 N 
ATOM     37  H   UNL     1       6.428   3.238  18.975  0.00  0.00    +0.173 HD
BRANCH  36  38
ATOM     38  S   UNL     1       6.233   4.654  17.207  0.00  0.00    +0.040 S 
ATOM     39  O   UNL     1       7.611   4.361  16.882  0.00  0.00    -0.155 OA
ATOM     40  O   UNL     1       5.151   4.214  16.350  0.00  0.00    -0.155 OA
BRANCH  38  41
ATOM     41  C   UNL     1       6.059   6.414  17.427  0.00  0.00    +0.074 C 
ATOM     42  H   UNL     1       6.884   6.900  16.901  0.00  0.00    +0.048 HD
ATOM     43  H   UNL     1       5.108   6.734  16.995  0.00  0.00    +0.048 HD
ATOM     44  H   UNL     1       6.111   6.654  18.490  0.00  0.00    +0.048 HD
ENDBRANCH  38  41
ENDBRANCH  36  38
ENDBRANCH  26  36
ENDBRANCH   1  30
TORSDOF 5
ENDMDL
MODEL 33
REMARK VINA RESULT:    -6.495      3.394      9.650
REMARK INTER + INTRA:          -8.859
REMARK INTER:                  -8.204
REMARK INTRA:                  -0.655
REMARK UNBOUND:                -0.655
REMARK  Name = 
REMARK  5 active torsions:
REMARK  status: ('A' for Active; 'I' for Inactive)
REMARK    1  A    between atoms: C_1  and  S_2
REMARK    2  A    between atoms: S_2  and  N_5
REMARK    3  A    between atoms: N_5  and  C_6
REMARK    4  A    between atoms: C_10  and  C_11
REMARK    5  A    between atoms: C_16  and  C_17
REMARK                            x       y       z     vdW  Elec       q    Type
REMARK                         _______ _______ _______ _____ _____    ______ ____
ROOT
ATOM      1  C   UNL     1       1.598   7.467  20.175  0.00  0.00    +0.250 C 
ATOM      2  O   UNL     1       1.055   7.705  21.247  0.00  0.00    -0.270 OA
ATOM      3  N   UNL     1       1.876   8.352  19.160  0.00  0.00    -0.261 N 
ATOM      4  C   UNL     1       1.506   9.668  19.218  0.00  0.00    +0.165 A 
ATOM      5  N   UNL     1       0.821  10.299  20.132  0.00  0.00    -0.225 NA
ATOM      6  C   UNL     1       0.681  11.627  19.780  0.00  0.00    +0.082 A 
ATOM      7  C   UNL     1       1.271  11.971  18.578  0.00  0.00    +0.005 A 
ATOM      8  S   UNL     1       2.020  10.593  17.880  0.00  0.00    -0.060 S 
ATOM      9  H   UNL     1       2.426   8.083  18.360  0.00  0.00    +0.157 HD
ATOM     10  H   UNL     1       1.300  12.933  18.088  0.00  0.00    +0.072 HD
ENDROOT
BRANCH   6  11
ATOM     11  C   UNL     1      -0.057  12.535  20.669  0.00  0.00    +0.026 A 
ATOM     12  C   UNL     1       0.483  13.331  21.660  0.00  0.00    +0.012 A 
ATOM     13  N   UNL     1      -0.541  14.020  22.252  0.00  0.00    -0.360 N 
ATOM     14  C   UNL     1      -1.741  13.691  21.668  0.00  0.00    +0.047 A 
ATOM     15  C   UNL     1      -3.033  14.152  21.953  0.00  0.00    -0.038 A 
ATOM     16  C   UNL     1      -4.089  13.642  21.194  0.00  0.00    -0.060 A 
ATOM     17  C   UNL     1      -3.859  12.709  20.187  0.00  0.00    -0.061 A 
ATOM     18  C   UNL     1      -2.561  12.261  19.914  0.00  0.00    -0.052 A 
ATOM     19  C   UNL     1      -1.471  12.756  20.664  0.00  0.00    +0.009 A 
ATOM     20  H   UNL     1       1.501  13.468  21.998  0.00  0.00    +0.081 HD
ATOM     21  H   UNL     1      -0.438  14.679  23.012  0.00  0.00    +0.165 HD
ATOM     22  H   UNL     1      -3.216  14.879  22.738  0.00  0.00    +0.064 HD
ATOM     23  H   UNL     1      -5.104  13.980  21.391  0.00  0.00    +0.062 HD
ATOM     24  H   UNL     1      -4.689  12.322  19.603  0.00  0.00    +0.062 HD
ATOM     25  H   UNL     1      -2.401  11.531  19.123  0.00  0.00    +0.062 HD
ENDBRANCH   6  11
BRANCH   1  30
ATOM     26  C   UNL     1       3.146   4.501  18.445  0.00  0.00    +0.048 A 
ATOM     27  C   UNL     1       2.987   3.495  19.397  0.00  0.00    -0.039 A 
ATOM     28  C   UNL     1       2.381   3.777  20.623  0.00  0.00    -0.059 A 
ATOM     29  C   UNL     1       1.921   5.066  20.898  0.00  0.00    -0.050 A 
ATOM     30  C   UNL     1       2.058   6.072  19.932  0.00  0.00    +0.039 A 
ATOM     31  C   UNL     1       2.680   5.788  18.708  0.00  0.00    -0.027 A 
ATOM     32  H   UNL     1       3.332   2.482  19.195  0.00  0.00    +0.064 HD
ATOM     33  H   UNL     1       2.279   2.989  21.367  0.00  0.00    +0.062 HD
ATOM     34  H   UNL     1       1.491   5.271  21.874  0.00  0.00    +0.063 HD
ATOM     35  H   UNL     1       2.799   6.582  17.974  0.00  0.00    +0.064 HD
BRANCH  26  36
ATOM     36  N   UNL     1       3.789   4.245  17.201  0.00  0.00    -0.221 N 
ATOM     37  H   UNL     1       3.242   4.395  16.352  0.00  0.00    +0.173 HD
BRANCH  36  38
ATOM     38  S   UNL     1       5.403   4.687  16.994  0.00  0.00    +0.040 S 
ATOM     39  O   UNL     1       6.044   4.825  18.282  0.00  0.00    -0.155 OA
ATOM     40  O   UNL     1       5.927   3.786  15.988  0.00  0.00    -0.155 OA
BRANCH  38  41
ATOM     41  C   UNL     1       5.265   6.300  16.247  0.00  0.00    +0.074 C 
ATOM     42  H   UNL     1       4.338   6.755  16.606  0.00  0.00    +0.048 HD
ATOM     43  H   UNL     1       6.117   6.908  16.555  0.00  0.00    +0.048 HD
ATOM     44  H   UNL     1       5.224   6.195  15.162  0.00  0.00    +0.048 HD
ENDBRANCH  38  41
ENDBRANCH  36  38
ENDBRANCH  26  36
ENDBRANCH   1  30
TORSDOF 5
ENDMDL
