MODEL 1
REMARK VINA RESULT:    -7.553      0.000      0.000
REMARK INTER + INTRA:          -9.717
REMARK INTER:                  -9.019
REMARK INTRA:                  -0.698
REMARK UNBOUND:                -0.618
REMARK  Name = 
REMARK  4 active torsions:
REMARK  status: ('A' for Active; 'I' for Inactive)
REMARK    1  A    between atoms: C_1  and  C_2
REMARK    2  A    between atoms: C_7  and  C_9
REMARK    3  A    between atoms: N_12  and  C_13
REMARK    4  A    between atoms: C_17  and  C_18
REMARK                            x       y       z     vdW  Elec       q    Type
REMARK                         _______ _______ _______ _____ _____    ______ ____
ROOT
ATOM      1  C   UNL     1       2.342   6.775  18.543  0.00  0.00    +0.039 C 
ATOM      2  C   UNL     1       2.217   7.171  20.022  0.00  0.00    -0.026 C 
ATOM      3  C   UNL     1       1.232   8.322  20.205  0.00  0.00    +0.013 C 
ATOM      4  N   UNL     1       1.633   9.468  19.363  0.00  0.00    -0.330 N 
ATOM      5  C   UNL     1       1.754   9.150  17.933  0.00  0.00    +0.013 C 
ATOM      6  C   UNL     1       2.749   8.010  17.730  0.00  0.00    -0.026 C 
ATOM      7  H   UNL     1       1.358   6.411  18.226  0.00  0.00    +0.040 HD
ATOM      8  H   UNL     1       1.890   6.309  20.615  0.00  0.00    +0.029 HD
ATOM      9  H   UNL     1       3.198   7.472  20.417  0.00  0.00    +0.029 HD
ATOM     10  H   UNL     1       0.219   7.997  19.930  0.00  0.00    +0.046 HD
ATOM     11  H   UNL     1       1.213   8.576  21.270  0.00  0.00    +0.046 HD
ATOM     12  H   UNL     1       0.778   8.867  17.518  0.00  0.00    +0.046 HD
ATOM     13  H   UNL     1       2.124  10.021  17.377  0.00  0.00    +0.046 HD
ATOM     14  H   UNL     1       2.819   7.780  16.663  0.00  0.00    +0.029 HD
ATOM     15  H   UNL     1       3.751   8.337  18.038  0.00  0.00    +0.029 HD
ENDROOT
BRANCH   1  21
ATOM     16  C   UNL     1       1.275   2.905  18.890  0.00  0.00    -0.028 C 
ATOM     17  C   UNL     1       2.318   1.778  18.783  0.00  0.00    -0.048 C 
ATOM     18  C   UNL     1       3.755   2.304  18.724  0.00  0.00    -0.037 C 
ATOM     19  C   UNL     1       3.899   3.372  17.643  0.00  0.00    +0.015 C 
ATOM     20  N   UNL     1       2.920   4.438  17.847  0.00  0.00    -0.301 N 
ATOM     21  C   UNL     1       3.364   5.653  18.360  0.00  0.00    +0.219 C 
ATOM     22  O   UNL     1       4.551   5.842  18.634  0.00  0.00    -0.275 OA
ATOM     23  C   UNL     1       1.529   3.981  17.819  0.00  0.00    +0.017 C 
ATOM     24  H   UNL     1       0.285   2.470  18.704  0.00  0.00    +0.031 HD
ATOM     25  H   UNL     1       2.120   1.203  17.868  0.00  0.00    +0.027 HD
ATOM     26  H   UNL     1       2.213   1.076  19.619  0.00  0.00    +0.027 HD
ATOM     27  H   UNL     1       4.033   2.723  19.698  0.00  0.00    +0.028 HD
ATOM     28  H   UNL     1       4.444   1.476  18.523  0.00  0.00    +0.028 HD
ATOM     29  H   UNL     1       4.921   3.762  17.636  0.00  0.00    +0.046 HD
ATOM     30  H   UNL     1       3.713   2.939  16.653  0.00  0.00    +0.046 HD
ATOM     31  H   UNL     1       1.354   3.557  16.822  0.00  0.00    +0.047 HD
ATOM     32  H   UNL     1       0.821   4.801  17.940  0.00  0.00    +0.047 HD
BRANCH  16  33
ATOM     33  C   UNL     1       1.242   3.507  20.297  0.00  0.00    -0.061 C 
ATOM     34  H   UNL     1       1.944   2.985  20.955  0.00  0.00    +0.023 HD
ATOM     35  H   UNL     1       0.248   3.444  20.752  0.00  0.00    +0.023 HD
ATOM     36  H   UNL     1       1.533   4.562  20.272  0.00  0.00    +0.023 HD
ENDBRANCH  16  33
ENDBRANCH   1  21
BRANCH   4  37
ATOM     37  C   UNL     1       1.006  10.677  19.719  0.00  0.00    +0.033 A 
ATOM     38  C   UNL     1       0.928  11.718  18.785  0.00  0.00    -0.022 A 
ATOM     39  C   UNL     1       0.314  12.913  19.128  0.00  0.00    +0.030 A 
ATOM     40  N   UNL     1      -0.240  13.149  20.330  0.00  0.00    -0.250 NA
ATOM     41  C   UNL     1      -0.183  12.135  21.224  0.00  0.00    +0.127 A 
ATOM     42  C   UNL     1       0.418  10.903  20.965  0.00  0.00    -0.010 A 
ATOM     43  H   UNL     1       1.323  11.597  17.781  0.00  0.00    +0.065 HD
ATOM     44  H   UNL     1       0.245  13.730  18.417  0.00  0.00    +0.083 HD
ATOM     45  H   UNL     1       0.451  10.159  21.751  0.00  0.00    +0.066 HD
BRANCH  41  46
ATOM     46  C   UNL     1      -0.818  12.393  22.556  0.00  0.00    +0.260 C 
ATOM     47  N   UNL     1      -1.120  11.289  23.319  0.00  0.00    -0.324 N 
ATOM     48  O   UNL     1      -1.088  13.516  22.963  0.00  0.00    -0.269 OA
ATOM     49  H   UNL     1      -1.704  11.486  24.124  0.00  0.00    +0.145 HD
ATOM     50  H   UNL     1      -1.244  10.387  22.880  0.00  0.00    +0.145 HD
ENDBRANCH  41  46
ENDBRANCH   4  37
TORSDOF 4
ENDMDL
MODEL 2
REMARK VINA RESULT:    -7.490      1.328      2.104
REMARK INTER + INTRA:          -9.640
REMARK INTER:                  -8.948
REMARK INTRA:                  -0.693
REMARK UNBOUND:                -0.618
REMARK  Name = 
REMARK  4 active torsions:
REMARK  status: ('A' for Active; 'I' for Inactive)
REMARK    1  A    between atoms: C_1  and  C_2
REMARK    2  A    between atoms: C_7  and  C_9
REMARK    3  A    between atoms: N_12  and  C_13
REMARK    4  A    between atoms: C_17  and  C_18
REMARK                            x       y       z     vdW  Elec       q    Type
REMARK                         _______ _______ _______ _____ _____    ______ ____
ROOT
ATOM      1  C   UNL     1       2.263   6.858  18.525  0.00  0.00    +0.039 C 
ATOM      2  C   UNL     1       2.172   7.219  20.015  0.00  0.00    -0.026 C 
ATOM      3  C   UNL     1       1.181   8.357  20.248  0.00  0.00    +0.013 C 
ATOM      4  N   UNL     1       1.551   9.525  19.423  0.00  0.00    -0.330 N 
ATOM      5  C   UNL     1       1.640   9.242  17.984  0.00  0.00    +0.013 C 
ATOM      6  C   UNL     1       2.640   8.115  17.731  0.00  0.00    -0.026 C 
ATOM      7  H   UNL     1       1.275   6.493  18.224  0.00  0.00    +0.040 HD
ATOM      8  H   UNL     1       1.866   6.341  20.595  0.00  0.00    +0.029 HD
ATOM      9  H   UNL     1       3.158   7.520  20.393  0.00  0.00    +0.029 HD
ATOM     10  H   UNL     1       0.165   8.029  19.990  0.00  0.00    +0.046 HD
ATOM     11  H   UNL     1       1.186   8.586  21.319  0.00  0.00    +0.046 HD
ATOM     12  H   UNL     1       0.657   8.958  17.586  0.00  0.00    +0.046 HD
ATOM     13  H   UNL     1       1.989  10.128  17.439  0.00  0.00    +0.046 HD
ATOM     14  H   UNL     1       2.686   7.910  16.657  0.00  0.00    +0.029 HD
ATOM     15  H   UNL     1       3.646   8.445  18.022  0.00  0.00    +0.029 HD
ENDROOT
BRANCH   1  21
ATOM     16  C   UNL     1       1.250   2.973  18.853  0.00  0.00    -0.028 C 
ATOM     17  C   UNL     1       2.300   1.858  18.694  0.00  0.00    -0.048 C 
ATOM     18  C   UNL     1       3.729   2.401  18.595  0.00  0.00    -0.037 C 
ATOM     19  C   UNL     1       3.825   3.486  17.525  0.00  0.00    +0.015 C 
ATOM     20  N   UNL     1       2.842   4.538  17.777  0.00  0.00    -0.301 N 
ATOM     21  C   UNL     1       3.291   5.751  18.292  0.00  0.00    +0.219 C 
ATOM     22  O   UNL     1       4.484   5.948  18.527  0.00  0.00    -0.275 OA
ATOM     23  C   UNL     1       1.456   4.065  17.789  0.00  0.00    +0.017 C 
ATOM     24  H   UNL     1       0.259   2.529  18.695  0.00  0.00    +0.031 HD
ATOM     25  H   UNL     1       2.077   1.295  17.779  0.00  0.00    +0.027 HD
ATOM     26  H   UNL     1       2.232   1.144  19.524  0.00  0.00    +0.027 HD
ATOM     27  H   UNL     1       4.036   2.810  19.565  0.00  0.00    +0.028 HD
ATOM     28  H   UNL     1       4.419   1.584  18.358  0.00  0.00    +0.028 HD
ATOM     29  H   UNL     1       4.842   3.887  17.488  0.00  0.00    +0.046 HD
ATOM     30  H   UNL     1       3.609   3.064  16.535  0.00  0.00    +0.046 HD
ATOM     31  H   UNL     1       1.251   3.654  16.793  0.00  0.00    +0.047 HD
ATOM     32  H   UNL     1       0.743   4.876  17.946  0.00  0.00    +0.047 HD
BRANCH  16  33
ATOM     33  C   UNL     1       1.258   3.555  20.269  0.00  0.00    -0.061 C 
ATOM     34  H   UNL     1       2.266   3.883  20.543  0.00  0.00    +0.023 HD
ATOM     35  H   UNL     1       0.928   2.828  21.019  0.00  0.00    +0.023 HD
ATOM     36  H   UNL     1       0.598   4.425  20.331  0.00  0.00    +0.023 HD
ENDBRANCH  16  33
ENDBRANCH   1  21
BRANCH   4  37
ATOM     37  C   UNL     1       0.923  10.719  19.823  0.00  0.00    +0.033 A 
ATOM     38  C   UNL     1       0.109  10.727  20.963  0.00  0.00    -0.022 A 
ATOM     39  C   UNL     1      -0.514  11.899  21.363  0.00  0.00    +0.030 A 
ATOM     40  N   UNL     1      -0.381  13.072  20.720  0.00  0.00    -0.250 NA
ATOM     41  C   UNL     1       0.423  13.069  19.631  0.00  0.00    +0.127 A 
ATOM     42  C   UNL     1       1.085  11.936  19.157  0.00  0.00    -0.010 A 
ATOM     43  H   UNL     1      -0.025   9.829  21.557  0.00  0.00    +0.065 HD
ATOM     44  H   UNL     1      -1.149  11.922  22.244  0.00  0.00    +0.083 HD
ATOM     45  H   UNL     1       1.680  12.015  18.256  0.00  0.00    +0.066 HD
BRANCH  41  46
ATOM     46  C   UNL     1       0.585  14.381  18.927  0.00  0.00    +0.260 C 
ATOM     47  N   UNL     1      -0.562  15.106  18.702  0.00  0.00    -0.324 N 
ATOM     48  O   UNL     1       1.667  14.804  18.539  0.00  0.00    -0.269 OA
ATOM     49  H   UNL     1      -0.441  15.892  18.074  0.00  0.00    +0.145 HD
ATOM     50  H   UNL     1      -1.460  14.641  18.680  0.00  0.00    +0.145 HD
ENDBRANCH  41  46
ENDBRANCH   4  37
TORSDOF 4
ENDMDL
MODEL 3
REMARK VINA RESULT:    -7.480      1.476      1.657
REMARK INTER + INTRA:          -9.629
REMARK INTER:                  -8.998
REMARK INTRA:                  -0.631
REMARK UNBOUND:                -0.618
REMARK  Name = 
REMARK  4 active torsions:
REMARK  status: ('A' for Active; 'I' for Inactive)
REMARK    1  A    between atoms: C_1  and  C_2
REMARK    2  A    between atoms: C_7  and  C_9
REMARK    3  A    between atoms: N_12  and  C_13
REMARK    4  A    between atoms: C_17  and  C_18
REMARK                            x       y       z     vdW  Elec       q    Type
REMARK                         _______ _______ _______ _____ _____    ______ ____
ROOT
ATOM      1  C   UNL     1       2.292   6.809  18.722  0.00  0.00    +0.039 C 
ATOM      2  C   UNL     1       2.048   7.413  20.113  0.00  0.00    -0.026 C 
ATOM      3  C   UNL     1       1.023   8.542  20.054  0.00  0.00    +0.013 C 
ATOM      4  N   UNL     1       1.455   9.565  19.081  0.00  0.00    -0.330 N 
ATOM      5  C   UNL     1       1.690   9.046  17.726  0.00  0.00    +0.013 C 
ATOM      6  C   UNL     1       2.727   7.925  17.765  0.00  0.00    -0.026 C 
ATOM      7  H   UNL     1       1.344   6.367  18.396  0.00  0.00    +0.040 HD
ATOM      8  H   UNL     1       1.701   6.636  20.804  0.00  0.00    +0.029 HD
ATOM      9  H   UNL     1       2.989   7.803  20.526  0.00  0.00    +0.029 HD
ATOM     10  H   UNL     1       0.042   8.143  19.761  0.00  0.00    +0.046 HD
ATOM     11  H   UNL     1       0.919   8.948  21.066  0.00  0.00    +0.046 HD
ATOM     12  H   UNL     1       0.756   8.669  17.291  0.00  0.00    +0.046 HD
ATOM     13  H   UNL     1       2.078   9.838  17.074  0.00  0.00    +0.046 HD
ATOM     14  H   UNL     1       2.881   7.544  16.751  0.00  0.00    +0.029 HD
ATOM     15  H   UNL     1       3.694   8.330  18.090  0.00  0.00    +0.029 HD
ENDROOT
BRANCH   1  21
ATOM     16  C   UNL     1       1.260   2.916  18.828  0.00  0.00    -0.028 C 
ATOM     17  C   UNL     1       2.324   1.812  18.964  0.00  0.00    -0.048 C 
ATOM     18  C   UNL     1       3.725   2.370  19.232  0.00  0.00    -0.037 C 
ATOM     19  C   UNL     1       4.088   3.443  18.209  0.00  0.00    +0.015 C 
ATOM     20  N   UNL     1       3.065   4.487  18.182  0.00  0.00    -0.301 N 
ATOM     21  C   UNL     1       3.354   5.711  18.780  0.00  0.00    +0.219 C 
ATOM     22  O   UNL     1       4.443   5.924  19.315  0.00  0.00    -0.275 OA
ATOM     23  C   UNL     1       1.727   3.999  17.840  0.00  0.00    +0.017 C 
ATOM     24  H   UNL     1       0.348   2.459  18.423  0.00  0.00    +0.031 HD
ATOM     25  H   UNL     1       2.352   1.235  18.030  0.00  0.00    +0.027 HD
ATOM     26  H   UNL     1       2.048   1.106  19.757  0.00  0.00    +0.027 HD
ATOM     27  H   UNL     1       3.765   2.793  20.243  0.00  0.00    +0.028 HD
ATOM     28  H   UNL     1       4.460   1.558  19.195  0.00  0.00    +0.028 HD
ATOM     29  H   UNL     1       5.076   3.856  18.434  0.00  0.00    +0.046 HD
ATOM     30  H   UNL     1       4.141   3.009  17.204  0.00  0.00    +0.046 HD
ATOM     31  H   UNL     1       1.792   3.574  16.831  0.00  0.00    +0.047 HD
ATOM     32  H   UNL     1       0.992   4.803  17.795  0.00  0.00    +0.047 HD
BRANCH  16  33
ATOM     33  C   UNL     1       0.894   3.514  20.190  0.00  0.00    -0.061 C 
ATOM     34  H   UNL     1       0.390   2.768  20.813  0.00  0.00    +0.023 HD
ATOM     35  H   UNL     1       0.228   4.378  20.098  0.00  0.00    +0.023 HD
ATOM     36  H   UNL     1       1.794   3.838  20.722  0.00  0.00    +0.023 HD
ENDBRANCH  16  33
ENDBRANCH   1  21
BRANCH   4  37
ATOM     37  C   UNL     1       0.774  10.790  19.209  0.00  0.00    +0.033 A 
ATOM     38  C   UNL     1       1.498  11.989  19.208  0.00  0.00    -0.022 A 
ATOM     39  C   UNL     1       0.834  13.201  19.335  0.00  0.00    +0.030 A 
ATOM     40  N   UNL     1      -0.500  13.311  19.453  0.00  0.00    -0.250 NA
ATOM     41  C   UNL     1      -1.200  12.153  19.432  0.00  0.00    +0.127 A 
ATOM     42  C   UNL     1      -0.615  10.893  19.312  0.00  0.00    -0.010 A 
ATOM     43  H   UNL     1       2.576  11.989  19.085  0.00  0.00    +0.065 HD
ATOM     44  H   UNL     1       1.381  14.139  19.336  0.00  0.00    +0.083 HD
ATOM     45  H   UNL     1      -1.248  10.015  19.341  0.00  0.00    +0.066 HD
BRANCH  41  46
ATOM     46  C   UNL     1      -2.688  12.281  19.544  0.00  0.00    +0.260 C 
ATOM     47  N   UNL     1      -3.418  11.999  18.412  0.00  0.00    -0.324 N 
ATOM     48  O   UNL     1      -3.255  12.637  20.569  0.00  0.00    -0.269 OA
ATOM     49  H   UNL     1      -4.394  12.265  18.470  0.00  0.00    +0.145 HD
ATOM     50  H   UNL     1      -2.984  12.059  17.501  0.00  0.00    +0.145 HD
ENDBRANCH  41  46
ENDBRANCH   4  37
TORSDOF 4
ENDMDL
MODEL 4
REMARK VINA RESULT:    -7.292      2.262      8.224
REMARK INTER + INTRA:          -9.402
REMARK INTER:                  -8.839
REMARK INTRA:                  -0.563
REMARK UNBOUND:                -0.618
REMARK  Name = 
REMARK  4 active torsions:
REMARK  status: ('A' for Active; 'I' for Inactive)
REMARK    1  A    between atoms: C_1  and  C_2
REMARK    2  A    between atoms: C_7  and  C_9
REMARK    3  A    between atoms: N_12  and  C_13
REMARK    4  A    between atoms: C_17  and  C_18
REMARK                            x       y       z     vdW  Elec       q    Type
REMARK                         _______ _______ _______ _____ _____    ______ ____
ROOT
ATOM      1  C   UNL     1       0.931   9.748  19.185  0.00  0.00    +0.039 C 
ATOM      2  C   UNL     1       0.741   8.521  20.088  0.00  0.00    -0.026 C 
ATOM      3  C   UNL     1       1.999   7.658  20.120  0.00  0.00    +0.013 C 
ATOM      4  N   UNL     1       2.382   7.273  18.747  0.00  0.00    -0.330 N 
ATOM      5  C   UNL     1       2.592   8.410  17.840  0.00  0.00    +0.013 C 
ATOM      6  C   UNL     1       1.335   9.276  17.783  0.00  0.00    -0.026 C 
ATOM      7  H   UNL     1       1.726  10.354  19.633  0.00  0.00    +0.040 HD
ATOM      8  H   UNL     1       0.487   8.840  21.106  0.00  0.00    +0.029 HD
ATOM      9  H   UNL     1      -0.101   7.914  19.729  0.00  0.00    +0.029 HD
ATOM     10  H   UNL     1       2.823   8.211  20.593  0.00  0.00    +0.046 HD
ATOM     11  H   UNL     1       1.789   6.789  20.752  0.00  0.00    +0.046 HD
ATOM     12  H   UNL     1       3.444   9.016  18.173  0.00  0.00    +0.046 HD
ATOM     13  H   UNL     1       2.801   8.055  16.822  0.00  0.00    +0.046 HD
ATOM     14  H   UNL     1       1.513  10.122  17.112  0.00  0.00    +0.029 HD
ATOM     15  H   UNL     1       0.512   8.701  17.338  0.00  0.00    +0.029 HD
ENDROOT
BRANCH   1  21
ATOM     16  C   UNL     1      -0.413  11.759  22.407  0.00  0.00    -0.028 C 
ATOM     17  C   UNL     1      -1.740  12.538  22.365  0.00  0.00    -0.048 C 
ATOM     18  C   UNL     1      -2.526  12.298  21.073  0.00  0.00    -0.037 C 
ATOM     19  C   UNL     1      -1.644  12.531  19.849  0.00  0.00    +0.015 C 
ATOM     20  N   UNL     1      -0.436  11.712  19.929  0.00  0.00    -0.301 N 
ATOM     21  C   UNL     1      -0.347  10.584  19.119  0.00  0.00    +0.219 C 
ATOM     22  O   UNL     1      -1.254  10.275  18.344  0.00  0.00    -0.275 OA
ATOM     23  C   UNL     1       0.386  11.981  21.111  0.00  0.00    +0.017 C 
ATOM     24  H   UNL     1       0.182  12.148  23.243  0.00  0.00    +0.031 HD
ATOM     25  H   UNL     1      -1.519  13.610  22.445  0.00  0.00    +0.027 HD
ATOM     26  H   UNL     1      -2.363  12.283  23.231  0.00  0.00    +0.027 HD
ATOM     27  H   UNL     1      -2.912  11.272  21.061  0.00  0.00    +0.028 HD
ATOM     28  H   UNL     1      -3.393  12.967  21.038  0.00  0.00    +0.028 HD
ATOM     29  H   UNL     1      -2.209  12.324  18.935  0.00  0.00    +0.046 HD
ATOM     30  H   UNL     1      -1.328  13.580  19.801  0.00  0.00    +0.046 HD
ATOM     31  H   UNL     1       0.701  13.030  21.047  0.00  0.00    +0.047 HD
ATOM     32  H   UNL     1       1.297  11.381  21.128  0.00  0.00    +0.047 HD
BRANCH  16  33
ATOM     33  C   UNL     1      -0.644  10.270  22.679  0.00  0.00    -0.061 C 
ATOM     34  H   UNL     1      -1.117   9.791  21.816  0.00  0.00    +0.023 HD
ATOM     35  H   UNL     1      -1.288  10.101  23.549  0.00  0.00    +0.023 HD
ATOM     36  H   UNL     1       0.307   9.759  22.862  0.00  0.00    +0.023 HD
ENDBRANCH  16  33
ENDBRANCH   1  21
BRANCH   4  37
ATOM     37  C   UNL     1       3.302   6.209  18.695  0.00  0.00    +0.033 A 
ATOM     38  C   UNL     1       4.428   6.306  17.867  0.00  0.00    -0.022 A 
ATOM     39  C   UNL     1       5.339   5.262  17.808  0.00  0.00    +0.030 A 
ATOM     40  N   UNL     1       5.220   4.128  18.521  0.00  0.00    -0.250 NA
ATOM     41  C   UNL     1       4.144   4.044  19.336  0.00  0.00    +0.127 A 
ATOM     42  C   UNL     1       3.178   5.044  19.454  0.00  0.00    -0.010 A 
ATOM     43  H   UNL     1       4.614   7.202  17.283  0.00  0.00    +0.065 HD
ATOM     44  H   UNL     1       6.216   5.321  17.171  0.00  0.00    +0.083 HD
ATOM     45  H   UNL     1       2.328   4.879  20.104  0.00  0.00    +0.066 HD
BRANCH  41  46
ATOM     46  C   UNL     1       4.024   2.788  20.144  0.00  0.00    +0.260 C 
ATOM     47  N   UNL     1       5.054   1.883  20.030  0.00  0.00    -0.324 N 
ATOM     48  O   UNL     1       3.062   2.540  20.859  0.00  0.00    -0.269 OA
ATOM     49  H   UNL     1       4.860   0.978  20.443  0.00  0.00    +0.145 HD
ATOM     50  H   UNL     1       5.648   1.889  19.212  0.00  0.00    +0.145 HD
ENDBRANCH  41  46
ENDBRANCH   4  37
TORSDOF 4
ENDMDL
MODEL 5
REMARK VINA RESULT:    -7.192      2.247      8.459
REMARK INTER + INTRA:          -9.282
REMARK INTER:                  -8.702
REMARK INTRA:                  -0.580
REMARK UNBOUND:                -0.618
REMARK  Name = 
REMARK  4 active torsions:
REMARK  status: ('A' for Active; 'I' for Inactive)
REMARK    1  A    between atoms: C_1  and  C_2
REMARK    2  A    between atoms: C_7  and  C_9
REMARK    3  A    between atoms: N_12  and  C_13
REMARK    4  A    between atoms: C_17  and  C_18
REMARK                            x       y       z     vdW  Elec       q    Type
REMARK                         _______ _______ _______ _____ _____    ______ ____
ROOT
ATOM      1  C   UNL     1       1.022   9.677  19.149  0.00  0.00    +0.039 C 
ATOM      2  C   UNL     1       0.748   8.501  20.098  0.00  0.00    -0.026 C 
ATOM      3  C   UNL     1       1.973   7.600  20.229  0.00  0.00    +0.013 C 
ATOM      4  N   UNL     1       2.406   7.138  18.894  0.00  0.00    -0.330 N 
ATOM      5  C   UNL     1       2.696   8.224  17.947  0.00  0.00    +0.013 C 
ATOM      6  C   UNL     1       1.474   9.126  17.791  0.00  0.00    -0.026 C 
ATOM      7  H   UNL     1       1.816  10.278  19.607  0.00  0.00    +0.040 HD
ATOM      8  H   UNL     1       0.459   8.875  21.086  0.00  0.00    +0.029 HD
ATOM      9  H   UNL     1      -0.097   7.905  19.727  0.00  0.00    +0.029 HD
ATOM     10  H   UNL     1       2.793   8.148  20.714  0.00  0.00    +0.046 HD
ATOM     11  H   UNL     1       1.704   6.768  20.889  0.00  0.00    +0.046 HD
ATOM     12  H   UNL     1       3.552   8.818  18.293  0.00  0.00    +0.046 HD
ATOM     13  H   UNL     1       2.939   7.815  16.958  0.00  0.00    +0.046 HD
ATOM     14  H   UNL     1       1.711   9.934  17.092  0.00  0.00    +0.029 HD
ATOM     15  H   UNL     1       0.653   8.558  17.335  0.00  0.00    +0.029 HD
ENDROOT
BRANCH   1  21
ATOM     16  C   UNL     1      -0.328  11.973  22.173  0.00  0.00    -0.028 C 
ATOM     17  C   UNL     1      -1.624  12.792  22.035  0.00  0.00    -0.048 C 
ATOM     18  C   UNL     1      -2.385  12.483  20.743  0.00  0.00    -0.037 C 
ATOM     19  C   UNL     1      -1.464  12.591  19.530  0.00  0.00    +0.015 C 
ATOM     20  N   UNL     1      -0.289  11.739  19.706  0.00  0.00    -0.301 N 
ATOM     21  C   UNL     1      -0.222  10.550  18.985  0.00  0.00    +0.219 C 
ATOM     22  O   UNL     1      -1.120  10.215  18.210  0.00  0.00    -0.275 OA
ATOM     23  C   UNL     1       0.511  12.068  20.887  0.00  0.00    +0.017 C 
ATOM     24  H   UNL     1       0.260  12.404  22.993  0.00  0.00    +0.031 HD
ATOM     25  H   UNL     1      -1.366  13.860  22.040  0.00  0.00    +0.027 HD
ATOM     26  H   UNL     1      -2.278  12.627  22.899  0.00  0.00    +0.027 HD
ATOM     27  H   UNL     1      -2.808  11.473  20.797  0.00  0.00    +0.028 HD
ATOM     28  H   UNL     1      -3.226  13.177  20.633  0.00  0.00    +0.028 HD
ATOM     29  H   UNL     1      -2.013  12.334  18.619  0.00  0.00    +0.046 HD
ATOM     30  H   UNL     1      -1.109  13.622  19.412  0.00  0.00    +0.046 HD
ATOM     31  H   UNL     1       0.867  13.097  20.753  0.00  0.00    +0.047 HD
ATOM     32  H   UNL     1       1.398  11.439  20.974  0.00  0.00    +0.047 HD
BRANCH  16  33
ATOM     33  C   UNL     1      -0.621  10.518  22.549  0.00  0.00    -0.061 C 
ATOM     34  H   UNL     1      -1.433  10.118  21.933  0.00  0.00    +0.023 HD
ATOM     35  H   UNL     1      -0.914  10.412  23.599  0.00  0.00    +0.023 HD
ATOM     36  H   UNL     1       0.261   9.892  22.382  0.00  0.00    +0.023 HD
ENDBRANCH  16  33
ENDBRANCH   1  21
BRANCH   4  37
ATOM     37  C   UNL     1       3.289   6.044  18.934  0.00  0.00    +0.033 A 
ATOM     38  C   UNL     1       2.987   4.939  19.741  0.00  0.00    -0.022 A 
ATOM     39  C   UNL     1       3.853   3.856  19.787  0.00  0.00    +0.030 A 
ATOM     40  N   UNL     1       4.995   3.783  19.081  0.00  0.00    -0.250 NA
ATOM     41  C   UNL     1       5.275   4.842  18.286  0.00  0.00    +0.127 A 
ATOM     42  C   UNL     1       4.463   5.972  18.182  0.00  0.00    -0.010 A 
ATOM     43  H   UNL     1       2.069   4.904  20.318  0.00  0.00    +0.065 HD
ATOM     44  H   UNL     1       3.634   2.992  20.408  0.00  0.00    +0.083 HD
ATOM     45  H   UNL     1       4.782   6.790  17.548  0.00  0.00    +0.066 HD
BRANCH  41  46
ATOM     46  C   UNL     1       6.538   4.750  17.487  0.00  0.00    +0.260 C 
ATOM     47  N   UNL     1       7.674   4.384  18.169  0.00  0.00    -0.324 N 
ATOM     48  O   UNL     1       6.594   5.005  16.290  0.00  0.00    -0.269 OA
ATOM     49  H   UNL     1       8.533   4.504  17.644  0.00  0.00    +0.145 HD
ATOM     50  H   UNL     1       7.732   4.520  19.170  0.00  0.00    +0.145 HD
ENDBRANCH  41  46
ENDBRANCH   4  37
TORSDOF 4
ENDMDL
MODEL 6
REMARK VINA RESULT:    -7.191      1.857      3.362
REMARK INTER + INTRA:          -9.280
REMARK INTER:                  -8.606
REMARK INTRA:                  -0.675
REMARK UNBOUND:                -0.618
REMARK  Name = 
REMARK  4 active torsions:
REMARK  status: ('A' for Active; 'I' for Inactive)
REMARK    1  A    between atoms: C_1  and  C_2
REMARK    2  A    between atoms: C_7  and  C_9
REMARK    3  A    between atoms: N_12  and  C_13
REMARK    4  A    between atoms: C_17  and  C_18
REMARK                            x       y       z     vdW  Elec       q    Type
REMARK                         _______ _______ _______ _____ _____    ______ ____
ROOT
ATOM      1  C   UNL     1       2.822   6.602  19.098  0.00  0.00    +0.039 C 
ATOM      2  C   UNL     1       2.244   7.552  18.040  0.00  0.00    -0.026 C 
ATOM      3  C   UNL     1       1.964   8.932  18.630  0.00  0.00    +0.013 C 
ATOM      4  N   UNL     1       1.071   8.807  19.801  0.00  0.00    -0.330 N 
ATOM      5  C   UNL     1       1.581   7.919  20.854  0.00  0.00    +0.013 C 
ATOM      6  C   UNL     1       1.852   6.528  20.283  0.00  0.00    -0.026 C 
ATOM      7  H   UNL     1       3.785   7.020  19.411  0.00  0.00    +0.040 HD
ATOM      8  H   UNL     1       2.942   7.647  17.199  0.00  0.00    +0.029 HD
ATOM      9  H   UNL     1       1.312   7.141  17.630  0.00  0.00    +0.029 HD
ATOM     10  H   UNL     1       2.905   9.410  18.932  0.00  0.00    +0.046 HD
ATOM     11  H   UNL     1       1.526   9.549  17.838  0.00  0.00    +0.046 HD
ATOM     12  H   UNL     1       2.503   8.326  21.288  0.00  0.00    +0.046 HD
ATOM     13  H   UNL     1       0.841   7.812  21.658  0.00  0.00    +0.046 HD
ATOM     14  H   UNL     1       2.241   5.884  21.078  0.00  0.00    +0.029 HD
ATOM     15  H   UNL     1       0.908   6.074  19.957  0.00  0.00    +0.029 HD
ENDROOT
BRANCH   1  21
ATOM     16  C   UNL     1       6.016   5.834  16.764  0.00  0.00    -0.028 C 
ATOM     17  C   UNL     1       6.213   4.454  16.111  0.00  0.00    -0.048 C 
ATOM     18  C   UNL     1       5.006   3.531  16.301  0.00  0.00    -0.037 C 
ATOM     19  C   UNL     1       4.603   3.457  17.772  0.00  0.00    +0.015 C 
ATOM     20  N   UNL     1       4.372   4.799  18.304  0.00  0.00    -0.301 N 
ATOM     21  C   UNL     1       3.058   5.209  18.513  0.00  0.00    +0.219 C 
ATOM     22  O   UNL     1       2.105   4.467  18.268  0.00  0.00    -0.275 OA
ATOM     23  C   UNL     1       5.538   5.681  18.219  0.00  0.00    +0.017 C 
ATOM     24  H   UNL     1       6.987   6.344  16.778  0.00  0.00    +0.031 HD
ATOM     25  H   UNL     1       7.092   3.975  16.564  0.00  0.00    +0.027 HD
ATOM     26  H   UNL     1       6.434   4.561  15.042  0.00  0.00    +0.027 HD
ATOM     27  H   UNL     1       4.163   3.900  15.704  0.00  0.00    +0.028 HD
ATOM     28  H   UNL     1       5.246   2.528  15.931  0.00  0.00    +0.028 HD
ATOM     29  H   UNL     1       3.720   2.823  17.887  0.00  0.00    +0.046 HD
ATOM     30  H   UNL     1       5.407   3.003  18.364  0.00  0.00    +0.046 HD
ATOM     31  H   UNL     1       6.330   5.220  18.820  0.00  0.00    +0.047 HD
ATOM     32  H   UNL     1       5.347   6.663  18.653  0.00  0.00    +0.047 HD
BRANCH  16  33
ATOM     33  C   UNL     1       5.063   6.710  15.946  0.00  0.00    -0.061 C 
ATOM     34  H   UNL     1       5.609   7.532  15.471  0.00  0.00    +0.023 HD
ATOM     35  H   UNL     1       4.270   7.148  16.561  0.00  0.00    +0.023 HD
ATOM     36  H   UNL     1       4.588   6.126  15.152  0.00  0.00    +0.023 HD
ENDBRANCH  16  33
ENDBRANCH   1  21
BRANCH   4  37
ATOM     37  C   UNL     1       0.480  10.023  20.192  0.00  0.00    +0.033 A 
ATOM     38  C   UNL     1       0.148  10.231  21.537  0.00  0.00    -0.022 A 
ATOM     39  C   UNL     1      -0.435  11.425  21.932  0.00  0.00    +0.030 A 
ATOM     40  N   UNL     1      -0.705  12.437  21.089  0.00  0.00    -0.250 NA
ATOM     41  C   UNL     1      -0.365  12.244  19.794  0.00  0.00    +0.127 A 
ATOM     42  C   UNL     1       0.222  11.075  19.310  0.00  0.00    -0.010 A 
ATOM     43  H   UNL     1       0.363   9.476  22.287  0.00  0.00    +0.065 HD
ATOM     44  H   UNL     1      -0.699  11.602  22.970  0.00  0.00    +0.083 HD
ATOM     45  H   UNL     1       0.429  10.990  18.251  0.00  0.00    +0.066 HD
BRANCH  41  46
ATOM     46  C   UNL     1      -0.649  13.380  18.860  0.00  0.00    +0.260 C 
ATOM     47  N   UNL     1      -0.985  13.048  17.568  0.00  0.00    -0.324 N 
ATOM     48  O   UNL     1      -0.572  14.556  19.193  0.00  0.00    -0.269 OA
ATOM     49  H   UNL     1      -0.995  13.831  16.926  0.00  0.00    +0.145 HD
ATOM     50  H   UNL     1      -0.711  12.152  17.187  0.00  0.00    +0.145 HD
ENDBRANCH  41  46
ENDBRANCH   4  37
TORSDOF 4
ENDMDL
MODEL 7
REMARK VINA RESULT:    -7.090      2.201      3.442
REMARK INTER + INTRA:          -9.159
REMARK INTER:                  -8.526
REMARK INTRA:                  -0.633
REMARK UNBOUND:                -0.618
REMARK  Name = 
REMARK  4 active torsions:
REMARK  status: ('A' for Active; 'I' for Inactive)
REMARK    1  A    between atoms: C_1  and  C_2
REMARK    2  A    between atoms: C_7  and  C_9
REMARK    3  A    between atoms: N_12  and  C_13
REMARK    4  A    between atoms: C_17  and  C_18
REMARK                            x       y       z     vdW  Elec       q    Type
REMARK                         _______ _______ _______ _____ _____    ______ ____
ROOT
ATOM      1  C   UNL     1       2.951   6.792  18.917  0.00  0.00    +0.039 C 
ATOM      2  C   UNL     1       2.280   7.577  17.780  0.00  0.00    -0.026 C 
ATOM      3  C   UNL     1       1.881   8.978  18.237  0.00  0.00    +0.013 C 
ATOM      4  N   UNL     1       1.013   8.891  19.430  0.00  0.00    -0.330 N 
ATOM      5  C   UNL     1       1.611   8.161  20.556  0.00  0.00    +0.013 C 
ATOM      6  C   UNL     1       2.002   6.751  20.121  0.00  0.00    -0.026 C 
ATOM      7  H   UNL     1       3.875   7.324  19.171  0.00  0.00    +0.040 HD
ATOM      8  H   UNL     1       2.959   7.650  16.923  0.00  0.00    +0.029 HD
ATOM      9  H   UNL     1       1.385   7.045  17.430  0.00  0.00    +0.029 HD
ATOM     10  H   UNL     1       2.777   9.566  18.474  0.00  0.00    +0.046 HD
ATOM     11  H   UNL     1       1.382   9.471  17.396  0.00  0.00    +0.046 HD
ATOM     12  H   UNL     1       2.496   8.691  20.931  0.00  0.00    +0.046 HD
ATOM     13  H   UNL     1       0.891   8.070  21.379  0.00  0.00    +0.046 HD
ATOM     14  H   UNL     1       2.454   6.226  20.968  0.00  0.00    +0.029 HD
ATOM     15  H   UNL     1       1.099   6.184  19.857  0.00  0.00    +0.029 HD
ENDROOT
BRANCH   1  21
ATOM     16  C   UNL     1       6.132   6.094  16.545  0.00  0.00    -0.028 C 
ATOM     17  C   UNL     1       6.447   4.678  16.029  0.00  0.00    -0.048 C 
ATOM     18  C   UNL     1       5.345   3.668  16.361  0.00  0.00    -0.037 C 
ATOM     19  C   UNL     1       4.996   3.712  17.846  0.00  0.00    +0.015 C 
ATOM     20  N   UNL     1       4.648   5.074  18.248  0.00  0.00    -0.301 N 
ATOM     21  C   UNL     1       3.307   5.375  18.468  0.00  0.00    +0.219 C 
ATOM     22  O   UNL     1       2.426   4.522  18.338  0.00  0.00    -0.275 OA
ATOM     23  C   UNL     1       5.717   6.050  18.026  0.00  0.00    +0.017 C 
ATOM     24  H   UNL     1       7.048   6.694  16.468  0.00  0.00    +0.031 HD
ATOM     25  H   UNL     1       7.383   4.336  16.492  0.00  0.00    +0.027 HD
ATOM     26  H   UNL     1       6.623   4.693  14.947  0.00  0.00    +0.027 HD
ATOM     27  H   UNL     1       4.451   3.889  15.765  0.00  0.00    +0.028 HD
ATOM     28  H   UNL     1       5.672   2.659  16.086  0.00  0.00    +0.028 HD
ATOM     29  H   UNL     1       4.185   3.010  18.062  0.00  0.00    +0.046 HD
ATOM     30  H   UNL     1       5.859   3.401  18.449  0.00  0.00    +0.046 HD
ATOM     31  H   UNL     1       6.569   5.733  18.639  0.00  0.00    +0.047 HD
ATOM     32  H   UNL     1       5.442   7.049  18.365  0.00  0.00    +0.047 HD
BRANCH  16  33
ATOM     33  C   UNL     1       5.072   6.783  15.682  0.00  0.00    -0.061 C 
ATOM     34  H   UNL     1       5.034   7.855  15.904  0.00  0.00    +0.023 HD
ATOM     35  H   UNL     1       4.071   6.372  15.846  0.00  0.00    +0.023 HD
ATOM     36  H   UNL     1       5.310   6.673  14.619  0.00  0.00    +0.023 HD
ENDBRANCH  16  33
ENDBRANCH   1  21
BRANCH   4  37
ATOM     37  C   UNL     1       0.318  10.082  19.709  0.00  0.00    +0.033 A 
ATOM     38  C   UNL     1       0.882  11.026  20.578  0.00  0.00    -0.022 A 
ATOM     39  C   UNL     1       0.203  12.202  20.861  0.00  0.00    +0.030 A 
ATOM     40  N   UNL     1      -0.993  12.518  20.335  0.00  0.00    -0.250 NA
ATOM     41  C   UNL     1      -1.527  11.615  19.479  0.00  0.00    +0.127 A 
ATOM     42  C   UNL     1      -0.916  10.408  19.142  0.00  0.00    -0.010 A 
ATOM     43  H   UNL     1       1.859  10.862  21.020  0.00  0.00    +0.065 HD
ATOM     44  H   UNL     1       0.626  12.943  21.532  0.00  0.00    +0.083 HD
ATOM     45  H   UNL     1      -1.431   9.726  18.476  0.00  0.00    +0.066 HD
BRANCH  41  46
ATOM     46  C   UNL     1      -2.851  11.978  18.880  0.00  0.00    +0.260 C 
ATOM     47  N   UNL     1      -2.945  11.913  17.509  0.00  0.00    -0.324 N 
ATOM     48  O   UNL     1      -3.811  12.340  19.546  0.00  0.00    -0.269 OA
ATOM     49  H   UNL     1      -3.786  12.331  17.129  0.00  0.00    +0.145 HD
ATOM     50  H   UNL     1      -2.112  11.973  16.939  0.00  0.00    +0.145 HD
ENDBRANCH  41  46
ENDBRANCH   4  37
TORSDOF 4
ENDMDL
MODEL 8
REMARK VINA RESULT:    -7.078      1.270      1.897
REMARK INTER + INTRA:          -9.144
REMARK INTER:                  -8.456
REMARK INTRA:                  -0.689
REMARK UNBOUND:                -0.618
REMARK  Name = 
REMARK  4 active torsions:
REMARK  status: ('A' for Active; 'I' for Inactive)
REMARK    1  A    between atoms: C_1  and  C_2
REMARK    2  A    between atoms: C_7  and  C_9
REMARK    3  A    between atoms: N_12  and  C_13
REMARK    4  A    between atoms: C_17  and  C_18
REMARK                            x       y       z     vdW  Elec       q    Type
REMARK                         _______ _______ _______ _____ _____    ______ ____
ROOT
ATOM      1  C   UNL     1       2.049   6.762  19.028  0.00  0.00    +0.039 C 
ATOM      2  C   UNL     1       1.984   6.762  20.562  0.00  0.00    -0.026 C 
ATOM      3  C   UNL     1       0.944   7.755  21.072  0.00  0.00    +0.013 C 
ATOM      4  N   UNL     1       1.228   9.102  20.537  0.00  0.00    -0.330 N 
ATOM      5  C   UNL     1       1.288   9.166  19.070  0.00  0.00    +0.013 C 
ATOM      6  C   UNL     1       2.336   8.189  18.544  0.00  0.00    -0.026 C 
ATOM      7  H   UNL     1       1.072   6.421  18.667  0.00  0.00    +0.040 HD
ATOM      8  H   UNL     1       1.743   5.757  20.927  0.00  0.00    +0.029 HD
ATOM      9  H   UNL     1       2.965   7.022  20.983  0.00  0.00    +0.029 HD
ATOM     10  H   UNL     1      -0.061   7.439  20.763  0.00  0.00    +0.046 HD
ATOM     11  H   UNL     1       0.970   7.729  22.167  0.00  0.00    +0.046 HD
ATOM     12  H   UNL     1       0.309   8.928  18.635  0.00  0.00    +0.046 HD
ATOM     13  H   UNL     1       1.574  10.173  18.742  0.00  0.00    +0.046 HD
ATOM     14  H   UNL     1       2.360   8.242  17.451  0.00  0.00    +0.029 HD
ATOM     15  H   UNL     1       3.333   8.498  18.886  0.00  0.00    +0.029 HD
ENDROOT
BRANCH   1  21
ATOM     16  C   UNL     1       1.278   2.835  18.562  0.00  0.00    -0.028 C 
ATOM     17  C   UNL     1       2.381   1.852  18.129  0.00  0.00    -0.048 C 
ATOM     18  C   UNL     1       3.769   2.498  18.091  0.00  0.00    -0.037 C 
ATOM     19  C   UNL     1       3.746   3.787  17.273  0.00  0.00    +0.015 C 
ATOM     20  N   UNL     1       2.719   4.694  17.781  0.00  0.00    -0.301 N 
ATOM     21  C   UNL     1       3.124   5.800  18.524  0.00  0.00    +0.219 C 
ATOM     22  O   UNL     1       4.315   6.023  18.749  0.00  0.00    -0.275 OA
ATOM     23  C   UNL     1       1.365   4.138  17.748  0.00  0.00    +0.017 C 
ATOM     24  H   UNL     1       0.307   2.369  18.353  0.00  0.00    +0.031 HD
ATOM     25  H   UNL     1       2.143   1.479  17.124  0.00  0.00    +0.027 HD
ATOM     26  H   UNL     1       2.398   0.977  18.790  0.00  0.00    +0.027 HD
ATOM     27  H   UNL     1       4.103   2.714  19.113  0.00  0.00    +0.028 HD
ATOM     28  H   UNL     1       4.492   1.797  17.659  0.00  0.00    +0.028 HD
ATOM     29  H   UNL     1       4.735   4.254  17.283  0.00  0.00    +0.046 HD
ATOM     30  H   UNL     1       3.503   3.569  16.226  0.00  0.00    +0.046 HD
ATOM     31  H   UNL     1       1.132   3.932  16.697  0.00  0.00    +0.047 HD
ATOM     32  H   UNL     1       0.617   4.848  18.102  0.00  0.00    +0.047 HD
BRANCH  16  33
ATOM     33  C   UNL     1       1.328   3.107  20.069  0.00  0.00    -0.061 C 
ATOM     34  H   UNL     1       1.453   4.177  20.262  0.00  0.00    +0.023 HD
ATOM     35  H   UNL     1       2.154   2.581  20.558  0.00  0.00    +0.023 HD
ATOM     36  H   UNL     1       0.397   2.790  20.548  0.00  0.00    +0.023 HD
ENDBRANCH  16  33
ENDBRANCH   1  21
BRANCH   4  37
ATOM     37  C   UNL     1       0.552  10.133  21.215  0.00  0.00    +0.033 A 
ATOM     38  C   UNL     1      -0.212   9.832  22.350  0.00  0.00    -0.022 A 
ATOM     39  C   UNL     1      -0.882  10.841  23.025  0.00  0.00    +0.030 A 
ATOM     40  N   UNL     1      -0.841  12.135  22.661  0.00  0.00    -0.250 NA
ATOM     41  C   UNL     1      -0.086  12.429  21.578  0.00  0.00    +0.127 A 
ATOM     42  C   UNL     1       0.618  11.477  20.840  0.00  0.00    -0.010 A 
ATOM     43  H   UNL     1      -0.271   8.816  22.728  0.00  0.00    +0.065 HD
ATOM     44  H   UNL     1      -1.479  10.624  23.905  0.00  0.00    +0.083 HD
ATOM     45  H   UNL     1       1.169  11.794  19.964  0.00  0.00    +0.066 HD
BRANCH  41  46
ATOM     46  C   UNL     1      -0.026  13.873  21.187  0.00  0.00    +0.260 C 
ATOM     47  N   UNL     1       0.339  14.763  22.170  0.00  0.00    -0.324 N 
ATOM     48  O   UNL     1      -0.306  14.276  20.065  0.00  0.00    -0.269 OA
ATOM     49  H   UNL     1       0.197  15.736  21.925  0.00  0.00    +0.145 HD
ATOM     50  H   UNL     1       0.222  14.520  23.145  0.00  0.00    +0.145 HD
ENDBRANCH  41  46
ENDBRANCH   4  37
TORSDOF 4
ENDMDL
MODEL 9
REMARK VINA RESULT:    -7.055      2.302      8.726
REMARK INTER + INTRA:          -9.117
REMARK INTER:                  -8.582
REMARK INTRA:                  -0.535
REMARK UNBOUND:                -0.618
REMARK  Name = 
REMARK  4 active torsions:
REMARK  status: ('A' for Active; 'I' for Inactive)
REMARK    1  A    between atoms: C_1  and  C_2
REMARK    2  A    between atoms: C_7  and  C_9
REMARK    3  A    between atoms: N_12  and  C_13
REMARK    4  A    between atoms: C_17  and  C_18
REMARK                            x       y       z     vdW  Elec       q    Type
REMARK                         _______ _______ _______ _____ _____    ______ ____
ROOT
ATOM      1  C   UNL     1       1.253  10.007  19.207  0.00  0.00    +0.039 C 
ATOM      2  C   UNL     1       0.872   8.910  20.212  0.00  0.00    -0.026 C 
ATOM      3  C   UNL     1       1.956   7.839  20.300  0.00  0.00    +0.013 C 
ATOM      4  N   UNL     1       2.223   7.283  18.958  0.00  0.00    -0.330 N 
ATOM      5  C   UNL     1       2.608   8.286  17.956  0.00  0.00    +0.013 C 
ATOM      6  C   UNL     1       1.526   9.358  17.844  0.00  0.00    -0.026 C 
ATOM      7  H   UNL     1       2.157  10.493  19.592  0.00  0.00    +0.040 HD
ATOM      8  H   UNL     1       0.709   9.350  21.203  0.00  0.00    +0.029 HD
ATOM      9  H   UNL     1      -0.076   8.439  19.917  0.00  0.00    +0.029 HD
ATOM     10  H   UNL     1       2.878   8.270  20.712  0.00  0.00    +0.046 HD
ATOM     11  H   UNL     1       1.610   7.075  21.005  0.00  0.00    +0.046 HD
ATOM     12  H   UNL     1       3.563   8.753  18.226  0.00  0.00    +0.046 HD
ATOM     13  H   UNL     1       2.720   7.820  16.969  0.00  0.00    +0.046 HD
ATOM     14  H   UNL     1       1.832  10.102  17.102  0.00  0.00    +0.029 HD
ATOM     15  H   UNL     1       0.600   8.908  17.461  0.00  0.00    +0.029 HD
ENDROOT
BRANCH   1  21
ATOM     16  C   UNL     1       2.077  13.947  19.371  0.00  0.00    -0.028 C 
ATOM     17  C   UNL     1       0.954  15.000  19.330  0.00  0.00    -0.048 C 
ATOM     18  C   UNL     1      -0.443  14.377  19.410  0.00  0.00    -0.037 C 
ATOM     19  C   UNL     1      -0.606  13.272  18.370  0.00  0.00    +0.015 C 
ATOM     20  N   UNL     1       0.458  12.279  18.511  0.00  0.00    -0.301 N 
ATOM     21  C   UNL     1       0.144  11.052  19.089  0.00  0.00    +0.219 C 
ATOM     22  O   UNL     1      -0.999  10.793  19.470  0.00  0.00    -0.275 OA
ATOM     23  C   UNL     1       1.806  12.827  18.351  0.00  0.00    +0.017 C 
ATOM     24  H   UNL     1       3.015  14.442  19.089  0.00  0.00    +0.031 HD
ATOM     25  H   UNL     1       1.032  15.559  18.389  0.00  0.00    +0.027 HD
ATOM     26  H   UNL     1       1.081  15.730  20.138  0.00  0.00    +0.027 HD
ATOM     27  H   UNL     1      -0.607  13.968  20.414  0.00  0.00    +0.028 HD
ATOM     28  H   UNL     1      -1.202  15.151  19.251  0.00  0.00    +0.028 HD
ATOM     29  H   UNL     1      -1.596  12.814  18.462  0.00  0.00    +0.046 HD
ATOM     30  H   UNL     1      -0.536  13.688  17.358  0.00  0.00    +0.046 HD
ATOM     31  H   UNL     1       1.866  13.233  17.334  0.00  0.00    +0.047 HD
ATOM     32  H   UNL     1       2.577  12.060  18.428  0.00  0.00    +0.047 HD
BRANCH  16  33
ATOM     33  C   UNL     1       2.273  13.389  20.783  0.00  0.00    -0.061 C 
ATOM     34  H   UNL     1       3.309  13.524  21.109  0.00  0.00    +0.023 HD
ATOM     35  H   UNL     1       2.040  12.321  20.844  0.00  0.00    +0.023 HD
ATOM     36  H   UNL     1       1.630  13.914  21.497  0.00  0.00    +0.023 HD
ENDBRANCH  16  33
ENDBRANCH   1  21
BRANCH   4  37
ATOM     37  C   UNL     1       2.935   6.069  18.982  0.00  0.00    +0.033 A 
ATOM     38  C   UNL     1       2.465   5.005  19.764  0.00  0.00    -0.022 A 
ATOM     39  C   UNL     1       3.160   3.806  19.795  0.00  0.00    +0.030 A 
ATOM     40  N   UNL     1       4.287   3.578  19.096  0.00  0.00    -0.250 NA
ATOM     41  C   UNL     1       4.728   4.599  18.325  0.00  0.00    +0.127 A 
ATOM     42  C   UNL     1       4.094   5.838  18.237  0.00  0.00    -0.010 A 
ATOM     43  H   UNL     1       1.545   5.096  20.333  0.00  0.00    +0.065 HD
ATOM     44  H   UNL     1       2.810   2.972  20.396  0.00  0.00    +0.083 HD
ATOM     45  H   UNL     1       4.536   6.612  17.623  0.00  0.00    +0.066 HD
BRANCH  41  46
ATOM     46  C   UNL     1       5.972   4.337  17.533  0.00  0.00    +0.260 C 
ATOM     47  N   UNL     1       7.158   4.334  18.231  0.00  0.00    -0.324 N 
ATOM     48  O   UNL     1       5.970   4.154  16.323  0.00  0.00    -0.269 OA
ATOM     49  H   UNL     1       7.985   4.333  17.646  0.00  0.00    +0.145 HD
ATOM     50  H   UNL     1       7.228   4.821  19.115  0.00  0.00    +0.145 HD
ENDBRANCH  41  46
ENDBRANCH   4  37
TORSDOF 4
ENDMDL
MODEL 10
REMARK VINA RESULT:    -7.045      1.630      2.809
REMARK INTER + INTRA:          -9.104
REMARK INTER:                  -8.411
REMARK INTRA:                  -0.693
REMARK UNBOUND:                -0.618
REMARK  Name = 
REMARK  4 active torsions:
REMARK  status: ('A' for Active; 'I' for Inactive)
REMARK    1  A    between atoms: C_1  and  C_2
REMARK    2  A    between atoms: C_7  and  C_9
REMARK    3  A    between atoms: N_12  and  C_13
REMARK    4  A    between atoms: C_17  and  C_18
REMARK                            x       y       z     vdW  Elec       q    Type
REMARK                         _______ _______ _______ _____ _____    ______ ____
ROOT
ATOM      1  C   UNL     1       2.725   6.866  18.953  0.00  0.00    +0.039 C 
ATOM      2  C   UNL     1       2.040   7.725  17.879  0.00  0.00    -0.026 C 
ATOM      3  C   UNL     1       1.765   9.135  18.393  0.00  0.00    +0.013 C 
ATOM      4  N   UNL     1       0.968   9.073  19.634  0.00  0.00    -0.330 N 
ATOM      5  C   UNL     1       1.582   8.275  20.704  0.00  0.00    +0.013 C 
ATOM      6  C   UNL     1       1.850   6.854  20.212  0.00  0.00    -0.026 C 
ATOM      7  H   UNL     1       3.696   7.329  19.161  0.00  0.00    +0.040 HD
ATOM      8  H   UNL     1       2.669   7.776  16.983  0.00  0.00    +0.029 HD
ATOM      9  H   UNL     1       1.092   7.263  17.573  0.00  0.00    +0.029 HD
ATOM     10  H   UNL     1       2.712   9.656  18.587  0.00  0.00    +0.046 HD
ATOM     11  H   UNL     1       1.251   9.683  17.596  0.00  0.00    +0.046 HD
ATOM     12  H   UNL     1       2.522   8.734  21.036  0.00  0.00    +0.046 HD
ATOM     13  H   UNL     1       0.908   8.208  21.568  0.00  0.00    +0.046 HD
ATOM     14  H   UNL     1       2.316   6.277  21.017  0.00  0.00    +0.029 HD
ATOM     15  H   UNL     1       0.897   6.355  19.992  0.00  0.00    +0.029 HD
ENDROOT
BRANCH   1  21
ATOM     16  C   UNL     1       5.952   5.940  16.726  0.00  0.00    -0.028 C 
ATOM     17  C   UNL     1       6.147   4.525  16.153  0.00  0.00    -0.048 C 
ATOM     18  C   UNL     1       4.927   3.625  16.370  0.00  0.00    -0.037 C 
ATOM     19  C   UNL     1       4.496   3.637  17.834  0.00  0.00    +0.015 C 
ATOM     20  N   UNL     1       4.269   5.008  18.288  0.00  0.00    -0.301 N 
ATOM     21  C   UNL     1       2.956   5.441  18.449  0.00  0.00    +0.219 C 
ATOM     22  O   UNL     1       2.000   4.696  18.227  0.00  0.00    -0.275 OA
ATOM     23  C   UNL     1       5.446   5.872  18.177  0.00  0.00    +0.017 C 
ATOM     24  H   UNL     1       6.928   6.441  16.730  0.00  0.00    +0.031 HD
ATOM     25  H   UNL     1       7.012   4.063  16.648  0.00  0.00    +0.027 HD
ATOM     26  H   UNL     1       6.389   4.571  15.084  0.00  0.00    +0.027 HD
ATOM     27  H   UNL     1       4.099   3.969  15.738  0.00  0.00    +0.028 HD
ATOM     28  H   UNL     1       5.162   2.601  16.060  0.00  0.00    +0.028 HD
ATOM     29  H   UNL     1       3.604   3.018  17.967  0.00  0.00    +0.046 HD
ATOM     30  H   UNL     1       5.283   3.207  18.466  0.00  0.00    +0.046 HD
ATOM     31  H   UNL     1       6.222   5.437  18.818  0.00  0.00    +0.047 HD
ATOM     32  H   UNL     1       5.257   6.879  18.553  0.00  0.00    +0.047 HD
BRANCH  16  33
ATOM     33  C   UNL     1       5.024   6.780  15.843  0.00  0.00    -0.061 C 
ATOM     34  H   UNL     1       4.579   6.161  15.057  0.00  0.00    +0.023 HD
ATOM     35  H   UNL     1       5.550   7.609  15.358  0.00  0.00    +0.023 HD
ATOM     36  H   UNL     1       4.207   7.202  16.436  0.00  0.00    +0.023 HD
ENDBRANCH  16  33
ENDBRANCH   1  21
BRANCH   4  37
ATOM     37  C   UNL     1       0.373  10.299  19.985  0.00  0.00    +0.033 A 
ATOM     38  C   UNL     1       0.301  11.331  19.039  0.00  0.00    -0.022 A 
ATOM     39  C   UNL     1      -0.283  12.543  19.376  0.00  0.00    +0.030 A 
ATOM     40  N   UNL     1      -0.813  12.805  20.584  0.00  0.00    -0.250 NA
ATOM     41  C   UNL     1      -0.762  11.801  21.489  0.00  0.00    +0.127 A 
ATOM     42  C   UNL     1      -0.192  10.554  21.237  0.00  0.00    -0.010 A 
ATOM     43  H   UNL     1       0.677  11.189  18.031  0.00  0.00    +0.065 HD
ATOM     44  H   UNL     1      -0.345  13.352  18.655  0.00  0.00    +0.083 HD
ATOM     45  H   UNL     1      -0.162   9.819  22.032  0.00  0.00    +0.066 HD
BRANCH  41  46
ATOM     46  C   UNL     1      -1.371  12.089  22.827  0.00  0.00    +0.260 C 
ATOM     47  N   UNL     1      -1.026  13.284  23.417  0.00  0.00    -0.324 N 
ATOM     48  O   UNL     1      -2.120  11.312  23.404  0.00  0.00    -0.269 OA
ATOM     49  H   UNL     1      -1.308  13.366  24.386  0.00  0.00    +0.145 HD
ATOM     50  H   UNL     1      -0.170  13.752  23.152  0.00  0.00    +0.145 HD
ENDBRANCH  41  46
ENDBRANCH   4  37
TORSDOF 4
ENDMDL
MODEL 11
REMARK VINA RESULT:    -6.998      2.004      2.723
REMARK INTER + INTRA:          -9.048
REMARK INTER:                  -9.654
REMARK INTRA:                   0.606
REMARK UNBOUND:                -0.618
REMARK  Name = 
REMARK  4 active torsions:
REMARK  status: ('A' for Active; 'I' for Inactive)
REMARK    1  A    between atoms: C_1  and  C_2
REMARK    2  A    between atoms: C_7  and  C_9
REMARK    3  A    between atoms: N_12  and  C_13
REMARK    4  A    between atoms: C_17  and  C_18
REMARK                            x       y       z     vdW  Elec       q    Type
REMARK                         _______ _______ _______ _____ _____    ______ ____
ROOT
ATOM      1  C   UNL     1       3.479   6.644  19.068  0.00  0.00    +0.039 C 
ATOM      2  C   UNL     1       2.933   7.301  17.792  0.00  0.00    -0.026 C 
ATOM      3  C   UNL     1       2.345   8.678  18.087  0.00  0.00    +0.013 C 
ATOM      4  N   UNL     1       1.309   8.571  19.133  0.00  0.00    -0.330 N 
ATOM      5  C   UNL     1       1.779   7.962  20.385  0.00  0.00    +0.013 C 
ATOM      6  C   UNL     1       2.356   6.574  20.110  0.00  0.00    -0.026 C 
ATOM      7  H   UNL     1       4.300   7.275  19.426  0.00  0.00    +0.040 HD
ATOM      8  H   UNL     1       3.732   7.393  17.047  0.00  0.00    +0.029 HD
ATOM      9  H   UNL     1       2.155   6.667  17.343  0.00  0.00    +0.029 HD
ATOM     10  H   UNL     1       3.138   9.362  18.420  0.00  0.00    +0.046 HD
ATOM     11  H   UNL     1       1.947   9.077  17.147  0.00  0.00    +0.046 HD
ATOM     12  H   UNL     1       2.543   8.592  20.857  0.00  0.00    +0.046 HD
ATOM     13  H   UNL     1       0.947   7.844  21.091  0.00  0.00    +0.046 HD
ATOM     14  H   UNL     1       2.710   6.140  21.050  0.00  0.00    +0.029 HD
ATOM     15  H   UNL     1       1.560   5.910  19.748  0.00  0.00    +0.029 HD
ENDROOT
BRANCH   1  21
ATOM     16  C   UNL     1       1.016   3.470  18.757  0.00  0.00    -0.028 C 
ATOM     17  C   UNL     1       1.570   2.050  18.539  0.00  0.00    -0.048 C 
ATOM     18  C   UNL     1       3.096   1.986  18.645  0.00  0.00    -0.037 C 
ATOM     19  C   UNL     1       3.747   3.037  17.750  0.00  0.00    +0.015 C 
ATOM     20  N   UNL     1       3.219   4.365  18.058  0.00  0.00    -0.301 N 
ATOM     21  C   UNL     1       4.024   5.246  18.775  0.00  0.00    +0.219 C 
ATOM     22  O   UNL     1       5.157   4.929  19.142  0.00  0.00    -0.275 OA
ATOM     23  C   UNL     1       1.770   4.485  17.880  0.00  0.00    +0.017 C 
ATOM     24  H   UNL     1      -0.037   3.474  18.451  0.00  0.00    +0.031 HD
ATOM     25  H   UNL     1       1.275   1.709  17.537  0.00  0.00    +0.027 HD
ATOM     26  H   UNL     1       1.119   1.348  19.251  0.00  0.00    +0.027 HD
ATOM     27  H   UNL     1       3.400   2.147  19.686  0.00  0.00    +0.028 HD
ATOM     28  H   UNL     1       3.445   0.988  18.359  0.00  0.00    +0.028 HD
ATOM     29  H   UNL     1       4.835   3.003  17.862  0.00  0.00    +0.046 HD
ATOM     30  H   UNL     1       3.525   2.831  16.696  0.00  0.00    +0.046 HD
ATOM     31  H   UNL     1       1.562   4.284  16.822  0.00  0.00    +0.047 HD
ATOM     32  H   UNL     1       1.410   5.493  18.084  0.00  0.00    +0.047 HD
BRANCH  16  33
ATOM     33  C   UNL     1       1.053   3.866  20.236  0.00  0.00    -0.061 C 
ATOM     34  H   UNL     1       0.594   4.849  20.382  0.00  0.00    +0.023 HD
ATOM     35  H   UNL     1       2.074   3.912  20.628  0.00  0.00    +0.023 HD
ATOM     36  H   UNL     1       0.493   3.146  20.841  0.00  0.00    +0.023 HD
ENDBRANCH  16  33
ENDBRANCH   1  21
BRANCH   4  37
ATOM     37  C   UNL     1       0.477   9.702  19.222  0.00  0.00    +0.033 A 
ATOM     38  C   UNL     1       0.716  10.662  20.215  0.00  0.00    -0.022 A 
ATOM     39  C   UNL     1      -0.100  11.779  20.311  0.00  0.00    +0.030 A 
ATOM     40  N   UNL     1      -1.132  12.022  19.484  0.00  0.00    -0.250 NA
ATOM     41  C   UNL     1      -1.348  11.106  18.512  0.00  0.00    +0.127 A 
ATOM     42  C   UNL     1      -0.581   9.953  18.346  0.00  0.00    -0.010 A 
ATOM     43  H   UNL     1       1.549  10.556  20.902  0.00  0.00    +0.065 HD
ATOM     44  H   UNL     1       0.071  12.532  21.075  0.00  0.00    +0.083 HD
ATOM     45  H   UNL     1      -0.847   9.254  17.563  0.00  0.00    +0.066 HD
BRANCH  41  46
ATOM     46  C   UNL     1      -2.487  11.389  17.581  0.00  0.00    +0.260 C 
ATOM     47  N   UNL     1      -2.176  11.509  16.247  0.00  0.00    -0.324 N 
ATOM     48  O   UNL     1      -3.642  11.534  17.960  0.00  0.00    -0.269 OA
ATOM     49  H   UNL     1      -2.930  11.873  15.675  0.00  0.00    +0.145 HD
ATOM     50  H   UNL     1      -1.236  11.750  15.964  0.00  0.00    +0.145 HD
ENDBRANCH  41  46
ENDBRANCH   4  37
TORSDOF 4
ENDMDL
MODEL 12
REMARK VINA RESULT:    -6.983      2.370      8.501
REMARK INTER + INTRA:          -9.030
REMARK INTER:                  -8.537
REMARK INTRA:                  -0.493
REMARK UNBOUND:                -0.618
REMARK  Name = 
REMARK  4 active torsions:
REMARK  status: ('A' for Active; 'I' for Inactive)
REMARK    1  A    between atoms: C_1  and  C_2
REMARK    2  A    between atoms: C_7  and  C_9
REMARK    3  A    between atoms: N_12  and  C_13
REMARK    4  A    between atoms: C_17  and  C_18
REMARK                            x       y       z     vdW  Elec       q    Type
REMARK                         _______ _______ _______ _____ _____    ______ ____
ROOT
ATOM      1  C   UNL     1       1.229   9.765  19.218  0.00  0.00    +0.039 C 
ATOM      2  C   UNL     1       0.985   8.558  20.135  0.00  0.00    -0.026 C 
ATOM      3  C   UNL     1       2.143   7.566  20.063  0.00  0.00    +0.013 C 
ATOM      4  N   UNL     1       2.367   7.154  18.662  0.00  0.00    -0.330 N 
ATOM      5  C   UNL     1       2.620   8.269  17.740  0.00  0.00    +0.013 C 
ATOM      6  C   UNL     1       1.463   9.264  17.788  0.00  0.00    -0.026 C 
ATOM      7  H   UNL     1       2.119  10.280  19.598  0.00  0.00    +0.040 HD
ATOM      8  H   UNL     1       0.852   8.893  21.170  0.00  0.00    +0.029 HD
ATOM      9  H   UNL     1       0.056   8.046  19.848  0.00  0.00    +0.029 HD
ATOM     10  H   UNL     1       3.056   8.024  20.464  0.00  0.00    +0.046 HD
ATOM     11  H   UNL     1       1.894   6.718  20.711  0.00  0.00    +0.046 HD
ATOM     12  H   UNL     1       3.556   8.779  18.001  0.00  0.00    +0.046 HD
ATOM     13  H   UNL     1       2.705   7.903  16.709  0.00  0.00    +0.046 HD
ATOM     14  H   UNL     1       1.673  10.092  17.104  0.00  0.00    +0.029 HD
ATOM     15  H   UNL     1       0.549   8.784  17.414  0.00  0.00    +0.029 HD
ENDROOT
BRANCH   1  21
ATOM     16  C   UNL     1       1.799  13.753  19.322  0.00  0.00    -0.028 C 
ATOM     17  C   UNL     1       0.612  14.725  19.441  0.00  0.00    -0.048 C 
ATOM     18  C   UNL     1      -0.717  14.009  19.695  0.00  0.00    -0.037 C 
ATOM     19  C   UNL     1      -0.940  12.898  18.672  0.00  0.00    +0.015 C 
ATOM     20  N   UNL     1       0.198  11.980  18.661  0.00  0.00    -0.301 N 
ATOM     21  C   UNL     1       0.046  10.733  19.259  0.00  0.00    +0.219 C 
ATOM     22  O   UNL     1      -1.018  10.394  19.782  0.00  0.00    -0.275 OA
ATOM     23  C   UNL     1       1.473  12.620  18.333  0.00  0.00    +0.017 C 
ATOM     24  H   UNL     1       2.657  14.312  18.927  0.00  0.00    +0.031 HD
ATOM     25  H   UNL     1       0.528  15.292  18.505  0.00  0.00    +0.027 HD
ATOM     26  H   UNL     1       0.794  15.460  20.235  0.00  0.00    +0.027 HD
ATOM     27  H   UNL     1      -0.721  13.586  20.707  0.00  0.00    +0.028 HD
ATOM     28  H   UNL     1      -1.542  14.729  19.646  0.00  0.00    +0.028 HD
ATOM     29  H   UNL     1      -1.876  12.373  18.886  0.00  0.00    +0.046 HD
ATOM     30  H   UNL     1      -1.031  13.321  17.664  0.00  0.00    +0.046 HD
ATOM     31  H   UNL     1       1.372  13.032  17.321  0.00  0.00    +0.047 HD
ATOM     32  H   UNL     1       2.298  11.907  18.299  0.00  0.00    +0.047 HD
BRANCH  16  33
ATOM     33  C   UNL     1       2.215  13.204  20.690  0.00  0.00    -0.061 C 
ATOM     34  H   UNL     1       3.295  13.313  20.835  0.00  0.00    +0.023 HD
ATOM     35  H   UNL     1       1.967  12.144  20.805  0.00  0.00    +0.023 HD
ATOM     36  H   UNL     1       1.717  13.755  21.494  0.00  0.00    +0.023 HD
ENDBRANCH  16  33
ENDBRANCH   1  21
BRANCH   4  37
ATOM     37  C   UNL     1       3.160   5.998  18.534  0.00  0.00    +0.033 A 
ATOM     38  C   UNL     1       4.047   5.883  17.456  0.00  0.00    -0.022 A 
ATOM     39  C   UNL     1       4.832   4.748  17.321  0.00  0.00    +0.030 A 
ATOM     40  N   UNL     1       4.810   3.718  18.185  0.00  0.00    -0.250 NA
ATOM     41  C   UNL     1       3.968   3.840  19.238  0.00  0.00    +0.127 A 
ATOM     42  C   UNL     1       3.142   4.944  19.449  0.00  0.00    -0.010 A 
ATOM     43  H   UNL     1       4.149   6.684  16.730  0.00  0.00    +0.065 HD
ATOM     44  H   UNL     1       5.524   4.642  16.490  0.00  0.00    +0.083 HD
ATOM     45  H   UNL     1       2.472   4.943  20.300  0.00  0.00    +0.066 HD
BRANCH  41  46
ATOM     46  C   UNL     1       3.960   2.701  20.210  0.00  0.00    +0.260 C 
ATOM     47  N   UNL     1       4.993   1.798  20.111  0.00  0.00    -0.324 N 
ATOM     48  O   UNL     1       3.080   2.540  21.047  0.00  0.00    -0.269 OA
ATOM     49  H   UNL     1       4.862   0.954  20.656  0.00  0.00    +0.145 HD
ATOM     50  H   UNL     1       5.502   1.702  19.242  0.00  0.00    +0.145 HD
ENDBRANCH  41  46
ENDBRANCH   4  37
TORSDOF 4
ENDMDL
MODEL 13
REMARK VINA RESULT:    -6.950      2.299      8.611
REMARK INTER + INTRA:          -8.990
REMARK INTER:                  -8.453
REMARK INTRA:                  -0.538
REMARK UNBOUND:                -0.618
REMARK  Name = 
REMARK  4 active torsions:
REMARK  status: ('A' for Active; 'I' for Inactive)
REMARK    1  A    between atoms: C_1  and  C_2
REMARK    2  A    between atoms: C_7  and  C_9
REMARK    3  A    between atoms: N_12  and  C_13
REMARK    4  A    between atoms: C_17  and  C_18
REMARK                            x       y       z     vdW  Elec       q    Type
REMARK                         _______ _______ _______ _____ _____    ______ ____
ROOT
ATOM      1  C   UNL     1       1.230  10.028  19.158  0.00  0.00    +0.039 C 
ATOM      2  C   UNL     1       0.870   8.933  20.173  0.00  0.00    -0.026 C 
ATOM      3  C   UNL     1       1.932   7.837  20.202  0.00  0.00    +0.013 C 
ATOM      4  N   UNL     1       2.124   7.284  18.846  0.00  0.00    -0.330 N 
ATOM      5  C   UNL     1       2.485   8.287  17.834  0.00  0.00    +0.013 C 
ATOM      6  C   UNL     1       1.424   9.384  17.780  0.00  0.00    -0.026 C 
ATOM      7  H   UNL     1       2.162  10.490  19.504  0.00  0.00    +0.040 HD
ATOM      8  H   UNL     1       0.764   9.369  21.173  0.00  0.00    +0.029 HD
ATOM      9  H   UNL     1      -0.101   8.486  19.919  0.00  0.00    +0.029 HD
ATOM     10  H   UNL     1       2.882   8.243  20.575  0.00  0.00    +0.046 HD
ATOM     11  H   UNL     1       1.602   7.076  20.918  0.00  0.00    +0.046 HD
ATOM     12  H   UNL     1       3.463   8.729  18.062  0.00  0.00    +0.046 HD
ATOM     13  H   UNL     1       2.540   7.826  16.840  0.00  0.00    +0.046 HD
ATOM     14  H   UNL     1       1.714  10.127  17.030  0.00  0.00    +0.029 HD
ATOM     15  H   UNL     1       0.472   8.959  17.437  0.00  0.00    +0.029 HD
ENDROOT
BRANCH   1  21
ATOM     16  C   UNL     1       2.152  13.947  19.330  0.00  0.00    -0.028 C 
ATOM     17  C   UNL     1       1.053  15.025  19.348  0.00  0.00    -0.048 C 
ATOM     18  C   UNL     1      -0.354  14.434  19.481  0.00  0.00    -0.037 C 
ATOM     19  C   UNL     1      -0.586  13.344  18.437  0.00  0.00    +0.015 C 
ATOM     20  N   UNL     1       0.460  12.326  18.522  0.00  0.00    -0.301 N 
ATOM     21  C   UNL     1       0.142  11.100  19.099  0.00  0.00    +0.219 C 
ATOM     22  O   UNL     1      -0.990  10.863  19.525  0.00  0.00    -0.275 OA
ATOM     23  C   UNL     1       1.812  12.845  18.310  0.00  0.00    +0.017 C 
ATOM     24  H   UNL     1       3.088  14.423  19.014  0.00  0.00    +0.031 HD
ATOM     25  H   UNL     1       1.104  15.594  18.410  0.00  0.00    +0.027 HD
ATOM     26  H   UNL     1       1.231  15.743  20.158  0.00  0.00    +0.027 HD
ATOM     27  H   UNL     1      -0.485  14.017  20.486  0.00  0.00    +0.028 HD
ATOM     28  H   UNL     1      -1.101  15.226  19.362  0.00  0.00    +0.028 HD
ATOM     29  H   UNL     1      -1.581  12.909  18.565  0.00  0.00    +0.046 HD
ATOM     30  H   UNL     1      -0.549  13.771  17.427  0.00  0.00    +0.046 HD
ATOM     31  H   UNL     1       1.838  13.261  17.296  0.00  0.00    +0.047 HD
ATOM     32  H   UNL     1       2.568  12.060  18.346  0.00  0.00    +0.047 HD
BRANCH  16  33
ATOM     33  C   UNL     1       2.394  13.368  20.726  0.00  0.00    -0.061 C 
ATOM     34  H   UNL     1       1.450  13.283  21.276  0.00  0.00    +0.023 HD
ATOM     35  H   UNL     1       3.072  13.988  21.321  0.00  0.00    +0.023 HD
ATOM     36  H   UNL     1       2.828  12.366  20.658  0.00  0.00    +0.023 HD
ENDBRANCH  16  33
ENDBRANCH   1  21
BRANCH   4  37
ATOM     37  C   UNL     1       2.807   6.054  18.829  0.00  0.00    +0.033 A 
ATOM     38  C   UNL     1       4.202   6.035  18.958  0.00  0.00    -0.022 A 
ATOM     39  C   UNL     1       4.884   4.827  18.942  0.00  0.00    +0.030 A 
ATOM     40  N   UNL     1       4.281   3.632  18.817  0.00  0.00    -0.250 NA
ATOM     41  C   UNL     1       2.932   3.651  18.713  0.00  0.00    +0.127 A 
ATOM     42  C   UNL     1       2.168   4.818  18.718  0.00  0.00    -0.010 A 
ATOM     43  H   UNL     1       4.762   6.954  19.096  0.00  0.00    +0.065 HD
ATOM     44  H   UNL     1       5.965   4.795  19.040  0.00  0.00    +0.083 HD
ATOM     45  H   UNL     1       1.095   4.743  18.594  0.00  0.00    +0.066 HD
BRANCH  41  46
ATOM     46  C   UNL     1       2.262   2.317  18.593  0.00  0.00    +0.260 C 
ATOM     47  N   UNL     1       3.085   1.217  18.517  0.00  0.00    -0.324 N 
ATOM     48  O   UNL     1       1.046   2.180  18.539  0.00  0.00    -0.269 OA
ATOM     49  H   UNL     1       2.611   0.360  18.260  0.00  0.00    +0.145 HD
ATOM     50  H   UNL     1       4.041   1.320  18.203  0.00  0.00    +0.145 HD
ENDBRANCH  41  46
ENDBRANCH   4  37
TORSDOF 4
ENDMDL
MODEL 14
REMARK VINA RESULT:    -6.665      1.827      2.991
REMARK INTER + INTRA:          -8.647
REMARK INTER:                  -7.996
REMARK INTRA:                  -0.651
REMARK UNBOUND:                -0.618
REMARK  Name = 
REMARK  4 active torsions:
REMARK  status: ('A' for Active; 'I' for Inactive)
REMARK    1  A    between atoms: C_1  and  C_2
REMARK    2  A    between atoms: C_7  and  C_9
REMARK    3  A    between atoms: N_12  and  C_13
REMARK    4  A    between atoms: C_17  and  C_18
REMARK                            x       y       z     vdW  Elec       q    Type
REMARK                         _______ _______ _______ _____ _____    ______ ____
ROOT
ATOM      1  C   UNL     1       2.723   7.006  18.936  0.00  0.00    +0.039 C 
ATOM      2  C   UNL     1       2.106   7.779  17.762  0.00  0.00    -0.026 C 
ATOM      3  C   UNL     1       1.831   9.232  18.140  0.00  0.00    +0.013 C 
ATOM      4  N   UNL     1       0.976   9.288  19.342  0.00  0.00    -0.330 N 
ATOM      5  C   UNL     1       1.524   8.576  20.504  0.00  0.00    +0.013 C 
ATOM      6  C   UNL     1       1.790   7.114  20.148  0.00  0.00    -0.026 C 
ATOM      7  H   UNL     1       3.692   7.472  19.151  0.00  0.00    +0.040 HD
ATOM      8  H   UNL     1       2.777   7.745  16.896  0.00  0.00    +0.029 HD
ATOM      9  H   UNL     1       1.165   7.305  17.450  0.00  0.00    +0.029 HD
ATOM     10  H   UNL     1       2.778   9.755  18.334  0.00  0.00    +0.046 HD
ATOM     11  H   UNL     1       1.365   9.717  17.275  0.00  0.00    +0.046 HD
ATOM     12  H   UNL     1       2.456   9.048  20.841  0.00  0.00    +0.046 HD
ATOM     13  H   UNL     1       0.810   8.592  21.337  0.00  0.00    +0.046 HD
ATOM     14  H   UNL     1       2.208   6.602  21.020  0.00  0.00    +0.029 HD
ATOM     15  H   UNL     1       0.840   6.611  19.925  0.00  0.00    +0.029 HD
ENDROOT
BRANCH   1  21
ATOM     16  C   UNL     1       5.948   5.874  16.802  0.00  0.00    -0.028 C 
ATOM     17  C   UNL     1       6.141   4.411  16.364  0.00  0.00    -0.048 C 
ATOM     18  C   UNL     1       4.920   3.537  16.664  0.00  0.00    -0.037 C 
ATOM     19  C   UNL     1       4.490   3.685  18.121  0.00  0.00    +0.015 C 
ATOM     20  N   UNL     1       4.265   5.092  18.445  0.00  0.00    -0.301 N 
ATOM     21  C   UNL     1       2.953   5.540  18.567  0.00  0.00    +0.219 C 
ATOM     22  O   UNL     1       1.996   4.779  18.416  0.00  0.00    -0.275 OA
ATOM     23  C   UNL     1       5.443   5.942  18.254  0.00  0.00    +0.017 C 
ATOM     24  H   UNL     1       6.925   6.372  16.760  0.00  0.00    +0.031 HD
ATOM     25  H   UNL     1       7.006   3.996  16.899  0.00  0.00    +0.027 HD
ATOM     26  H   UNL     1       6.382   4.357  15.295  0.00  0.00    +0.027 HD
ATOM     27  H   UNL     1       4.092   3.822  16.004  0.00  0.00    +0.028 HD
ATOM     28  H   UNL     1       5.154   2.488  16.451  0.00  0.00    +0.028 HD
ATOM     29  H   UNL     1       3.598   3.082  18.312  0.00  0.00    +0.046 HD
ATOM     30  H   UNL     1       5.278   3.315  18.790  0.00  0.00    +0.046 HD
ATOM     31  H   UNL     1       6.219   5.567  18.932  0.00  0.00    +0.047 HD
ATOM     32  H   UNL     1       5.256   6.979  18.535  0.00  0.00    +0.047 HD
BRANCH  16  33
ATOM     33  C   UNL     1       5.020   6.629  15.846  0.00  0.00    -0.061 C 
ATOM     34  H   UNL     1       4.174   5.998  15.554  0.00  0.00    +0.023 HD
ATOM     35  H   UNL     1       5.533   6.943  14.931  0.00  0.00    +0.023 HD
ATOM     36  H   UNL     1       4.615   7.523  16.329  0.00  0.00    +0.023 HD
ENDBRANCH  16  33
ENDBRANCH   1  21
BRANCH   4  37
ATOM     37  C   UNL     1       0.387  10.547  19.558  0.00  0.00    +0.033 A 
ATOM     38  C   UNL     1      -0.851  10.843  18.971  0.00  0.00    -0.022 A 
ATOM     39  C   UNL     1      -1.438  12.083  19.178  0.00  0.00    +0.030 A 
ATOM     40  N   UNL     1      -0.892  13.050  19.935  0.00  0.00    -0.250 NA
ATOM     41  C   UNL     1       0.293  12.755  20.519  0.00  0.00    +0.127 A 
ATOM     42  C   UNL     1       0.955  11.537  20.363  0.00  0.00    -0.010 A 
ATOM     43  H   UNL     1      -1.374  10.105  18.371  0.00  0.00    +0.065 HD
ATOM     44  H   UNL     1      -2.396  12.328  18.730  0.00  0.00    +0.083 HD
ATOM     45  H   UNL     1       1.918  11.399  20.837  0.00  0.00    +0.066 HD
BRANCH  41  46
ATOM     46  C   UNL     1       0.890  13.827  21.377  0.00  0.00    +0.260 C 
ATOM     47  N   UNL     1       2.203  14.155  21.131  0.00  0.00    -0.324 N 
ATOM     48  O   UNL     1       0.275  14.386  22.276  0.00  0.00    -0.269 OA
ATOM     49  H   UNL     1       2.624  14.747  21.837  0.00  0.00    +0.145 HD
ATOM     50  H   UNL     1       2.814  13.492  20.672  0.00  0.00    +0.145 HD
ENDBRANCH  41  46
ENDBRANCH   4  37
TORSDOF 4
ENDMDL
MODEL 15
REMARK VINA RESULT:    -6.661      2.143      8.763
REMARK INTER + INTRA:          -8.642
REMARK INTER:                  -8.200
REMARK INTRA:                  -0.442
REMARK UNBOUND:                -0.618
REMARK  Name = 
REMARK  4 active torsions:
REMARK  status: ('A' for Active; 'I' for Inactive)
REMARK    1  A    between atoms: C_1  and  C_2
REMARK    2  A    between atoms: C_7  and  C_9
REMARK    3  A    between atoms: N_12  and  C_13
REMARK    4  A    between atoms: C_17  and  C_18
REMARK                            x       y       z     vdW  Elec       q    Type
REMARK                         _______ _______ _______ _____ _____    ______ ____
ROOT
ATOM      1  C   UNL     1      -0.229  11.139  21.293  0.00  0.00    +0.039 C 
ATOM      2  C   UNL     1       0.786  11.097  20.141  0.00  0.00    -0.026 C 
ATOM      3  C   UNL     1       0.891   9.695  19.547  0.00  0.00    +0.013 C 
ATOM      4  N   UNL     1       1.226   8.722  20.607  0.00  0.00    -0.330 N 
ATOM      5  C   UNL     1       0.279   8.707  21.731  0.00  0.00    +0.013 C 
ATOM      6  C   UNL     1       0.174  10.101  22.348  0.00  0.00    -0.026 C 
ATOM      7  H   UNL     1      -1.208  10.895  20.865  0.00  0.00    +0.040 HD
ATOM      8  H   UNL     1       0.494  11.807  19.358  0.00  0.00    +0.029 HD
ATOM      9  H   UNL     1       1.776  11.411  20.497  0.00  0.00    +0.029 HD
ATOM     10  H   UNL     1      -0.061   9.415  19.075  0.00  0.00    +0.046 HD
ATOM     11  H   UNL     1       1.648   9.726  18.757  0.00  0.00    +0.046 HD
ATOM     12  H   UNL     1      -0.712   8.377  21.395  0.00  0.00    +0.046 HD
ATOM     13  H   UNL     1       0.624   8.020  22.514  0.00  0.00    +0.046 HD
ATOM     14  H   UNL     1      -0.541  10.074  23.175  0.00  0.00    +0.029 HD
ATOM     15  H   UNL     1       1.140  10.382  22.788  0.00  0.00    +0.029 HD
ENDROOT
BRANCH   1  21
ATOM     16  C   UNL     1      -3.739  12.733  22.463  0.00  0.00    -0.028 C 
ATOM     17  C   UNL     1      -3.819  14.167  23.017  0.00  0.00    -0.048 C 
ATOM     18  C   UNL     1      -2.495  14.925  22.889  0.00  0.00    -0.037 C 
ATOM     19  C   UNL     1      -1.342  14.110  23.471  0.00  0.00    +0.015 C 
ATOM     20  N   UNL     1      -1.292  12.787  22.853  0.00  0.00    -0.301 N 
ATOM     21  C   UNL     1      -0.296  12.534  21.914  0.00  0.00    +0.219 C 
ATOM     22  O   UNL     1       0.534  13.393  21.609  0.00  0.00    -0.275 OA
ATOM     23  C   UNL     1      -2.513  11.999  23.035  0.00  0.00    +0.017 C 
ATOM     24  H   UNL     1      -4.638  12.194  22.788  0.00  0.00    +0.031 HD
ATOM     25  H   UNL     1      -4.090  14.117  24.080  0.00  0.00    +0.027 HD
ATOM     26  H   UNL     1      -4.618  14.729  22.518  0.00  0.00    +0.027 HD
ATOM     27  H   UNL     1      -2.296  15.145  21.833  0.00  0.00    +0.028 HD
ATOM     28  H   UNL     1      -2.567  15.888  23.408  0.00  0.00    +0.028 HD
ATOM     29  H   UNL     1      -0.399  14.649  23.342  0.00  0.00    +0.046 HD
ATOM     30  H   UNL     1      -1.485  13.965  24.549  0.00  0.00    +0.046 HD
ATOM     31  H   UNL     1      -2.641  11.855  24.115  0.00  0.00    +0.047 HD
ATOM     32  H   UNL     1      -2.435  11.005  22.593  0.00  0.00    +0.047 HD
BRANCH  16  33
ATOM     33  C   UNL     1      -3.740  12.722  20.932  0.00  0.00    -0.061 C 
ATOM     34  H   UNL     1      -4.661  13.171  20.545  0.00  0.00    +0.023 HD
ATOM     35  H   UNL     1      -3.665  11.709  20.524  0.00  0.00    +0.023 HD
ATOM     36  H   UNL     1      -2.899  13.304  20.542  0.00  0.00    +0.023 HD
ENDBRANCH  16  33
ENDBRANCH   1  21
BRANCH   4  37
ATOM     37  C   UNL     1       1.684   7.486  20.114  0.00  0.00    +0.033 A 
ATOM     38  C   UNL     1       2.447   7.448  18.940  0.00  0.00    -0.022 A 
ATOM     39  C   UNL     1       2.902   6.235  18.447  0.00  0.00    +0.030 A 
ATOM     40  N   UNL     1       2.664   5.052  19.040  0.00  0.00    -0.250 NA
ATOM     41  C   UNL     1       1.945   5.092  20.186  0.00  0.00    +0.127 A 
ATOM     42  C   UNL     1       1.446   6.266  20.750  0.00  0.00    -0.010 A 
ATOM     43  H   UNL     1       2.711   8.362  18.417  0.00  0.00    +0.065 HD
ATOM     44  H   UNL     1       3.494   6.188  17.538  0.00  0.00    +0.083 HD
ATOM     45  H   UNL     1       0.849   6.203  21.651  0.00  0.00    +0.066 HD
BRANCH  41  46
ATOM     46  C   UNL     1       1.698   3.775  20.855  0.00  0.00    +0.260 C 
ATOM     47  N   UNL     1       0.693   2.996  20.330  0.00  0.00    -0.324 N 
ATOM     48  O   UNL     1       2.324   3.394  21.835  0.00  0.00    -0.269 OA
ATOM     49  H   UNL     1       0.435   2.204  20.907  0.00  0.00    +0.145 HD
ATOM     50  H   UNL     1      -0.046   3.420  19.785  0.00  0.00    +0.145 HD
ENDBRANCH  41  46
ENDBRANCH   4  37
TORSDOF 4
ENDMDL
MODEL 16
REMARK VINA RESULT:    -6.586      2.255      8.528
REMARK INTER + INTRA:          -8.553
REMARK INTER:                  -8.269
REMARK INTRA:                  -0.284
REMARK UNBOUND:                -0.618
REMARK  Name = 
REMARK  4 active torsions:
REMARK  status: ('A' for Active; 'I' for Inactive)
REMARK    1  A    between atoms: C_1  and  C_2
REMARK    2  A    between atoms: C_7  and  C_9
REMARK    3  A    between atoms: N_12  and  C_13
REMARK    4  A    between atoms: C_17  and  C_18
REMARK                            x       y       z     vdW  Elec       q    Type
REMARK                         _______ _______ _______ _____ _____    ______ ____
ROOT
ATOM      1  C   UNL     1       0.995   8.171  20.437  0.00  0.00    +0.039 C 
ATOM      2  C   UNL     1       2.022   8.691  19.421  0.00  0.00    -0.026 C 
ATOM      3  C   UNL     1       2.414   7.603  18.425  0.00  0.00    +0.013 C 
ATOM      4  N   UNL     1       2.911   6.414  19.146  0.00  0.00    -0.330 N 
ATOM      5  C   UNL     1       1.963   5.863  20.124  0.00  0.00    +0.013 C 
ATOM      6  C   UNL     1       1.572   6.935  21.139  0.00  0.00    -0.026 C 
ATOM      7  H   UNL     1       0.092   7.909  19.873  0.00  0.00    +0.040 HD
ATOM      8  H   UNL     1       1.613   9.553  18.882  0.00  0.00    +0.029 HD
ATOM      9  H   UNL     1       2.924   9.043  19.941  0.00  0.00    +0.029 HD
ATOM     10  H   UNL     1       1.547   7.327  17.809  0.00  0.00    +0.046 HD
ATOM     11  H   UNL     1       3.168   8.026  17.752  0.00  0.00    +0.046 HD
ATOM     12  H   UNL     1       1.063   5.488  19.618  0.00  0.00    +0.046 HD
ATOM     13  H   UNL     1       2.419   5.031  20.675  0.00  0.00    +0.046 HD
ATOM     14  H   UNL     1       0.858   6.511  21.852  0.00  0.00    +0.029 HD
ATOM     15  H   UNL     1       2.453   7.225  21.726  0.00  0.00    +0.029 HD
ENDROOT
BRANCH   1  21
ATOM     16  C   UNL     1      -0.452  11.748  19.277  0.00  0.00    -0.028 C 
ATOM     17  C   UNL     1      -0.736  12.863  20.300  0.00  0.00    -0.048 C 
ATOM     18  C   UNL     1      -0.241  12.516  21.707  0.00  0.00    -0.037 C 
ATOM     19  C   UNL     1      -0.755  11.146  22.141  0.00  0.00    +0.015 C 
ATOM     20  N   UNL     1      -0.394  10.130  21.154  0.00  0.00    -0.301 N 
ATOM     21  C   UNL     1       0.641   9.250  21.460  0.00  0.00    +0.219 C 
ATOM     22  O   UNL     1       1.240   9.310  22.536  0.00  0.00    -0.275 OA
ATOM     23  C   UNL     1      -0.927  10.387  19.815  0.00  0.00    +0.017 C 
ATOM     24  H   UNL     1      -1.022  11.970  18.366  0.00  0.00    +0.031 HD
ATOM     25  H   UNL     1      -1.821  13.030  20.343  0.00  0.00    +0.027 HD
ATOM     26  H   UNL     1      -0.288  13.809  19.972  0.00  0.00    +0.027 HD
ATOM     27  H   UNL     1       0.855  12.522  21.724  0.00  0.00    +0.028 HD
ATOM     28  H   UNL     1      -0.578  13.280  22.416  0.00  0.00    +0.028 HD
ATOM     29  H   UNL     1      -0.367  10.897  23.133  0.00  0.00    +0.046 HD
ATOM     30  H   UNL     1      -1.849  11.156  22.217  0.00  0.00    +0.046 HD
ATOM     31  H   UNL     1      -2.021  10.387  19.903  0.00  0.00    +0.047 HD
ATOM     32  H   UNL     1      -0.670   9.597  19.108  0.00  0.00    +0.047 HD
BRANCH  16  33
ATOM     33  C   UNL     1       1.027  11.712  18.881  0.00  0.00    -0.061 C 
ATOM     34  H   UNL     1       1.448  10.717  19.058  0.00  0.00    +0.023 HD
ATOM     35  H   UNL     1       1.626  12.434  19.447  0.00  0.00    +0.023 HD
ATOM     36  H   UNL     1       1.146  11.938  17.817  0.00  0.00    +0.023 HD
ENDBRANCH  16  33
ENDBRANCH   1  21
BRANCH   4  37
ATOM     37  C   UNL     1       3.615   5.510  18.328  0.00  0.00    +0.033 A 
ATOM     38  C   UNL     1       2.941   4.422  17.759  0.00  0.00    -0.022 A 
ATOM     39  C   UNL     1       3.626   3.526  16.952  0.00  0.00    +0.030 A 
ATOM     40  N   UNL     1       4.934   3.636  16.659  0.00  0.00    -0.250 NA
ATOM     41  C   UNL     1       5.579   4.699  17.192  0.00  0.00    +0.127 A 
ATOM     42  C   UNL     1       4.969   5.646  18.015  0.00  0.00    -0.010 A 
ATOM     43  H   UNL     1       1.877   4.279  17.921  0.00  0.00    +0.065 HD
ATOM     44  H   UNL     1       3.119   2.677  16.504  0.00  0.00    +0.083 HD
ATOM     45  H   UNL     1       5.569   6.446  18.429  0.00  0.00    +0.066 HD
BRANCH  41  46
ATOM     46  C   UNL     1       7.030   4.830  16.848  0.00  0.00    +0.260 C 
ATOM     47  N   UNL     1       7.330   5.491  15.679  0.00  0.00    -0.324 N 
ATOM     48  O   UNL     1       7.928   4.364  17.538  0.00  0.00    -0.269 OA
ATOM     49  H   UNL     1       8.297   5.406  15.388  0.00  0.00    +0.145 HD
ATOM     50  H   UNL     1       6.639   5.558  14.943  0.00  0.00    +0.145 HD
ENDBRANCH  41  46
ENDBRANCH   4  37
TORSDOF 4
ENDMDL
MODEL 17
REMARK VINA RESULT:    -6.498      2.466      8.564
REMARK INTER + INTRA:          -8.446
REMARK INTER:                  -7.823
REMARK INTRA:                  -0.623
REMARK UNBOUND:                -0.618
REMARK  Name = 
REMARK  4 active torsions:
REMARK  status: ('A' for Active; 'I' for Inactive)
REMARK    1  A    between atoms: C_1  and  C_2
REMARK    2  A    between atoms: C_7  and  C_9
REMARK    3  A    between atoms: N_12  and  C_13
REMARK    4  A    between atoms: C_17  and  C_18
REMARK                            x       y       z     vdW  Elec       q    Type
REMARK                         _______ _______ _______ _____ _____    ______ ____
ROOT
ATOM      1  C   UNL     1       1.043   9.305  19.296  0.00  0.00    +0.039 C 
ATOM      2  C   UNL     1       2.024   9.469  18.125  0.00  0.00    -0.026 C 
ATOM      3  C   UNL     1       2.392   8.118  17.518  0.00  0.00    +0.013 C 
ATOM      4  N   UNL     1       2.932   7.226  18.564  0.00  0.00    -0.330 N 
ATOM      5  C   UNL     1       2.029   7.019  19.704  0.00  0.00    +0.013 C 
ATOM      6  C   UNL     1       1.663   8.362  20.334  0.00  0.00    -0.026 C 
ATOM      7  H   UNL     1       0.124   8.875  18.883  0.00  0.00    +0.040 HD
ATOM      8  H   UNL     1       1.583  10.111  17.354  0.00  0.00    +0.029 HD
ATOM      9  H   UNL     1       2.940   9.971  18.467  0.00  0.00    +0.029 HD
ATOM     10  H   UNL     1       1.506   7.658  17.061  0.00  0.00    +0.046 HD
ATOM     11  H   UNL     1       3.114   8.301  16.715  0.00  0.00    +0.046 HD
ATOM     12  H   UNL     1       1.116   6.501  19.384  0.00  0.00    +0.046 HD
ATOM     13  H   UNL     1       2.517   6.410  20.475  0.00  0.00    +0.046 HD
ATOM     14  H   UNL     1       0.982   8.191  21.174  0.00  0.00    +0.029 HD
ATOM     15  H   UNL     1       2.562   8.826  20.760  0.00  0.00    +0.029 HD
ENDROOT
BRANCH   1  21
ATOM     16  C   UNL     1      -2.537  11.061  18.719  0.00  0.00    -0.028 C 
ATOM     17  C   UNL     1      -2.842  12.457  19.292  0.00  0.00    -0.048 C 
ATOM     18  C   UNL     1      -1.609  13.127  19.907  0.00  0.00    -0.037 C 
ATOM     19  C   UNL     1      -0.925  12.195  20.904  0.00  0.00    +0.015 C 
ATOM     20  N   UNL     1      -0.610  10.915  20.271  0.00  0.00    -0.301 N 
ATOM     21  C   UNL     1       0.715  10.656  19.929  0.00  0.00    +0.219 C 
ATOM     22  O   UNL     1       1.610  11.473  20.155  0.00  0.00    -0.275 OA
ATOM     23  C   UNL     1      -1.780  10.206  19.751  0.00  0.00    +0.017 C 
ATOM     24  H   UNL     1      -3.492  10.567  18.504  0.00  0.00    +0.031 HD
ATOM     25  H   UNL     1      -3.608  12.356  20.072  0.00  0.00    +0.027 HD
ATOM     26  H   UNL     1      -3.269  13.106  18.518  0.00  0.00    +0.027 HD
ATOM     27  H   UNL     1      -0.904  13.402  19.113  0.00  0.00    +0.028 HD
ATOM     28  H   UNL     1      -1.905  14.055  20.409  0.00  0.00    +0.028 HD
ATOM     29  H   UNL     1      -0.028  12.674  21.309  0.00  0.00    +0.046 HD
ATOM     30  H   UNL     1      -1.590  11.988  21.751  0.00  0.00    +0.046 HD
ATOM     31  H   UNL     1      -2.433   9.999  20.607  0.00  0.00    +0.047 HD
ATOM     32  H   UNL     1      -1.520   9.241  19.315  0.00  0.00    +0.047 HD
BRANCH  16  33
ATOM     33  C   UNL     1      -1.774  11.153  17.394  0.00  0.00    -0.061 C 
ATOM     34  H   UNL     1      -0.852  10.563  17.441  0.00  0.00    +0.023 HD
ATOM     35  H   UNL     1      -1.499  12.183  17.144  0.00  0.00    +0.023 HD
ATOM     36  H   UNL     1      -2.379  10.758  16.573  0.00  0.00    +0.023 HD
ENDBRANCH  16  33
ENDBRANCH   1  21
BRANCH   4  37
ATOM     37  C   UNL     1       3.616   6.107  18.053  0.00  0.00    +0.033 A 
ATOM     38  C   UNL     1       2.917   4.915  17.820  0.00  0.00    -0.022 A 
ATOM     39  C   UNL     1       3.583   3.806  17.318  0.00  0.00    +0.030 A 
ATOM     40  N   UNL     1       4.893   3.796  17.018  0.00  0.00    -0.250 NA
ATOM     41  C   UNL     1       5.562   4.954  17.224  0.00  0.00    +0.127 A 
ATOM     42  C   UNL     1       4.974   6.114  17.728  0.00  0.00    -0.010 A 
ATOM     43  H   UNL     1       1.849   4.849  18.006  0.00  0.00    +0.065 HD
ATOM     44  H   UNL     1       3.056   2.875  17.133  0.00  0.00    +0.083 HD
ATOM     45  H   UNL     1       5.592   6.986  17.895  0.00  0.00    +0.066 HD
BRANCH  41  46
ATOM     46  C   UNL     1       7.018   4.946  16.871  0.00  0.00    +0.260 C 
ATOM     47  N   UNL     1       7.370   5.563  15.693  0.00  0.00    -0.324 N 
ATOM     48  O   UNL     1       7.872   4.406  17.562  0.00  0.00    -0.269 OA
ATOM     49  H   UNL     1       8.324   5.385  15.399  0.00  0.00    +0.145 HD
ATOM     50  H   UNL     1       6.685   5.685  14.959  0.00  0.00    +0.145 HD
ENDBRANCH  41  46
ENDBRANCH   4  37
TORSDOF 4
ENDMDL
MODEL 18
REMARK VINA RESULT:    -6.491      2.112      8.435
REMARK INTER + INTRA:          -8.438
REMARK INTER:                  -7.841
REMARK INTRA:                  -0.597
REMARK UNBOUND:                -0.618
REMARK  Name = 
REMARK  4 active torsions:
REMARK  status: ('A' for Active; 'I' for Inactive)
REMARK    1  A    between atoms: C_1  and  C_2
REMARK    2  A    between atoms: C_7  and  C_9
REMARK    3  A    between atoms: N_12  and  C_13
REMARK    4  A    between atoms: C_17  and  C_18
REMARK                            x       y       z     vdW  Elec       q    Type
REMARK                         _______ _______ _______ _____ _____    ______ ____
ROOT
ATOM      1  C   UNL     1       1.024  10.034  19.451  0.00  0.00    +0.039 C 
ATOM      2  C   UNL     1       1.847   9.881  18.163  0.00  0.00    -0.026 C 
ATOM      3  C   UNL     1       1.895   8.425  17.708  0.00  0.00    +0.013 C 
ATOM      4  N   UNL     1       2.417   7.574  18.796  0.00  0.00    -0.330 N 
ATOM      5  C   UNL     1       1.658   7.668  20.051  0.00  0.00    +0.013 C 
ATOM      6  C   UNL     1       1.614   9.118  20.530  0.00  0.00    -0.026 C 
ATOM      7  H   UNL     1      -0.003   9.738  19.210  0.00  0.00    +0.040 HD
ATOM      8  H   UNL     1       1.418  10.501  17.368  0.00  0.00    +0.029 HD
ATOM      9  H   UNL     1       2.873  10.241  18.325  0.00  0.00    +0.029 HD
ATOM     10  H   UNL     1       0.889   8.087  17.423  0.00  0.00    +0.046 HD
ATOM     11  H   UNL     1       2.519   8.380  16.809  0.00  0.00    +0.046 HD
ATOM     12  H   UNL     1       0.636   7.295  19.912  0.00  0.00    +0.046 HD
ATOM     13  H   UNL     1       2.138   7.071  20.836  0.00  0.00    +0.046 HD
ATOM     14  H   UNL     1       1.037   9.172  21.458  0.00  0.00    +0.029 HD
ATOM     15  H   UNL     1       2.629   9.454  20.781  0.00  0.00    +0.029 HD
ENDROOT
BRANCH   1  21
ATOM     16  C   UNL     1      -2.432  12.026  20.025  0.00  0.00    -0.028 C 
ATOM     17  C   UNL     1      -2.438  13.511  20.430  0.00  0.00    -0.048 C 
ATOM     18  C   UNL     1      -1.043  14.140  20.398  0.00  0.00    -0.037 C 
ATOM     19  C   UNL     1      -0.048  13.296  21.191  0.00  0.00    +0.015 C 
ATOM     20  N   UNL     1      -0.052  11.916  20.709  0.00  0.00    -0.301 N 
ATOM     21  C   UNL     1       1.018  11.487  19.928  0.00  0.00    +0.219 C 
ATOM     22  O   UNL     1       1.954  12.238  19.650  0.00  0.00    -0.275 OA
ATOM     23  C   UNL     1      -1.355  11.256  20.809  0.00  0.00    +0.017 C 
ATOM     24  H   UNL     1      -3.409  11.599  20.284  0.00  0.00    +0.031 HD
ATOM     25  H   UNL     1      -2.834  13.593  21.452  0.00  0.00    +0.027 HD
ATOM     26  H   UNL     1      -3.118  14.083  19.787  0.00  0.00    +0.027 HD
ATOM     27  H   UNL     1      -0.704  14.232  19.359  0.00  0.00    +0.028 HD
ATOM     28  H   UNL     1      -1.084  15.153  20.813  0.00  0.00    +0.028 HD
ATOM     29  H   UNL     1       0.951  13.739  21.131  0.00  0.00    +0.046 HD
ATOM     30  H   UNL     1      -0.327  13.275  22.252  0.00  0.00    +0.046 HD
ATOM     31  H   UNL     1      -1.619  11.234  21.873  0.00  0.00    +0.047 HD
ATOM     32  H   UNL     1      -1.320  10.218  20.474  0.00  0.00    +0.047 HD
BRANCH  16  33
ATOM     33  C   UNL     1      -2.257  11.857  18.513  0.00  0.00    -0.061 C 
ATOM     34  H   UNL     1      -3.175  12.138  17.987  0.00  0.00    +0.023 HD
ATOM     35  H   UNL     1      -2.014  10.827  18.235  0.00  0.00    +0.023 HD
ATOM     36  H   UNL     1      -1.454  12.503  18.144  0.00  0.00    +0.023 HD
ENDBRANCH  16  33
ENDBRANCH   1  21
BRANCH   4  37
ATOM     37  C   UNL     1       2.825   6.297  18.367  0.00  0.00    +0.033 A 
ATOM     38  C   UNL     1       4.016   6.157  17.643  0.00  0.00    -0.022 A 
ATOM     39  C   UNL     1       4.426   4.903  17.216  0.00  0.00    +0.030 A 
ATOM     40  N   UNL     1       3.744   3.771  17.463  0.00  0.00    -0.250 NA
ATOM     41  C   UNL     1       2.605   3.905  18.181  0.00  0.00    +0.127 A 
ATOM     42  C   UNL     1       2.118   5.126  18.647  0.00  0.00    -0.010 A 
ATOM     43  H   UNL     1       4.642   7.018  17.428  0.00  0.00    +0.065 HD
ATOM     44  H   UNL     1       5.346   4.778  16.653  0.00  0.00    +0.083 HD
ATOM     45  H   UNL     1       1.178   5.146  19.184  0.00  0.00    +0.066 HD
BRANCH  41  46
ATOM     46  C   UNL     1       1.857   2.640  18.472  0.00  0.00    +0.260 C 
ATOM     47  N   UNL     1       2.566   1.466  18.364  0.00  0.00    -0.324 N 
ATOM     48  O   UNL     1       0.670   2.617  18.771  0.00  0.00    -0.269 OA
ATOM     49  H   UNL     1       1.994   0.630  18.391  0.00  0.00    +0.145 HD
ATOM     50  H   UNL     1       3.399   1.427  17.791  0.00  0.00    +0.145 HD
ENDBRANCH  41  46
ENDBRANCH   4  37
TORSDOF 4
ENDMDL
MODEL 19
REMARK VINA RESULT:    -6.475      2.304      8.542
REMARK INTER + INTRA:          -8.419
REMARK INTER:                  -8.168
REMARK INTRA:                  -0.250
REMARK UNBOUND:                -0.618
REMARK  Name = 
REMARK  4 active torsions:
REMARK  status: ('A' for Active; 'I' for Inactive)
REMARK    1  A    between atoms: C_1  and  C_2
REMARK    2  A    between atoms: C_7  and  C_9
REMARK    3  A    between atoms: N_12  and  C_13
REMARK    4  A    between atoms: C_17  and  C_18
REMARK                            x       y       z     vdW  Elec       q    Type
REMARK                         _______ _______ _______ _____ _____    ______ ____
ROOT
ATOM      1  C   UNL     1       1.270   9.341  19.028  0.00  0.00    +0.039 C 
ATOM      2  C   UNL     1       2.279   8.582  18.153  0.00  0.00    -0.026 C 
ATOM      3  C   UNL     1       2.132   7.072  18.324  0.00  0.00    +0.013 C 
ATOM      4  N   UNL     1       2.262   6.711  19.750  0.00  0.00    -0.330 N 
ATOM      5  C   UNL     1       1.311   7.398  20.634  0.00  0.00    +0.013 C 
ATOM      6  C   UNL     1       1.456   8.911  20.488  0.00  0.00    -0.026 C 
ATOM      7  H   UNL     1       0.271   9.072  18.669  0.00  0.00    +0.040 HD
ATOM      8  H   UNL     1       2.137   8.849  17.099  0.00  0.00    +0.029 HD
ATOM      9  H   UNL     1       3.305   8.875  18.417  0.00  0.00    +0.029 HD
ATOM     10  H   UNL     1       1.153   6.745  17.947  0.00  0.00    +0.046 HD
ATOM     11  H   UNL     1       2.896   6.593  17.702  0.00  0.00    +0.046 HD
ATOM     12  H   UNL     1       0.281   7.101  20.396  0.00  0.00    +0.046 HD
ATOM     13  H   UNL     1       1.508   7.142  21.683  0.00  0.00    +0.046 HD
ATOM     14  H   UNL     1       0.734   9.406  21.144  0.00  0.00    +0.029 HD
ATOM     15  H   UNL     1       2.449   9.221  20.838  0.00  0.00    +0.029 HD
ENDROOT
BRANCH   1  21
ATOM     16  C   UNL     1      -1.785  11.881  19.700  0.00  0.00    -0.028 C 
ATOM     17  C   UNL     1      -1.623  13.397  19.485  0.00  0.00    -0.048 C 
ATOM     18  C   UNL     1      -0.286  13.764  18.836  0.00  0.00    -0.037 C 
ATOM     19  C   UNL     1       0.878  13.129  19.591  0.00  0.00    +0.015 C 
ATOM     20  N   UNL     1       0.686  11.684  19.700  0.00  0.00    -0.301 N 
ATOM     21  C   UNL     1       1.453  10.853  18.888  0.00  0.00    +0.219 C 
ATOM     22  O   UNL     1       2.282  11.310  18.099  0.00  0.00    -0.275 OA
ATOM     23  C   UNL     1      -0.543  11.299  20.397  0.00  0.00    +0.017 C 
ATOM     24  H   UNL     1      -2.648  11.722  20.357  0.00  0.00    +0.031 HD
ATOM     25  H   UNL     1      -1.686  13.897  20.460  0.00  0.00    +0.027 HD
ATOM     26  H   UNL     1      -2.450  13.790  18.880  0.00  0.00    +0.027 HD
ATOM     27  H   UNL     1      -0.278  13.426  17.792  0.00  0.00    +0.028 HD
ATOM     28  H   UNL     1      -0.169  14.854  18.821  0.00  0.00    +0.028 HD
ATOM     29  H   UNL     1       1.823  13.372  19.097  0.00  0.00    +0.046 HD
ATOM     30  H   UNL     1       0.935  13.531  20.610  0.00  0.00    +0.046 HD
ATOM     31  H   UNL     1      -0.470  11.699  21.415  0.00  0.00    +0.047 HD
ATOM     32  H   UNL     1      -0.643  10.217  20.493  0.00  0.00    +0.047 HD
BRANCH  16  33
ATOM     33  C   UNL     1      -2.085  11.157  18.384  0.00  0.00    -0.061 C 
ATOM     34  H   UNL     1      -2.398  10.125  18.577  0.00  0.00    +0.023 HD
ATOM     35  H   UNL     1      -1.215  11.123  17.721  0.00  0.00    +0.023 HD
ATOM     36  H   UNL     1      -2.898  11.655  17.847  0.00  0.00    +0.023 HD
ENDBRANCH  16  33
ENDBRANCH   1  21
BRANCH   4  37
ATOM     37  C   UNL     1       2.491   5.339  19.966  0.00  0.00    +0.033 A 
ATOM     38  C   UNL     1       2.077   4.748  21.166  0.00  0.00    -0.022 A 
ATOM     39  C   UNL     1       2.299   3.397  21.388  0.00  0.00    +0.030 A 
ATOM     40  N   UNL     1       2.896   2.584  20.499  0.00  0.00    -0.250 NA
ATOM     41  C   UNL     1       3.276   3.151  19.331  0.00  0.00    +0.127 A 
ATOM     42  C   UNL     1       3.095   4.500  19.026  0.00  0.00    -0.010 A 
ATOM     43  H   UNL     1       1.559   5.329  21.923  0.00  0.00    +0.065 HD
ATOM     44  H   UNL     1       1.985   2.924  22.313  0.00  0.00    +0.083 HD
ATOM     45  H   UNL     1       3.463   4.879  18.082  0.00  0.00    +0.066 HD
BRANCH  41  46
ATOM     46  C   UNL     1       3.923   2.239  18.335  0.00  0.00    +0.260 C 
ATOM     47  N   UNL     1       4.603   2.839  17.300  0.00  0.00    -0.324 N 
ATOM     48  O   UNL     1       3.848   1.018  18.396  0.00  0.00    -0.269 OA
ATOM     49  H   UNL     1       4.872   2.205  16.556  0.00  0.00    +0.145 HD
ATOM     50  H   UNL     1       4.382   3.788  17.030  0.00  0.00    +0.145 HD
ENDBRANCH  41  46
ENDBRANCH   4  37
TORSDOF 4
ENDMDL
MODEL 20
REMARK VINA RESULT:    -6.428      2.365      3.307
REMARK INTER + INTRA:          -8.362
REMARK INTER:                  -7.877
REMARK INTRA:                  -0.485
REMARK UNBOUND:                -0.618
REMARK  Name = 
REMARK  4 active torsions:
REMARK  status: ('A' for Active; 'I' for Inactive)
REMARK    1  A    between atoms: C_1  and  C_2
REMARK    2  A    between atoms: C_7  and  C_9
REMARK    3  A    between atoms: N_12  and  C_13
REMARK    4  A    between atoms: C_17  and  C_18
REMARK                            x       y       z     vdW  Elec       q    Type
REMARK                         _______ _______ _______ _____ _____    ______ ____
ROOT
ATOM      1  C   UNL     1       2.286   6.904  19.849  0.00  0.00    +0.039 C 
ATOM      2  C   UNL     1       1.995   7.328  18.402  0.00  0.00    -0.026 C 
ATOM      3  C   UNL     1       1.968   8.848  18.266  0.00  0.00    +0.013 C 
ATOM      4  N   UNL     1       0.990   9.422  19.212  0.00  0.00    -0.330 N 
ATOM      5  C   UNL     1       1.227   9.061  20.616  0.00  0.00    +0.013 C 
ATOM      6  C   UNL     1       1.241   7.541  20.773  0.00  0.00    -0.026 C 
ATOM      7  H   UNL     1       3.291   7.268  20.092  0.00  0.00    +0.040 HD
ATOM      8  H   UNL     1       2.754   6.912  17.729  0.00  0.00    +0.029 HD
ATOM      9  H   UNL     1       1.028   6.922  18.075  0.00  0.00    +0.029 HD
ATOM     10  H   UNL     1       2.966   9.262  18.469  0.00  0.00    +0.046 HD
ATOM     11  H   UNL     1       1.726   9.084  17.224  0.00  0.00    +0.046 HD
ATOM     12  H   UNL     1       2.181   9.476  20.964  0.00  0.00    +0.046 HD
ATOM     13  H   UNL     1       0.427   9.456  21.255  0.00  0.00    +0.046 HD
ATOM     14  H   UNL     1       1.430   7.290  21.821  0.00  0.00    +0.029 HD
ATOM     15  H   UNL     1       0.248   7.138  20.536  0.00  0.00    +0.029 HD
ENDROOT
BRANCH   1  21
ATOM     16  C   UNL     1       5.046   4.607  18.022  0.00  0.00    -0.028 C 
ATOM     17  C   UNL     1       4.982   3.070  18.098  0.00  0.00    -0.048 C 
ATOM     18  C   UNL     1       3.697   2.564  18.758  0.00  0.00    -0.037 C 
ATOM     19  C   UNL     1       3.468   3.250  20.102  0.00  0.00    +0.015 C 
ATOM     20  N   UNL     1       3.480   4.703  19.940  0.00  0.00    -0.301 N 
ATOM     21  C   UNL     1       2.266   5.382  19.988  0.00  0.00    +0.219 C 
ATOM     22  O   UNL     1       1.202   4.787  20.169  0.00  0.00    -0.275 OA
ATOM     23  C   UNL     1       4.732   5.230  19.393  0.00  0.00    +0.017 C 
ATOM     24  H   UNL     1       6.070   4.890  17.748  0.00  0.00    +0.031 HD
ATOM     25  H   UNL     1       5.839   2.713  18.684  0.00  0.00    +0.027 HD
ATOM     26  H   UNL     1       5.084   2.631  17.098  0.00  0.00    +0.027 HD
ATOM     27  H   UNL     1       2.843   2.753  18.096  0.00  0.00    +0.028 HD
ATOM     28  H   UNL     1       3.757   1.479  18.901  0.00  0.00    +0.028 HD
ATOM     29  H   UNL     1       2.531   2.903  20.546  0.00  0.00    +0.046 HD
ATOM     30  H   UNL     1       4.271   2.991  20.803  0.00  0.00    +0.046 HD
ATOM     31  H   UNL     1       5.524   4.971  20.106  0.00  0.00    +0.047 HD
ATOM     32  H   UNL     1       4.724   6.318  19.315  0.00  0.00    +0.047 HD
BRANCH  16  33
ATOM     33  C   UNL     1       4.124   5.154  16.929  0.00  0.00    -0.061 C 
ATOM     34  H   UNL     1       3.761   4.341  16.291  0.00  0.00    +0.023 HD
ATOM     35  H   UNL     1       4.628   5.883  16.287  0.00  0.00    +0.023 HD
ATOM     36  H   UNL     1       3.251   5.643  17.371  0.00  0.00    +0.023 HD
ENDBRANCH  16  33
ENDBRANCH   1  21
BRANCH   4  37
ATOM     37  C   UNL     1       0.640  10.754  18.924  0.00  0.00    +0.033 A 
ATOM     38  C   UNL     1      -0.705  11.089  18.720  0.00  0.00    -0.022 A 
ATOM     39  C   UNL     1      -1.059  12.399  18.435  0.00  0.00    +0.030 A 
ATOM     40  N   UNL     1      -0.174  13.408  18.346  0.00  0.00    -0.250 NA
ATOM     41  C   UNL     1       1.122  13.088  18.564  0.00  0.00    +0.127 A 
ATOM     42  C   UNL     1       1.566  11.797  18.853  0.00  0.00    -0.010 A 
ATOM     43  H   UNL     1      -1.485  10.339  18.805  0.00  0.00    +0.065 HD
ATOM     44  H   UNL     1      -2.097  12.675  18.273  0.00  0.00    +0.083 HD
ATOM     45  H   UNL     1       2.627  11.623  18.978  0.00  0.00    +0.066 HD
BRANCH  41  46
ATOM     46  C   UNL     1       2.103  14.217  18.484  0.00  0.00    +0.260 C 
ATOM     47  N   UNL     1       3.210  14.017  17.692  0.00  0.00    -0.324 N 
ATOM     48  O   UNL     1       1.967  15.267  19.099  0.00  0.00    -0.269 OA
ATOM     49  H   UNL     1       3.932  14.720  17.801  0.00  0.00    +0.145 HD
ATOM     50  H   UNL     1       3.519  13.078  17.480  0.00  0.00    +0.145 HD
ENDBRANCH  41  46
ENDBRANCH   4  37
TORSDOF 4
ENDMDL
MODEL 21
REMARK VINA RESULT:    -6.411      2.039      8.663
REMARK INTER + INTRA:          -8.341
REMARK INTER:                  -7.855
REMARK INTRA:                  -0.486
REMARK UNBOUND:                -0.618
REMARK  Name = 
REMARK  4 active torsions:
REMARK  status: ('A' for Active; 'I' for Inactive)
REMARK    1  A    between atoms: C_1  and  C_2
REMARK    2  A    between atoms: C_7  and  C_9
REMARK    3  A    between atoms: N_12  and  C_13
REMARK    4  A    between atoms: C_17  and  C_18
REMARK                            x       y       z     vdW  Elec       q    Type
REMARK                         _______ _______ _______ _____ _____    ______ ____
ROOT
ATOM      1  C   UNL     1       0.726  10.335  20.019  0.00  0.00    +0.039 C 
ATOM      2  C   UNL     1       1.635   9.872  18.871  0.00  0.00    -0.026 C 
ATOM      3  C   UNL     1       1.620   8.352  18.733  0.00  0.00    +0.013 C 
ATOM      4  N   UNL     1       1.995   7.725  20.016  0.00  0.00    -0.330 N 
ATOM      5  C   UNL     1       1.148   8.121  21.150  0.00  0.00    +0.013 C 
ATOM      6  C   UNL     1       1.165   9.639  21.313  0.00  0.00    -0.026 C 
ATOM      7  H   UNL     1      -0.297  10.046  19.752  0.00  0.00    +0.040 HD
ATOM      8  H   UNL     1       1.314  10.331  17.929  0.00  0.00    +0.029 HD
ATOM      9  H   UNL     1       2.667  10.206  19.048  0.00  0.00    +0.029 HD
ATOM     10  H   UNL     1       0.619   8.012  18.433  0.00  0.00    +0.046 HD
ATOM     11  H   UNL     1       2.309   8.086  17.923  0.00  0.00    +0.046 HD
ATOM     12  H   UNL     1       0.117   7.777  20.998  0.00  0.00    +0.046 HD
ATOM     13  H   UNL     1       1.523   7.680  22.082  0.00  0.00    +0.046 HD
ATOM     14  H   UNL     1       0.522   9.917  22.154  0.00  0.00    +0.029 HD
ATOM     15  H   UNL     1       2.177   9.969  21.581  0.00  0.00    +0.029 HD
ENDROOT
BRANCH   1  21
ATOM     16  C   UNL     1      -2.624  12.488  20.635  0.00  0.00    -0.028 C 
ATOM     17  C   UNL     1      -2.579  14.025  20.723  0.00  0.00    -0.048 C 
ATOM     18  C   UNL     1      -1.203  14.598  20.373  0.00  0.00    -0.037 C 
ATOM     19  C   UNL     1      -0.106  13.909  21.180  0.00  0.00    +0.015 C 
ATOM     20  N   UNL     1      -0.172  12.461  20.997  0.00  0.00    -0.301 N 
ATOM     21  C   UNL     1       0.781  11.854  20.183  0.00  0.00    +0.219 C 
ATOM     22  O   UNL     1       1.668  12.509  19.632  0.00  0.00    -0.275 OA
ATOM     23  C   UNL     1      -1.446  11.868  21.407  0.00  0.00    +0.017 C 
ATOM     24  H   UNL     1      -3.555  12.148  21.106  0.00  0.00    +0.031 HD
ATOM     25  H   UNL     1      -2.830  14.324  21.750  0.00  0.00    +0.027 HD
ATOM     26  H   UNL     1      -3.343  14.470  20.074  0.00  0.00    +0.027 HD
ATOM     27  H   UNL     1      -1.011  14.468  19.301  0.00  0.00    +0.028 HD
ATOM     28  H   UNL     1      -1.190  15.676  20.573  0.00  0.00    +0.028 HD
ATOM     29  H   UNL     1       0.873  14.305  20.895  0.00  0.00    +0.046 HD
ATOM     30  H   UNL     1      -0.236  14.112  22.250  0.00  0.00    +0.046 HD
ATOM     31  H   UNL     1      -1.561  12.070  22.479  0.00  0.00    +0.047 HD
ATOM     32  H   UNL     1      -1.455  10.783  21.290  0.00  0.00    +0.047 HD
BRANCH  16  33
ATOM     33  C   UNL     1      -2.659  12.011  19.180  0.00  0.00    -0.061 C 
ATOM     34  H   UNL     1      -1.674  11.643  18.873  0.00  0.00    +0.023 HD
ATOM     35  H   UNL     1      -2.949  12.808  18.488  0.00  0.00    +0.023 HD
ATOM     36  H   UNL     1      -3.371  11.188  19.062  0.00  0.00    +0.023 HD
ENDBRANCH  16  33
ENDBRANCH   1  21
BRANCH   4  37
ATOM     37  C   UNL     1       2.348   6.367  19.899  0.00  0.00    +0.033 A 
ATOM     38  C   UNL     1       1.654   5.404  20.643  0.00  0.00    -0.022 A 
ATOM     39  C   UNL     1       1.996   4.064  20.535  0.00  0.00    +0.030 A 
ATOM     40  N   UNL     1       2.972   3.606  19.732  0.00  0.00    -0.250 NA
ATOM     41  C   UNL     1       3.627   4.535  18.997  0.00  0.00    +0.127 A 
ATOM     42  C   UNL     1       3.351   5.901  19.046  0.00  0.00    -0.010 A 
ATOM     43  H   UNL     1       0.831   5.688  21.292  0.00  0.00    +0.065 HD
ATOM     44  H   UNL     1       1.469   3.306  21.106  0.00  0.00    +0.083 HD
ATOM     45  H   UNL     1       3.949   6.579  18.451  0.00  0.00    +0.066 HD
BRANCH  41  46
ATOM     46  C   UNL     1       4.700   4.020  18.089  0.00  0.00    +0.260 C 
ATOM     47  N   UNL     1       5.973   3.964  18.608  0.00  0.00    -0.324 N 
ATOM     48  O   UNL     1       4.492   3.680  16.931  0.00  0.00    -0.269 OA
ATOM     49  H   UNL     1       6.696   3.784  17.921  0.00  0.00    +0.145 HD
ATOM     50  H   UNL     1       6.228   4.552  19.391  0.00  0.00    +0.145 HD
ENDBRANCH  41  46
ENDBRANCH   4  37
TORSDOF 4
ENDMDL
MODEL 22
REMARK VINA RESULT:    -6.239      2.447      8.392
REMARK INTER + INTRA:          -8.135
REMARK INTER:                  -7.534
REMARK INTRA:                  -0.600
REMARK UNBOUND:                -0.618
REMARK  Name = 
REMARK  4 active torsions:
REMARK  status: ('A' for Active; 'I' for Inactive)
REMARK    1  A    between atoms: C_1  and  C_2
REMARK    2  A    between atoms: C_7  and  C_9
REMARK    3  A    between atoms: N_12  and  C_13
REMARK    4  A    between atoms: C_17  and  C_18
REMARK                            x       y       z     vdW  Elec       q    Type
REMARK                         _______ _______ _______ _____ _____    ______ ____
ROOT
ATOM      1  C   UNL     1       1.230   9.215  18.862  0.00  0.00    +0.039 C 
ATOM      2  C   UNL     1       2.351   9.135  17.815  0.00  0.00    -0.026 C 
ATOM      3  C   UNL     1       2.716   7.686  17.506  0.00  0.00    +0.013 C 
ATOM      4  N   UNL     1       3.079   6.980  18.751  0.00  0.00    -0.330 N 
ATOM      5  C   UNL     1       2.036   7.011  19.786  0.00  0.00    +0.013 C 
ATOM      6  C   UNL     1       1.670   8.456  20.120  0.00  0.00    -0.026 C 
ATOM      7  H   UNL     1       0.345   8.747  18.418  0.00  0.00    +0.040 HD
ATOM      8  H   UNL     1       2.040   9.641  16.893  0.00  0.00    +0.029 HD
ATOM      9  H   UNL     1       3.245   9.661  18.177  0.00  0.00    +0.029 HD
ATOM     10  H   UNL     1       1.868   7.178  17.027  0.00  0.00    +0.046 HD
ATOM     11  H   UNL     1       3.537   7.698  16.781  0.00  0.00    +0.046 HD
ATOM     12  H   UNL     1       1.142   6.473  19.448  0.00  0.00    +0.046 HD
ATOM     13  H   UNL     1       2.395   6.536  20.707  0.00  0.00    +0.046 HD
ATOM     14  H   UNL     1       0.886   8.461  20.883  0.00  0.00    +0.029 HD
ATOM     15  H   UNL     1       2.536   8.961  20.568  0.00  0.00    +0.029 HD
ENDROOT
BRANCH   1  21
ATOM     16  C   UNL     1      -2.502  10.666  18.416  0.00  0.00    -0.028 C 
ATOM     17  C   UNL     1      -2.819  12.149  18.684  0.00  0.00    -0.048 C 
ATOM     18  C   UNL     1      -1.562  12.986  18.940  0.00  0.00    -0.037 C 
ATOM     19  C   UNL     1      -0.691  12.344  20.017  0.00  0.00    +0.015 C 
ATOM     20  N   UNL     1      -0.380  10.960  19.662  0.00  0.00    -0.301 N 
ATOM     21  C   UNL     1       0.901  10.669  19.202  0.00  0.00    +0.219 C 
ATOM     22  O   UNL     1       1.763  11.544  19.098  0.00  0.00    -0.275 OA
ATOM     23  C   UNL     1      -1.560  10.110  19.498  0.00  0.00    +0.017 C 
ATOM     24  H   UNL     1      -3.443  10.104  18.465  0.00  0.00    +0.031 HD
ATOM     25  H   UNL     1      -3.466  12.214  19.569  0.00  0.00    +0.027 HD
ATOM     26  H   UNL     1      -3.388  12.578  17.850  0.00  0.00    +0.027 HD
ATOM     27  H   UNL     1      -0.989  13.083  18.010  0.00  0.00    +0.028 HD
ATOM     28  H   UNL     1      -1.848  13.998  19.247  0.00  0.00    +0.028 HD
ATOM     29  H   UNL     1       0.218  12.934  20.164  0.00  0.00    +0.046 HD
ATOM     30  H   UNL     1      -1.223  12.327  20.976  0.00  0.00    +0.046 HD
ATOM     31  H   UNL     1      -2.078  10.094  20.465  0.00  0.00    +0.047 HD
ATOM     32  H   UNL     1      -1.298   9.076  19.268  0.00  0.00    +0.047 HD
BRANCH  16  33
ATOM     33  C   UNL     1      -1.930  10.460  17.010  0.00  0.00    -0.061 C 
ATOM     34  H   UNL     1      -2.717  10.569  16.256  0.00  0.00    +0.023 HD
ATOM     35  H   UNL     1      -1.484   9.468  16.886  0.00  0.00    +0.023 HD
ATOM     36  H   UNL     1      -1.159  11.205  16.795  0.00  0.00    +0.023 HD
ENDBRANCH  16  33
ENDBRANCH   1  21
BRANCH   4  37
ATOM     37  C   UNL     1       3.758   5.767  18.535  0.00  0.00    +0.033 A 
ATOM     38  C   UNL     1       5.109   5.784  18.167  0.00  0.00    -0.022 A 
ATOM     39  C   UNL     1       5.786   4.593  17.951  0.00  0.00    +0.030 A 
ATOM     40  N   UNL     1       5.222   3.380  18.085  0.00  0.00    -0.250 NA
ATOM     41  C   UNL     1       3.922   3.364  18.462  0.00  0.00    +0.127 A 
ATOM     42  C   UNL     1       3.166   4.512  18.696  0.00  0.00    -0.010 A 
ATOM     43  H   UNL     1       5.647   6.722  18.068  0.00  0.00    +0.065 HD
ATOM     44  H   UNL     1       6.833   4.590  17.664  0.00  0.00    +0.083 HD
ATOM     45  H   UNL     1       2.121   4.408  18.960  0.00  0.00    +0.066 HD
BRANCH  41  46
ATOM     46  C   UNL     1       3.301   2.011  18.629  0.00  0.00    +0.260 C 
ATOM     47  N   UNL     1       4.117   0.926  18.402  0.00  0.00    -0.324 N 
ATOM     48  O   UNL     1       2.126   1.845  18.928  0.00  0.00    -0.269 OA
ATOM     49  H   UNL     1       3.627   0.041  18.348  0.00  0.00    +0.145 HD
ATOM     50  H   UNL     1       4.942   1.023  17.826  0.00  0.00    +0.145 HD
ENDBRANCH  41  46
ENDBRANCH   4  37
TORSDOF 4
ENDMDL
MODEL 23
REMARK VINA RESULT:    -6.216      2.078      2.734
REMARK INTER + INTRA:          -8.107
REMARK INTER:                  -7.666
REMARK INTRA:                  -0.440
REMARK UNBOUND:                -0.618
REMARK  Name = 
REMARK  4 active torsions:
REMARK  status: ('A' for Active; 'I' for Inactive)
REMARK    1  A    between atoms: C_1  and  C_2
REMARK    2  A    between atoms: C_7  and  C_9
REMARK    3  A    between atoms: N_12  and  C_13
REMARK    4  A    between atoms: C_17  and  C_18
REMARK                            x       y       z     vdW  Elec       q    Type
REMARK                         _______ _______ _______ _____ _____    ______ ____
ROOT
ATOM      1  C   UNL     1       2.186   6.320  19.999  0.00  0.00    +0.039 C 
ATOM      2  C   UNL     1       1.961   6.792  18.554  0.00  0.00    -0.026 C 
ATOM      3  C   UNL     1       2.172   8.298  18.426  0.00  0.00    +0.013 C 
ATOM      4  N   UNL     1       1.297   9.012  19.377  0.00  0.00    -0.330 N 
ATOM      5  C   UNL     1       1.478   8.612  20.779  0.00  0.00    +0.013 C 
ATOM      6  C   UNL     1       1.256   7.108  20.929  0.00  0.00    -0.026 C 
ATOM      7  H   UNL     1       3.236   6.521  20.241  0.00  0.00    +0.040 HD
ATOM      8  H   UNL     1       2.645   6.266  17.878  0.00  0.00    +0.029 HD
ATOM      9  H   UNL     1       0.942   6.542  18.229  0.00  0.00    +0.029 HD
ATOM     10  H   UNL     1       3.222   8.550  18.628  0.00  0.00    +0.046 HD
ATOM     11  H   UNL     1       1.967   8.573  17.385  0.00  0.00    +0.046 HD
ATOM     12  H   UNL     1       2.487   8.872  21.126  0.00  0.00    +0.046 HD
ATOM     13  H   UNL     1       0.751   9.124  21.422  0.00  0.00    +0.046 HD
ATOM     14  H   UNL     1       1.405   6.826  21.976  0.00  0.00    +0.029 HD
ATOM     15  H   UNL     1       0.211   6.866  20.694  0.00  0.00    +0.029 HD
ENDROOT
BRANCH   1  21
ATOM     16  C   UNL     1       4.417   3.637  17.985  0.00  0.00    -0.028 C 
ATOM     17  C   UNL     1       4.111   2.130  18.057  0.00  0.00    -0.048 C 
ATOM     18  C   UNL     1       2.805   1.827  18.797  0.00  0.00    -0.037 C 
ATOM     19  C   UNL     1       2.776   2.520  20.157  0.00  0.00    +0.015 C 
ATOM     20  N   UNL     1       3.012   3.954  20.001  0.00  0.00    -0.301 N 
ATOM     21  C   UNL     1       1.929   4.819  20.132  0.00  0.00    +0.219 C 
ATOM     22  O   UNL     1       0.796   4.400  20.378  0.00  0.00    -0.275 OA
ATOM     23  C   UNL     1       4.295   4.281  19.377  0.00  0.00    +0.017 C 
ATOM     24  H   UNL     1       5.454   3.756  17.646  0.00  0.00    +0.031 HD
ATOM     25  H   UNL     1       4.934   1.630  18.584  0.00  0.00    +0.027 HD
ATOM     26  H   UNL     1       4.077   1.696  17.051  0.00  0.00    +0.027 HD
ATOM     27  H   UNL     1       1.953   2.161  18.193  0.00  0.00    +0.028 HD
ATOM     28  H   UNL     1       2.698   0.744  18.930  0.00  0.00    +0.028 HD
ATOM     29  H   UNL     1       1.825   2.322  20.658  0.00  0.00    +0.046 HD
ATOM     30  H   UNL     1       3.569   2.124  20.802  0.00  0.00    +0.046 HD
ATOM     31  H   UNL     1       5.079   3.887  20.035  0.00  0.00    +0.047 HD
ATOM     32  H   UNL     1       4.459   5.357  19.305  0.00  0.00    +0.047 HD
BRANCH  16  33
ATOM     33  C   UNL     1       3.528   4.343  16.957  0.00  0.00    -0.061 C 
ATOM     34  H   UNL     1       2.479   4.308  17.269  0.00  0.00    +0.023 HD
ATOM     35  H   UNL     1       3.597   3.885  15.965  0.00  0.00    +0.023 HD
ATOM     36  H   UNL     1       3.810   5.395  16.861  0.00  0.00    +0.023 HD
ENDBRANCH  16  33
ENDBRANCH   1  21
BRANCH   4  37
ATOM     37  C   UNL     1       1.158  10.384  19.096  0.00  0.00    +0.033 A 
ATOM     38  C   UNL     1       2.167  11.052  18.388  0.00  0.00    -0.022 A 
ATOM     39  C   UNL     1       2.039  12.404  18.107  0.00  0.00    +0.030 A 
ATOM     40  N   UNL     1       0.976  13.144  18.469  0.00  0.00    -0.250 NA
ATOM     41  C   UNL     1      -0.006  12.493  19.134  0.00  0.00    +0.127 A 
ATOM     42  C   UNL     1       0.041  11.138  19.460  0.00  0.00    -0.010 A 
ATOM     43  H   UNL     1       3.043  10.519  18.032  0.00  0.00    +0.065 HD
ATOM     44  H   UNL     1       2.812  12.936  17.560  0.00  0.00    +0.083 HD
ATOM     45  H   UNL     1      -0.774  10.706  20.027  0.00  0.00    +0.066 HD
BRANCH  41  46
ATOM     46  C   UNL     1      -1.198  13.316  19.519  0.00  0.00    +0.260 C 
ATOM     47  N   UNL     1      -1.062  14.681  19.421  0.00  0.00    -0.324 N 
ATOM     48  O   UNL     1      -2.245  12.829  19.926  0.00  0.00    -0.269 OA
ATOM     49  H   UNL     1      -1.813  15.206  19.854  0.00  0.00    +0.145 HD
ATOM     50  H   UNL     1      -0.143  15.103  19.443  0.00  0.00    +0.145 HD
ENDBRANCH  41  46
ENDBRANCH   4  37
TORSDOF 4
ENDMDL
MODEL 24
REMARK VINA RESULT:    -6.080      1.907      8.493
REMARK INTER + INTRA:          -7.942
REMARK INTER:                  -7.883
REMARK INTRA:                  -0.059
REMARK UNBOUND:                -0.618
REMARK  Name = 
REMARK  4 active torsions:
REMARK  status: ('A' for Active; 'I' for Inactive)
REMARK    1  A    between atoms: C_1  and  C_2
REMARK    2  A    between atoms: C_7  and  C_9
REMARK    3  A    between atoms: N_12  and  C_13
REMARK    4  A    between atoms: C_17  and  C_18
REMARK                            x       y       z     vdW  Elec       q    Type
REMARK                         _______ _______ _______ _____ _____    ______ ____
ROOT
ATOM      1  C   UNL     1       0.392   9.258  20.301  0.00  0.00    +0.039 C 
ATOM      2  C   UNL     1       1.525   9.593  19.318  0.00  0.00    -0.026 C 
ATOM      3  C   UNL     1       1.971   8.354  18.547  0.00  0.00    +0.013 C 
ATOM      4  N   UNL     1       2.363   7.287  19.490  0.00  0.00    -0.330 N 
ATOM      5  C   UNL     1       1.311   6.914  20.446  0.00  0.00    +0.013 C 
ATOM      6  C   UNL     1       0.863   8.140  21.239  0.00  0.00    -0.026 C 
ATOM      7  H   UNL     1      -0.462   8.925  19.701  0.00  0.00    +0.040 HD
ATOM      8  H   UNL     1       1.194  10.365  18.614  0.00  0.00    +0.029 HD
ATOM      9  H   UNL     1       2.385  10.008  19.860  0.00  0.00    +0.029 HD
ATOM     10  H   UNL     1       1.156   7.998  17.902  0.00  0.00    +0.046 HD
ATOM     11  H   UNL     1       2.797   8.652  17.891  0.00  0.00    +0.046 HD
ATOM     12  H   UNL     1       0.451   6.478  19.922  0.00  0.00    +0.046 HD
ATOM     13  H   UNL     1       1.689   6.172  21.161  0.00  0.00    +0.046 HD
ATOM     14  H   UNL     1       0.074   7.847  21.938  0.00  0.00    +0.029 HD
ATOM     15  H   UNL     1       1.696   8.504  21.855  0.00  0.00    +0.029 HD
ENDROOT
BRANCH   1  21
ATOM     16  C   UNL     1      -0.315  12.785  18.486  0.00  0.00    -0.028 C 
ATOM     17  C   UNL     1      -0.654  14.047  19.300  0.00  0.00    -0.048 C 
ATOM     18  C   UNL     1      -0.504  13.836  20.809  0.00  0.00    -0.037 C 
ATOM     19  C   UNL     1      -1.268  12.594  21.263  0.00  0.00    +0.015 C 
ATOM     20  N   UNL     1      -0.848  11.427  20.490  0.00  0.00    -0.301 N 
ATOM     21  C   UNL     1      -0.020  10.492  21.104  0.00  0.00    +0.219 C 
ATOM     22  O   UNL     1       0.351  10.628  22.271  0.00  0.00    -0.275 OA
ATOM     23  C   UNL     1      -1.061  11.562  19.047  0.00  0.00    +0.017 C 
ATOM     24  H   UNL     1      -0.654  12.945  17.455  0.00  0.00    +0.031 HD
ATOM     25  H   UNL     1      -1.694  14.330  19.090  0.00  0.00    +0.027 HD
ATOM     26  H   UNL     1      -0.031  14.891  18.980  0.00  0.00    +0.027 HD
ATOM     27  H   UNL     1       0.558  13.730  21.063  0.00  0.00    +0.028 HD
ATOM     28  H   UNL     1      -0.876  14.716  21.345  0.00  0.00    +0.028 HD
ATOM     29  H   UNL     1      -1.124  12.437  22.336  0.00  0.00    +0.046 HD
ATOM     30  H   UNL     1      -2.344  12.728  21.098  0.00  0.00    +0.046 HD
ATOM     31  H   UNL     1      -2.140  11.687  18.896  0.00  0.00    +0.047 HD
ATOM     32  H   UNL     1      -0.770  10.665  18.500  0.00  0.00    +0.047 HD
BRANCH  16  33
ATOM     33  C   UNL     1       1.197  12.545  18.426  0.00  0.00    -0.061 C 
ATOM     34  H   UNL     1       1.584  12.780  17.429  0.00  0.00    +0.023 HD
ATOM     35  H   UNL     1       1.462  11.507  18.651  0.00  0.00    +0.023 HD
ATOM     36  H   UNL     1       1.717  13.187  19.144  0.00  0.00    +0.023 HD
ENDBRANCH  16  33
ENDBRANCH   1  21
BRANCH   4  37
ATOM     37  C   UNL     1       3.109   6.253  18.894  0.00  0.00    +0.033 A 
ATOM     38  C   UNL     1       3.941   6.539  17.803  0.00  0.00    -0.022 A 
ATOM     39  C   UNL     1       4.680   5.526  17.209  0.00  0.00    +0.030 A 
ATOM     40  N   UNL     1       4.662   4.248  17.626  0.00  0.00    -0.250 NA
ATOM     41  C   UNL     1       3.875   3.977  18.693  0.00  0.00    +0.127 A 
ATOM     42  C   UNL     1       3.098   4.932  19.348  0.00  0.00    -0.010 A 
ATOM     43  H   UNL     1       4.036   7.552  17.426  0.00  0.00    +0.065 HD
ATOM     44  H   UNL     1       5.328   5.731  16.363  0.00  0.00    +0.083 HD
ATOM     45  H   UNL     1       2.468   4.621  20.171  0.00  0.00    +0.066 HD
BRANCH  41  46
ATOM     46  C   UNL     1       3.872   2.556  19.166  0.00  0.00    +0.260 C 
ATOM     47  N   UNL     1       4.980   2.138  19.868  0.00  0.00    -0.324 N 
ATOM     48  O   UNL     1       2.958   1.775  18.937  0.00  0.00    -0.269 OA
ATOM     49  H   UNL     1       5.025   1.137  20.016  0.00  0.00    +0.145 HD
ATOM     50  H   UNL     1       5.862   2.621  19.759  0.00  0.00    +0.145 HD
ENDBRANCH  41  46
ENDBRANCH   4  37
TORSDOF 4
ENDMDL
MODEL 25
REMARK VINA RESULT:    -5.754      2.920      3.950
REMARK INTER + INTRA:          -7.550
REMARK INTER:                  -7.755
REMARK INTRA:                   0.205
REMARK UNBOUND:                -0.618
REMARK  Name = 
REMARK  4 active torsions:
REMARK  status: ('A' for Active; 'I' for Inactive)
REMARK    1  A    between atoms: C_1  and  C_2
REMARK    2  A    between atoms: C_7  and  C_9
REMARK    3  A    between atoms: N_12  and  C_13
REMARK    4  A    between atoms: C_17  and  C_18
REMARK                            x       y       z     vdW  Elec       q    Type
REMARK                         _______ _______ _______ _____ _____    ______ ____
ROOT
ATOM      1  C   UNL     1       3.566   6.515  18.452  0.00  0.00    +0.039 C 
ATOM      2  C   UNL     1       2.920   6.722  19.830  0.00  0.00    -0.026 C 
ATOM      3  C   UNL     1       1.558   7.398  19.706  0.00  0.00    +0.013 C 
ATOM      4  N   UNL     1       1.692   8.670  18.967  0.00  0.00    -0.330 N 
ATOM      5  C   UNL     1       2.292   8.531  17.633  0.00  0.00    +0.013 C 
ATOM      6  C   UNL     1       3.664   7.869  17.741  0.00  0.00    -0.026 C 
ATOM      7  H   UNL     1       2.916   5.831  17.895  0.00  0.00    +0.040 HD
ATOM      8  H   UNL     1       2.807   5.758  20.340  0.00  0.00    +0.029 HD
ATOM      9  H   UNL     1       3.571   7.340  20.464  0.00  0.00    +0.029 HD
ATOM     10  H   UNL     1       0.856   6.737  19.179  0.00  0.00    +0.046 HD
ATOM     11  H   UNL     1       1.167   7.545  20.718  0.00  0.00    +0.046 HD
ATOM     12  H   UNL     1       1.644   7.932  16.980  0.00  0.00    +0.046 HD
ATOM     13  H   UNL     1       2.430   9.516  17.169  0.00  0.00    +0.046 HD
ATOM     14  H   UNL     1       4.092   7.764  16.739  0.00  0.00    +0.029 HD
ATOM     15  H   UNL     1       4.347   8.527  18.296  0.00  0.00    +0.029 HD
ENDROOT
BRANCH   1  21
ATOM     16  C   UNL     1       5.655   5.366  15.204  0.00  0.00    -0.028 C 
ATOM     17  C   UNL     1       7.014   4.656  15.339  0.00  0.00    -0.048 C 
ATOM     18  C   UNL     1       7.351   4.295  16.789  0.00  0.00    -0.037 C 
ATOM     19  C   UNL     1       7.205   5.511  17.700  0.00  0.00    +0.015 C 
ATOM     20  N   UNL     1       5.871   6.092  17.563  0.00  0.00    -0.301 N 
ATOM     21  C   UNL     1       4.950   5.879  18.586  0.00  0.00    +0.219 C 
ATOM     22  O   UNL     1       5.242   5.226  19.589  0.00  0.00    -0.275 OA
ATOM     23  C   UNL     1       5.550   6.531  16.204  0.00  0.00    +0.017 C 
ATOM     24  H   UNL     1       5.589   5.782  14.191  0.00  0.00    +0.031 HD
ATOM     25  H   UNL     1       7.797   5.323  14.956  0.00  0.00    +0.027 HD
ATOM     26  H   UNL     1       7.041   3.754  14.716  0.00  0.00    +0.027 HD
ATOM     27  H   UNL     1       6.687   3.493  17.133  0.00  0.00    +0.028 HD
ATOM     28  H   UNL     1       8.375   3.910  16.845  0.00  0.00    +0.028 HD
ATOM     29  H   UNL     1       7.416   5.230  18.736  0.00  0.00    +0.046 HD
ATOM     30  H   UNL     1       7.931   6.284  17.422  0.00  0.00    +0.046 HD
ATOM     31  H   UNL     1       6.278   7.308  15.941  0.00  0.00    +0.047 HD
ATOM     32  H   UNL     1       4.563   6.990  16.138  0.00  0.00    +0.047 HD
BRANCH  16  33
ATOM     33  C   UNL     1       4.490   4.383  15.359  0.00  0.00    -0.061 C 
ATOM     34  H   UNL     1       3.560   4.921  15.570  0.00  0.00    +0.023 HD
ATOM     35  H   UNL     1       4.655   3.669  16.171  0.00  0.00    +0.023 HD
ATOM     36  H   UNL     1       4.341   3.814  14.436  0.00  0.00    +0.023 HD
ENDBRANCH  16  33
ENDBRANCH   1  21
BRANCH   4  37
ATOM     37  C   UNL     1       0.580   9.523  19.104  0.00  0.00    +0.033 A 
ATOM     38  C   UNL     1       0.427  10.278  20.274  0.00  0.00    -0.022 A 
ATOM     39  C   UNL     1      -0.666  11.120  20.419  0.00  0.00    +0.030 A 
ATOM     40  N   UNL     1      -1.616  11.277  19.480  0.00  0.00    -0.250 NA
ATOM     41  C   UNL     1      -1.455  10.564  18.342  0.00  0.00    +0.127 A 
ATOM     42  C   UNL     1      -0.390   9.692  18.114  0.00  0.00    -0.010 A 
ATOM     43  H   UNL     1       1.166  10.232  21.068  0.00  0.00    +0.065 HD
ATOM     44  H   UNL     1      -0.800  11.711  21.320  0.00  0.00    +0.083 HD
ATOM     45  H   UNL     1      -0.358   9.133  17.188  0.00  0.00    +0.066 HD
BRANCH  41  46
ATOM     46  C   UNL     1      -2.504  10.755  17.290  0.00  0.00    +0.260 C 
ATOM     47  N   UNL     1      -2.220  11.662  16.295  0.00  0.00    -0.324 N 
ATOM     48  O   UNL     1      -3.578  10.169  17.300  0.00  0.00    -0.269 OA
ATOM     49  H   UNL     1      -3.012  11.897  15.708  0.00  0.00    +0.145 HD
ATOM     50  H   UNL     1      -1.539  12.393  16.453  0.00  0.00    +0.145 HD
ENDBRANCH  41  46
ENDBRANCH   4  37
TORSDOF 4
ENDMDL
MODEL 26
REMARK VINA RESULT:    -5.593      2.359      3.303
REMARK INTER + INTRA:          -7.356
REMARK INTER:                  -7.944
REMARK INTRA:                   0.588
REMARK UNBOUND:                -0.618
REMARK  Name = 
REMARK  4 active torsions:
REMARK  status: ('A' for Active; 'I' for Inactive)
REMARK    1  A    between atoms: C_1  and  C_2
REMARK    2  A    between atoms: C_7  and  C_9
REMARK    3  A    between atoms: N_12  and  C_13
REMARK    4  A    between atoms: C_17  and  C_18
REMARK                            x       y       z     vdW  Elec       q    Type
REMARK                         _______ _______ _______ _____ _____    ______ ____
ROOT
ATOM      1  C   UNL     1       3.657   5.781  18.543  0.00  0.00    +0.039 C 
ATOM      2  C   UNL     1       3.183   5.905  19.999  0.00  0.00    -0.026 C 
ATOM      3  C   UNL     1       1.898   6.723  20.094  0.00  0.00    +0.013 C 
ATOM      4  N   UNL     1       2.095   8.046  19.467  0.00  0.00    -0.330 N 
ATOM      5  C   UNL     1       2.535   7.988  18.066  0.00  0.00    +0.013 C 
ATOM      6  C   UNL     1       3.830   7.186  17.955  0.00  0.00    -0.026 C 
ATOM      7  H   UNL     1       2.882   5.227  18.002  0.00  0.00    +0.040 HD
ATOM      8  H   UNL     1       3.018   4.909  20.426  0.00  0.00    +0.029 HD
ATOM      9  H   UNL     1       3.960   6.385  20.610  0.00  0.00    +0.029 HD
ATOM     10  H   UNL     1       1.078   6.193  19.591  0.00  0.00    +0.046 HD
ATOM     11  H   UNL     1       1.632   6.801  21.154  0.00  0.00    +0.046 HD
ATOM     12  H   UNL     1       1.762   7.528  17.438  0.00  0.00    +0.046 HD
ATOM     13  H   UNL     1       2.733   8.998  17.684  0.00  0.00    +0.046 HD
ATOM     14  H   UNL     1       4.138   7.144  16.906  0.00  0.00    +0.029 HD
ATOM     15  H   UNL     1       4.634   7.710  18.488  0.00  0.00    +0.029 HD
ENDROOT
BRANCH   1  21
ATOM     16  C   UNL     1       5.833   5.722  15.153  0.00  0.00    -0.028 C 
ATOM     17  C   UNL     1       7.114   4.875  15.041  0.00  0.00    -0.048 C 
ATOM     18  C   UNL     1       7.328   3.964  16.253  0.00  0.00    -0.037 C 
ATOM     19  C   UNL     1       7.233   4.757  17.554  0.00  0.00    +0.015 C 
ATOM     20  N   UNL     1       5.966   5.484  17.616  0.00  0.00    -0.301 N 
ATOM     21  C   UNL     1       4.969   5.000  18.459  0.00  0.00    +0.219 C 
ATOM     22  O   UNL     1       5.140   3.992  19.146  0.00  0.00    -0.275 OA
ATOM     23  C   UNL     1       5.770   6.431  16.517  0.00  0.00    +0.017 C 
ATOM     24  H   UNL     1       5.867   6.492  14.372  0.00  0.00    +0.031 HD
ATOM     25  H   UNL     1       7.975   5.552  14.958  0.00  0.00    +0.027 HD
ATOM     26  H   UNL     1       7.100   4.275  14.124  0.00  0.00    +0.027 HD
ATOM     27  H   UNL     1       6.576   3.165  16.251  0.00  0.00    +0.028 HD
ATOM     28  H   UNL     1       8.309   3.480  16.184  0.00  0.00    +0.028 HD
ATOM     29  H   UNL     1       7.355   4.088  18.411  0.00  0.00    +0.046 HD
ATOM     30  H   UNL     1       8.040   5.498  17.607  0.00  0.00    +0.046 HD
ATOM     31  H   UNL     1       6.578   7.170  16.586  0.00  0.00    +0.047 HD
ATOM     32  H   UNL     1       4.833   6.982  16.607  0.00  0.00    +0.047 HD
BRANCH  16  33
ATOM     33  C   UNL     1       4.580   4.881  14.896  0.00  0.00    -0.061 C 
ATOM     34  H   UNL     1       3.732   5.269  15.470  0.00  0.00    +0.023 HD
ATOM     35  H   UNL     1       4.720   3.831  15.174  0.00  0.00    +0.023 HD
ATOM     36  H   UNL     1       4.305   4.914  13.837  0.00  0.00    +0.023 HD
ENDBRANCH  16  33
ENDBRANCH   1  21
BRANCH   4  37
ATOM     37  C   UNL     1       1.104   8.985  19.809  0.00  0.00    +0.033 A 
ATOM     38  C   UNL     1       0.469   9.721  18.799  0.00  0.00    -0.022 A 
ATOM     39  C   UNL     1      -0.507  10.650  19.127  0.00  0.00    +0.030 A 
ATOM     40  N   UNL     1      -0.910  10.896  20.386  0.00  0.00    -0.250 NA
ATOM     41  C   UNL     1      -0.312  10.169  21.358  0.00  0.00    +0.127 A 
ATOM     42  C   UNL     1       0.680   9.218  21.119  0.00  0.00    -0.010 A 
ATOM     43  H   UNL     1       0.714   9.560  17.754  0.00  0.00    +0.065 HD
ATOM     44  H   UNL     1      -1.008  11.229  18.357  0.00  0.00    +0.083 HD
ATOM     45  H   UNL     1       1.132   8.708  21.960  0.00  0.00    +0.066 HD
BRANCH  41  46
ATOM     46  C   UNL     1      -0.776  10.431  22.757  0.00  0.00    +0.260 C 
ATOM     47  N   UNL     1      -0.238   9.638  23.744  0.00  0.00    -0.324 N 
ATOM     48  O   UNL     1      -1.607  11.284  23.039  0.00  0.00    -0.269 OA
ATOM     49  H   UNL     1      -0.700   9.719  24.642  0.00  0.00    +0.145 HD
ATOM     50  H   UNL     1       0.148   8.732  23.513  0.00  0.00    +0.145 HD
ENDBRANCH  41  46
ENDBRANCH   4  37
TORSDOF 4
ENDMDL
MODEL 27
REMARK VINA RESULT:    -5.561      1.827      8.650
REMARK INTER + INTRA:          -7.317
REMARK INTER:                  -7.141
REMARK INTRA:                  -0.176
REMARK UNBOUND:                -0.618
REMARK  Name = 
REMARK  4 active torsions:
REMARK  status: ('A' for Active; 'I' for Inactive)
REMARK    1  A    between atoms: C_1  and  C_2
REMARK    2  A    between atoms: C_7  and  C_9
REMARK    3  A    between atoms: N_12  and  C_13
REMARK    4  A    between atoms: C_17  and  C_18
REMARK                            x       y       z     vdW  Elec       q    Type
REMARK                         _______ _______ _______ _____ _____    ______ ____
ROOT
ATOM      1  C   UNL     1      -0.155   9.998  20.607  0.00  0.00    +0.039 C 
ATOM      2  C   UNL     1       1.139  10.170  19.797  0.00  0.00    -0.026 C 
ATOM      3  C   UNL     1       1.550   8.862  19.127  0.00  0.00    +0.013 C 
ATOM      4  N   UNL     1       1.676   7.795  20.140  0.00  0.00    -0.330 N 
ATOM      5  C   UNL     1       0.461   7.575  20.937  0.00  0.00    +0.013 C 
ATOM      6  C   UNL     1       0.044   8.872  21.628  0.00  0.00    -0.026 C 
ATOM      7  H   UNL     1      -0.946   9.738  19.894  0.00  0.00    +0.040 HD
ATOM      8  H   UNL     1       1.004  10.947  19.035  0.00  0.00    +0.029 HD
ATOM      9  H   UNL     1       1.953  10.510  20.452  0.00  0.00    +0.029 HD
ATOM     10  H   UNL     1       0.802   8.573  18.376  0.00  0.00    +0.046 HD
ATOM     11  H   UNL     1       2.490   9.043  18.595  0.00  0.00    +0.046 HD
ATOM     12  H   UNL     1      -0.358   7.217  20.300  0.00  0.00    +0.046 HD
ATOM     13  H   UNL     1       0.644   6.824  21.716  0.00  0.00    +0.046 HD
ATOM     14  H   UNL     1      -0.866   8.693  22.208  0.00  0.00    +0.029 HD
ATOM     15  H   UNL     1       0.815   9.166  22.353  0.00  0.00    +0.029 HD
ENDROOT
BRANCH   1  21
ATOM     16  C   UNL     1      -0.381  13.478  18.588  0.00  0.00    -0.028 C 
ATOM     17  C   UNL     1      -0.690  14.801  19.311  0.00  0.00    -0.048 C 
ATOM     18  C   UNL     1      -0.705  14.653  20.835  0.00  0.00    -0.037 C 
ATOM     19  C   UNL     1      -1.612  13.500  21.260  0.00  0.00    +0.015 C 
ATOM     20  N   UNL     1      -1.219  12.267  20.581  0.00  0.00    -0.301 N 
ATOM     21  C   UNL     1      -0.537  11.299  21.313  0.00  0.00    +0.219 C 
ATOM     22  O   UNL     1      -0.271  11.462  22.505  0.00  0.00    -0.275 OA
ATOM     23  C   UNL     1      -1.279  12.348  19.120  0.00  0.00    +0.017 C 
ATOM     24  H   UNL     1      -0.604  13.614  17.522  0.00  0.00    +0.031 HD
ATOM     25  H   UNL     1      -1.676  15.156  18.986  0.00  0.00    +0.027 HD
ATOM     26  H   UNL     1       0.031  15.575  19.021  0.00  0.00    +0.027 HD
ATOM     27  H   UNL     1       0.314  14.475  21.199  0.00  0.00    +0.028 HD
ATOM     28  H   UNL     1      -1.051  15.586  21.294  0.00  0.00    +0.028 HD
ATOM     29  H   UNL     1      -1.587  13.385  22.348  0.00  0.00    +0.046 HD
ATOM     30  H   UNL     1      -2.652  13.712  20.983  0.00  0.00    +0.046 HD
ATOM     31  H   UNL     1      -2.324  12.551  18.856  0.00  0.00    +0.047 HD
ATOM     32  H   UNL     1      -1.014  11.404  18.642  0.00  0.00    +0.047 HD
BRANCH  16  33
ATOM     33  C   UNL     1       1.103  13.114  18.690  0.00  0.00    -0.061 C 
ATOM     34  H   UNL     1       1.272  12.089  18.345  0.00  0.00    +0.023 HD
ATOM     35  H   UNL     1       1.478  13.187  19.716  0.00  0.00    +0.023 HD
ATOM     36  H   UNL     1       1.706  13.779  18.064  0.00  0.00    +0.023 HD
ENDBRANCH  16  33
ENDBRANCH   1  21
BRANCH   4  37
ATOM     37  C   UNL     1       2.379   6.664  19.684  0.00  0.00    +0.033 A 
ATOM     38  C   UNL     1       2.330   5.474  20.422  0.00  0.00    -0.022 A 
ATOM     39  C   UNL     1       3.020   4.355  19.980  0.00  0.00    +0.030 A 
ATOM     40  N   UNL     1       3.751   4.326  18.852  0.00  0.00    -0.250 NA
ATOM     41  C   UNL     1       3.780   5.470  18.129  0.00  0.00    +0.127 A 
ATOM     42  C   UNL     1       3.119   6.641  18.500  0.00  0.00    -0.010 A 
ATOM     43  H   UNL     1       1.737   5.404  21.328  0.00  0.00    +0.065 HD
ATOM     44  H   UNL     1       2.993   3.425  20.541  0.00  0.00    +0.083 HD
ATOM     45  H   UNL     1       3.225   7.522  17.881  0.00  0.00    +0.066 HD
BRANCH  41  46
ATOM     46  C   UNL     1       4.578   5.429  16.863  0.00  0.00    +0.260 C 
ATOM     47  N   UNL     1       4.989   6.640  16.354  0.00  0.00    -0.324 N 
ATOM     48  O   UNL     1       4.847   4.391  16.273  0.00  0.00    -0.269 OA
ATOM     49  H   UNL     1       5.367   6.590  15.415  0.00  0.00    +0.145 HD
ATOM     50  H   UNL     1       4.496   7.488  16.601  0.00  0.00    +0.145 HD
ENDBRANCH  41  46
ENDBRANCH   4  37
TORSDOF 4
ENDMDL
MODEL 28
REMARK VINA RESULT:    -5.436      2.365      8.158
REMARK INTER + INTRA:          -7.167
REMARK INTER:                  -7.595
REMARK INTRA:                   0.429
REMARK UNBOUND:                -0.618
REMARK  Name = 
REMARK  4 active torsions:
REMARK  status: ('A' for Active; 'I' for Inactive)
REMARK    1  A    between atoms: C_1  and  C_2
REMARK    2  A    between atoms: C_7  and  C_9
REMARK    3  A    between atoms: N_12  and  C_13
REMARK    4  A    between atoms: C_17  and  C_18
REMARK                            x       y       z     vdW  Elec       q    Type
REMARK                         _______ _______ _______ _____ _____    ______ ____
ROOT
ATOM      1  C   UNL     1       1.538  10.142  19.330  0.00  0.00    +0.039 C 
ATOM      2  C   UNL     1       1.031   8.943  20.145  0.00  0.00    -0.026 C 
ATOM      3  C   UNL     1       1.966   7.745  20.008  0.00  0.00    +0.013 C 
ATOM      4  N   UNL     1       2.141   7.403  18.582  0.00  0.00    -0.330 N 
ATOM      5  C   UNL     1       2.639   8.510  17.754  0.00  0.00    +0.013 C 
ATOM      6  C   UNL     1       1.705   9.713  17.867  0.00  0.00    -0.026 C 
ATOM      7  H   UNL     1       2.502  10.435  19.759  0.00  0.00    +0.040 HD
ATOM      8  H   UNL     1       0.940   9.220  21.202  0.00  0.00    +0.029 HD
ATOM      9  H   UNL     1       0.026   8.655  19.808  0.00  0.00    +0.029 HD
ATOM     10  H   UNL     1       2.942   7.978  20.455  0.00  0.00    +0.046 HD
ATOM     11  H   UNL     1       1.534   6.920  20.584  0.00  0.00    +0.046 HD
ATOM     12  H   UNL     1       3.651   8.798  18.065  0.00  0.00    +0.046 HD
ATOM     13  H   UNL     1       2.676   8.213  16.698  0.00  0.00    +0.046 HD
ATOM     14  H   UNL     1       2.096  10.530  17.254  0.00  0.00    +0.029 HD
ATOM     15  H   UNL     1       0.724   9.457  17.446  0.00  0.00    +0.029 HD
ENDROOT
BRANCH   1  21
ATOM     16  C   UNL     1      -2.305   9.804  18.167  0.00  0.00    -0.028 C 
ATOM     17  C   UNL     1      -3.257  11.013  18.198  0.00  0.00    -0.048 C 
ATOM     18  C   UNL     1      -2.538  12.324  18.527  0.00  0.00    -0.037 C 
ATOM     19  C   UNL     1      -1.694  12.180  19.791  0.00  0.00    +0.015 C 
ATOM     20  N   UNL     1      -0.773  11.053  19.662  0.00  0.00    -0.301 N 
ATOM     21  C   UNL     1       0.573  11.323  19.434  0.00  0.00    +0.219 C 
ATOM     22  O   UNL     1       0.992  12.479  19.347  0.00  0.00    -0.275 OA
ATOM     23  C   UNL     1      -1.435   9.767  19.436  0.00  0.00    +0.017 C 
ATOM     24  H   UNL     1      -2.915   8.892  18.148  0.00  0.00    +0.031 HD
ATOM     25  H   UNL     1      -4.024  10.835  18.964  0.00  0.00    +0.027 HD
ATOM     26  H   UNL     1      -3.788  11.110  17.243  0.00  0.00    +0.027 HD
ATOM     27  H   UNL     1      -1.897  12.614  17.686  0.00  0.00    +0.028 HD
ATOM     28  H   UNL     1      -3.273  13.126  18.661  0.00  0.00    +0.028 HD
ATOM     29  H   UNL     1      -1.161  13.113  19.994  0.00  0.00    +0.046 HD
ATOM     30  H   UNL     1      -2.338  11.982  20.657  0.00  0.00    +0.046 HD
ATOM     31  H   UNL     1      -2.069   9.577  20.311  0.00  0.00    +0.047 HD
ATOM     32  H   UNL     1      -0.726   8.940  19.377  0.00  0.00    +0.047 HD
BRANCH  16  33
ATOM     33  C   UNL     1      -1.450   9.796  16.897  0.00  0.00    -0.061 C 
ATOM     34  H   UNL     1      -1.263  10.818  16.553  0.00  0.00    +0.023 HD
ATOM     35  H   UNL     1      -1.928   9.249  16.077  0.00  0.00    +0.023 HD
ATOM     36  H   UNL     1      -0.479   9.329  17.089  0.00  0.00    +0.023 HD
ENDBRANCH  16  33
ENDBRANCH   1  21
BRANCH   4  37
ATOM     37  C   UNL     1       2.688   6.124  18.371  0.00  0.00    +0.033 A 
ATOM     38  C   UNL     1       1.911   4.986  18.630  0.00  0.00    -0.022 A 
ATOM     39  C   UNL     1       2.443   3.722  18.427  0.00  0.00    +0.030 A 
ATOM     40  N   UNL     1       3.689   3.501  17.973  0.00  0.00    -0.250 NA
ATOM     41  C   UNL     1       4.431   4.600  17.703  0.00  0.00    +0.127 A 
ATOM     42  C   UNL     1       3.978   5.907  17.882  0.00  0.00    -0.010 A 
ATOM     43  H   UNL     1       0.884   5.079  18.968  0.00  0.00    +0.065 HD
ATOM     44  H   UNL     1       1.855   2.830  18.623  0.00  0.00    +0.083 HD
ATOM     45  H   UNL     1       4.651   6.729  17.675  0.00  0.00    +0.066 HD
BRANCH  41  46
ATOM     46  C   UNL     1       5.812   4.351  17.180  0.00  0.00    +0.260 C 
ATOM     47  N   UNL     1       6.814   4.237  18.116  0.00  0.00    -0.324 N 
ATOM     48  O   UNL     1       6.072   4.271  15.987  0.00  0.00    -0.269 OA
ATOM     49  H   UNL     1       7.750   4.249  17.727  0.00  0.00    +0.145 HD
ATOM     50  H   UNL     1       6.700   4.645  19.034  0.00  0.00    +0.145 HD
ENDBRANCH  41  46
ENDBRANCH   4  37
TORSDOF 4
ENDMDL
MODEL 29
REMARK VINA RESULT:    -5.279      2.268      3.578
REMARK INTER + INTRA:          -6.977
REMARK INTER:                  -8.218
REMARK INTRA:                   1.241
REMARK UNBOUND:                -0.618
REMARK  Name = 
REMARK  4 active torsions:
REMARK  status: ('A' for Active; 'I' for Inactive)
REMARK    1  A    between atoms: C_1  and  C_2
REMARK    2  A    between atoms: C_7  and  C_9
REMARK    3  A    between atoms: N_12  and  C_13
REMARK    4  A    between atoms: C_17  and  C_18
REMARK                            x       y       z     vdW  Elec       q    Type
REMARK                         _______ _______ _______ _____ _____    ______ ____
ROOT
ATOM      1  C   UNL     1       2.762   5.869  18.712  0.00  0.00    +0.039 C 
ATOM      2  C   UNL     1       2.537   6.224  20.189  0.00  0.00    -0.026 C 
ATOM      3  C   UNL     1       1.426   7.258  20.346  0.00  0.00    +0.013 C 
ATOM      4  N   UNL     1       1.733   8.454  19.536  0.00  0.00    -0.330 N 
ATOM      5  C   UNL     1       1.944   8.177  18.109  0.00  0.00    +0.013 C 
ATOM      6  C   UNL     1       3.065   7.154  17.933  0.00  0.00    -0.026 C 
ATOM      7  H   UNL     1       1.837   5.406  18.350  0.00  0.00    +0.040 HD
ATOM      8  H   UNL     1       2.282   5.321  20.757  0.00  0.00    +0.029 HD
ATOM      9  H   UNL     1       3.462   6.621  20.628  0.00  0.00    +0.029 HD
ATOM     10  H   UNL     1       0.466   6.831  20.026  0.00  0.00    +0.046 HD
ATOM     11  H   UNL     1       1.337   7.490  21.413  0.00  0.00    +0.046 HD
ATOM     12  H   UNL     1       1.022   7.797  17.650  0.00  0.00    +0.046 HD
ATOM     13  H   UNL     1       2.239   9.091  17.579  0.00  0.00    +0.046 HD
ATOM     14  H   UNL     1       3.201   6.951  16.866  0.00  0.00    +0.029 HD
ATOM     15  H   UNL     1       4.012   7.582  18.286  0.00  0.00    +0.029 HD
ENDROOT
BRANCH   1  21
ATOM     16  C   UNL     1       6.105   6.823  16.676  0.00  0.00    -0.028 C 
ATOM     17  C   UNL     1       7.225   5.790  16.453  0.00  0.00    -0.048 C 
ATOM     18  C   UNL     1       6.834   4.384  16.914  0.00  0.00    -0.037 C 
ATOM     19  C   UNL     1       6.304   4.408  18.346  0.00  0.00    +0.015 C 
ATOM     20  N   UNL     1       5.204   5.363  18.465  0.00  0.00    -0.301 N 
ATOM     21  C   UNL     1       3.906   4.867  18.557  0.00  0.00    +0.219 C 
ATOM     22  O   UNL     1       3.678   3.656  18.547  0.00  0.00    -0.275 OA
ATOM     23  C   UNL     1       5.569   6.738  18.116  0.00  0.00    +0.017 C 
ATOM     24  H   UNL     1       6.532   7.823  16.532  0.00  0.00    +0.031 HD
ATOM     25  H   UNL     1       8.112   6.108  17.018  0.00  0.00    +0.027 HD
ATOM     26  H   UNL     1       7.522   5.766  15.397  0.00  0.00    +0.027 HD
ATOM     27  H   UNL     1       6.068   3.975  16.243  0.00  0.00    +0.028 HD
ATOM     28  H   UNL     1       7.703   3.719  16.852  0.00  0.00    +0.028 HD
ATOM     29  H   UNL     1       5.998   3.403  18.649  0.00  0.00    +0.046 HD
ATOM     30  H   UNL     1       7.093   4.727  19.038  0.00  0.00    +0.046 HD
ATOM     31  H   UNL     1       6.352   7.047  18.819  0.00  0.00    +0.047 HD
ATOM     32  H   UNL     1       4.739   7.433  18.246  0.00  0.00    +0.047 HD
BRANCH  16  33
ATOM     33  C   UNL     1       4.983   6.664  15.646  0.00  0.00    -0.061 C 
ATOM     34  H   UNL     1       5.381   6.286  14.699  0.00  0.00    +0.023 HD
ATOM     35  H   UNL     1       4.472   7.611  15.440  0.00  0.00    +0.023 HD
ATOM     36  H   UNL     1       4.234   5.949  16.000  0.00  0.00    +0.023 HD
ENDBRANCH  16  33
ENDBRANCH   1  21
BRANCH   4  37
ATOM     37  C   UNL     1       0.965   9.582  19.882  0.00  0.00    +0.033 A 
ATOM     38  C   UNL     1       0.594   9.785  21.218  0.00  0.00    -0.022 A 
ATOM     39  C   UNL     1      -0.163  10.893  21.567  0.00  0.00    +0.030 A 
ATOM     40  N   UNL     1      -0.571  11.825  20.688  0.00  0.00    -0.250 NA
ATOM     41  C   UNL     1      -0.193  11.640  19.402  0.00  0.00    +0.127 A 
ATOM     42  C   UNL     1       0.564  10.554  18.963  0.00  0.00    -0.010 A 
ATOM     43  H   UNL     1       0.910   9.095  21.994  0.00  0.00    +0.065 HD
ATOM     44  H   UNL     1      -0.460  11.064  22.598  0.00  0.00    +0.083 HD
ATOM     45  H   UNL     1       0.791  10.465  17.908  0.00  0.00    +0.066 HD
BRANCH  41  46
ATOM     46  C   UNL     1      -0.633  12.690  18.429  0.00  0.00    +0.260 C 
ATOM     47  N   UNL     1      -1.478  12.282  17.423  0.00  0.00    -0.324 N 
ATOM     48  O   UNL     1      -0.258  13.854  18.484  0.00  0.00    -0.269 OA
ATOM     49  H   UNL     1      -1.611  12.967  16.687  0.00  0.00    +0.145 HD
ATOM     50  H   UNL     1      -1.508  11.309  17.147  0.00  0.00    +0.145 HD
ENDBRANCH  41  46
ENDBRANCH   4  37
TORSDOF 4
ENDMDL
MODEL 30
REMARK VINA RESULT:    -4.986      2.715      8.373
REMARK INTER + INTRA:          -6.625
REMARK INTER:                  -7.797
REMARK INTRA:                   1.172
REMARK UNBOUND:                -0.618
REMARK  Name = 
REMARK  4 active torsions:
REMARK  status: ('A' for Active; 'I' for Inactive)
REMARK    1  A    between atoms: C_1  and  C_2
REMARK    2  A    between atoms: C_7  and  C_9
REMARK    3  A    between atoms: N_12  and  C_13
REMARK    4  A    between atoms: C_17  and  C_18
REMARK                            x       y       z     vdW  Elec       q    Type
REMARK                         _______ _______ _______ _____ _____    ______ ____
ROOT
ATOM      1  C   UNL     1       1.208   9.002  18.698  0.00  0.00    +0.039 C 
ATOM      2  C   UNL     1       2.322   9.328  17.692  0.00  0.00    -0.026 C 
ATOM      3  C   UNL     1       3.000   8.057  17.188  0.00  0.00    +0.013 C 
ATOM      4  N   UNL     1       3.507   7.269  18.329  0.00  0.00    -0.330 N 
ATOM      5  C   UNL     1       2.480   6.915  19.319  0.00  0.00    +0.013 C 
ATOM      6  C   UNL     1       1.801   8.177  19.846  0.00  0.00    -0.026 C 
ATOM      7  H   UNL     1       0.450   8.424  18.158  0.00  0.00    +0.040 HD
ATOM      8  H   UNL     1       1.910   9.886  16.844  0.00  0.00    +0.029 HD
ATOM      9  H   UNL     1       3.076   9.976  18.159  0.00  0.00    +0.029 HD
ATOM     10  H   UNL     1       2.287   7.455  16.609  0.00  0.00    +0.046 HD
ATOM     11  H   UNL     1       3.801   8.358  16.503  0.00  0.00    +0.046 HD
ATOM     12  H   UNL     1       1.729   6.251  18.873  0.00  0.00    +0.046 HD
ATOM     13  H   UNL     1       2.933   6.396  20.173  0.00  0.00    +0.046 HD
ATOM     14  H   UNL     1       1.033   7.895  20.573  0.00  0.00    +0.029 HD
ATOM     15  H   UNL     1       2.532   8.785  20.395  0.00  0.00    +0.029 HD
ENDROOT
BRANCH   1  21
ATOM     16  C   UNL     1       0.123   9.323  22.565  0.00  0.00    -0.028 C 
ATOM     17  C   UNL     1      -0.597  10.579  23.090  0.00  0.00    -0.048 C 
ATOM     18  C   UNL     1      -0.992  11.546  21.971  0.00  0.00    -0.037 C 
ATOM     19  C   UNL     1       0.204  11.859  21.074  0.00  0.00    +0.015 C 
ATOM     20  N   UNL     1       0.795  10.622  20.564  0.00  0.00    -0.301 N 
ATOM     21  C   UNL     1       0.563  10.280  19.235  0.00  0.00    +0.219 C 
ATOM     22  O   UNL     1      -0.114  10.995  18.494  0.00  0.00    -0.275 OA
ATOM     23  C   UNL     1       1.265   9.713  21.611  0.00  0.00    +0.017 C 
ATOM     24  H   UNL     1       0.562   8.800  23.424  0.00  0.00    +0.031 HD
ATOM     25  H   UNL     1       0.076  11.103  23.782  0.00  0.00    +0.027 HD
ATOM     26  H   UNL     1      -1.484  10.300  23.670  0.00  0.00    +0.027 HD
ATOM     27  H   UNL     1      -1.798  11.106  21.371  0.00  0.00    +0.028 HD
ATOM     28  H   UNL     1      -1.383  12.473  22.404  0.00  0.00    +0.028 HD
ATOM     29  H   UNL     1      -0.101  12.523  20.261  0.00  0.00    +0.046 HD
ATOM     30  H   UNL     1       0.980  12.383  21.645  0.00  0.00    +0.046 HD
ATOM     31  H   UNL     1       2.045  10.246  22.168  0.00  0.00    +0.047 HD
ATOM     32  H   UNL     1       1.731   8.816  21.201  0.00  0.00    +0.047 HD
BRANCH  16  33
ATOM     33  C   UNL     1      -0.857   8.350  21.903  0.00  0.00    -0.061 C 
ATOM     34  H   UNL     1      -1.176   7.582  22.616  0.00  0.00    +0.023 HD
ATOM     35  H   UNL     1      -0.418   7.841  21.039  0.00  0.00    +0.023 HD
ATOM     36  H   UNL     1      -1.753   8.878  21.563  0.00  0.00    +0.023 HD
ENDBRANCH  16  33
ENDBRANCH   1  21
BRANCH   4  37
ATOM     37  C   UNL     1       4.439   6.280  17.963  0.00  0.00    +0.033 A 
ATOM     38  C   UNL     1       4.980   5.440  18.945  0.00  0.00    -0.022 A 
ATOM     39  C   UNL     1       5.900   4.464  18.594  0.00  0.00    +0.030 A 
ATOM     40  N   UNL     1       6.316   4.250  17.333  0.00  0.00    -0.250 NA
ATOM     41  C   UNL     1       5.776   5.047  16.382  0.00  0.00    +0.127 A 
ATOM     42  C   UNL     1       4.849   6.055  16.647  0.00  0.00    -0.010 A 
ATOM     43  H   UNL     1       4.673   5.526  19.983  0.00  0.00    +0.065 HD
ATOM     44  H   UNL     1       6.330   3.806  19.343  0.00  0.00    +0.083 HD
ATOM     45  H   UNL     1       4.495   6.671  15.830  0.00  0.00    +0.066 HD
BRANCH  41  46
ATOM     46  C   UNL     1       6.226   4.795  14.976  0.00  0.00    +0.260 C 
ATOM     47  N   UNL     1       5.327   4.169  14.144  0.00  0.00    -0.324 N 
ATOM     48  O   UNL     1       7.339   5.096  14.565  0.00  0.00    -0.269 OA
ATOM     49  H   UNL     1       5.722   3.855  13.265  0.00  0.00    +0.145 HD
ATOM     50  H   UNL     1       4.582   3.606  14.533  0.00  0.00    +0.145 HD
ENDBRANCH  41  46
ENDBRANCH   4  37
TORSDOF 4
ENDMDL
MODEL 31
REMARK VINA RESULT:    -4.969      2.881      8.745
REMARK INTER + INTRA:          -6.604
REMARK INTER:                  -6.601
REMARK INTRA:                  -0.002
REMARK UNBOUND:                -0.618
REMARK  Name = 
REMARK  4 active torsions:
REMARK  status: ('A' for Active; 'I' for Inactive)
REMARK    1  A    between atoms: C_1  and  C_2
REMARK    2  A    between atoms: C_7  and  C_9
REMARK    3  A    between atoms: N_12  and  C_13
REMARK    4  A    between atoms: C_17  and  C_18
REMARK                            x       y       z     vdW  Elec       q    Type
REMARK                         _______ _______ _______ _____ _____    ______ ____
ROOT
ATOM      1  C   UNL     1       1.918   7.663  19.158  0.00  0.00    +0.039 C 
ATOM      2  C   UNL     1       3.051   8.447  18.478  0.00  0.00    -0.026 C 
ATOM      3  C   UNL     1       3.864   7.550  17.549  0.00  0.00    +0.013 C 
ATOM      4  N   UNL     1       4.377   6.384  18.296  0.00  0.00    -0.330 N 
ATOM      5  C   UNL     1       3.334   5.586  18.957  0.00  0.00    +0.013 C 
ATOM      6  C   UNL     1       2.521   6.466  19.904  0.00  0.00    -0.026 C 
ATOM      7  H   UNL     1       1.243   7.325  18.364  0.00  0.00    +0.040 HD
ATOM      8  H   UNL     1       2.636   9.287  17.909  0.00  0.00    +0.029 HD
ATOM      9  H   UNL     1       3.719   8.880  19.235  0.00  0.00    +0.029 HD
ATOM     10  H   UNL     1       3.238   7.208  16.714  0.00  0.00    +0.046 HD
ATOM     11  H   UNL     1       4.669   8.157  17.123  0.00  0.00    +0.046 HD
ATOM     12  H   UNL     1       2.669   5.131  18.213  0.00  0.00    +0.046 HD
ATOM     13  H   UNL     1       3.786   4.782  19.552  0.00  0.00    +0.046 HD
ATOM     14  H   UNL     1       1.743   5.860  20.379  0.00  0.00    +0.029 HD
ATOM     15  H   UNL     1       3.165   6.827  20.716  0.00  0.00    +0.029 HD
ENDROOT
BRANCH   1  21
ATOM     16  C   UNL     1       0.689  11.341  18.063  0.00  0.00    -0.028 C 
ATOM     17  C   UNL     1      -0.031  12.270  19.058  0.00  0.00    -0.048 C 
ATOM     18  C   UNL     1      -0.042  11.715  20.485  0.00  0.00    -0.037 C 
ATOM     19  C   UNL     1      -0.561  10.280  20.507  0.00  0.00    +0.015 C 
ATOM     20  N   UNL     1       0.210   9.446  19.587  0.00  0.00    -0.301 N 
ATOM     21  C   UNL     1       1.136   8.555  20.122  0.00  0.00    +0.219 C 
ATOM     22  O   UNL     1       1.307   8.458  21.339  0.00  0.00    -0.275 OA
ATOM     23  C   UNL     1       0.167   9.899  18.195  0.00  0.00    +0.017 C 
ATOM     24  H   UNL     1       0.463  11.691  17.048  0.00  0.00    +0.031 HD
ATOM     25  H   UNL     1      -1.070  12.400  18.727  0.00  0.00    +0.027 HD
ATOM     26  H   UNL     1       0.424  13.268  19.051  0.00  0.00    +0.027 HD
ATOM     27  H   UNL     1       0.973  11.748  20.901  0.00  0.00    +0.028 HD
ATOM     28  H   UNL     1      -0.670  12.347  21.123  0.00  0.00    +0.028 HD
ATOM     29  H   UNL     1      -0.531   9.886  21.527  0.00  0.00    +0.046 HD
ATOM     30  H   UNL     1      -1.608  10.249  20.180  0.00  0.00    +0.046 HD
ATOM     31  H   UNL     1      -0.882   9.857  17.879  0.00  0.00    +0.047 HD
ATOM     32  H   UNL     1       0.722   9.240  17.528  0.00  0.00    +0.047 HD
BRANCH  16  33
ATOM     33  C   UNL     1       2.209  11.408  18.232  0.00  0.00    -0.061 C 
ATOM     34  H   UNL     1       2.643  12.118  17.520  0.00  0.00    +0.023 HD
ATOM     35  H   UNL     1       2.688  10.437  18.069  0.00  0.00    +0.023 HD
ATOM     36  H   UNL     1       2.471  11.747  19.239  0.00  0.00    +0.023 HD
ENDBRANCH  16  33
ENDBRANCH   1  21
BRANCH   4  37
ATOM     37  C   UNL     1       5.410   5.697  17.631  0.00  0.00    +0.033 A 
ATOM     38  C   UNL     1       6.496   5.201  18.364  0.00  0.00    -0.022 A 
ATOM     39  C   UNL     1       7.519   4.524  17.717  0.00  0.00    +0.030 A 
ATOM     40  N   UNL     1       7.539   4.293  16.393  0.00  0.00    -0.250 NA
ATOM     41  C   UNL     1       6.480   4.754  15.689  0.00  0.00    +0.127 A 
ATOM     42  C   UNL     1       5.411   5.447  16.258  0.00  0.00    -0.010 A 
ATOM     43  H   UNL     1       6.540   5.317  19.443  0.00  0.00    +0.065 HD
ATOM     44  H   UNL     1       8.368   4.134  18.271  0.00  0.00    +0.083 HD
ATOM     45  H   UNL     1       4.621   5.812  15.614  0.00  0.00    +0.066 HD
BRANCH  41  46
ATOM     46  C   UNL     1       6.496   4.479  14.217  0.00  0.00    +0.260 C 
ATOM     47  N   UNL     1       5.690   3.456  13.773  0.00  0.00    -0.324 N 
ATOM     48  O   UNL     1       7.196   5.098  13.427  0.00  0.00    -0.269 OA
ATOM     49  H   UNL     1       5.858   3.181  12.812  0.00  0.00    +0.145 HD
ATOM     50  H   UNL     1       5.399   2.725  14.409  0.00  0.00    +0.145 HD
ENDBRANCH  41  46
ENDBRANCH   4  37
TORSDOF 4
ENDMDL
