MODEL 1
REMARK VINA RESULT:    -7.506      0.000      0.000
REMARK INTER + INTRA:          -9.589
REMARK INTER:                  -9.070
REMARK INTRA:                  -0.519
REMARK UNBOUND:                -0.108
REMARK  Name = 
REMARK  5 active torsions:
REMARK  status: ('A' for Active; 'I' for Inactive)
REMARK    1  A    between atoms: C_1  and  C_2
REMARK    2  A    between atoms: C_8  and  C_9
REMARK    3  A    between atoms: C_15  and  C_16
REMARK    4  A    between atoms: C_16  and  N_17
REMARK    5  A    between atoms: C_19  and  C_20
REMARK                            x       y       z     vdW  Elec       q    Type
REMARK                         _______ _______ _______ _____ _____    ______ ____
ROOT
ATOM      1  C   UNL     1      -0.640  11.209  21.319  0.00  0.00    +0.248 C 
ATOM      2  O   UNL     1       0.122  10.379  21.804  0.00  0.00    -0.270 OA
ATOM      3  N   UNL     1      -0.994  11.219  19.983  0.00  0.00    -0.293 N 
ATOM      4  C   UNL     1      -2.081  11.980  19.376  0.00  0.00    +0.015 C 
ATOM      5  C   UNL     1      -1.965  11.694  17.889  0.00  0.00    -0.035 C 
ATOM      6  C   UNL     1      -1.422  10.271  17.847  0.00  0.00    -0.031 C 
ATOM      7  C   UNL     1      -0.512  10.169  19.079  0.00  0.00    +0.046 C 
ATOM      8  H   UNL     1      -3.025  11.600  19.784  0.00  0.00    +0.046 HD
ATOM      9  H   UNL     1      -2.002  13.047  19.593  0.00  0.00    +0.046 HD
ATOM     10  H   UNL     1      -1.254  12.386  17.427  0.00  0.00    +0.028 HD
ATOM     11  H   UNL     1      -2.921  11.797  17.368  0.00  0.00    +0.028 HD
ATOM     12  H   UNL     1      -0.921  10.033  16.904  0.00  0.00    +0.028 HD
ATOM     13  H   UNL     1      -2.259   9.570  17.958  0.00  0.00    +0.028 HD
ATOM     14  H   UNL     1      -0.696   9.200  19.563  0.00  0.00    +0.052 HD
ENDROOT
BRANCH   1  21
ATOM     15  C   UNL     1      -3.836  13.143  24.497  0.00  0.00    +0.042 A 
ATOM     16  N   UNL     1      -3.719  14.382  25.082  0.00  0.00    -0.279 N 
ATOM     17  N   UNL     1      -2.630  15.081  24.709  0.00  0.00    -0.154 NA
ATOM     18  C   UNL     1      -2.005  14.270  23.858  0.00  0.00    +0.181 A 
ATOM     19  N   UNL     1      -0.837  14.506  23.204  0.00  0.00    -0.234 NA
ATOM     20  C   UNL     1      -0.484  13.448  22.406  0.00  0.00    +0.042 A 
ATOM     21  C   UNL     1      -1.200  12.241  22.207  0.00  0.00    +0.056 A 
ATOM     22  C   UNL     1      -2.397  11.964  22.885  0.00  0.00    -0.036 A 
ATOM     23  C   UNL     1      -2.729  13.045  23.689  0.00  0.00    +0.042 A 
ATOM     24  H   UNL     1      -4.351  14.814  25.749  0.00  0.00    +0.189 HD
ATOM     25  H   UNL     1       0.463  13.600  21.889  0.00  0.00    +0.084 HD
ATOM     26  H   UNL     1      -2.950  11.041  22.783  0.00  0.00    +0.063 HD
BRANCH  15  27
ATOM     27  C   UNL     1      -4.966  12.232  24.784  0.00  0.00    -0.022 C 
ATOM     28  H   UNL     1      -5.374  11.793  23.867  0.00  0.00    +0.029 HD
ATOM     29  H   UNL     1      -4.641  11.413  25.434  0.00  0.00    +0.029 HD
ATOM     30  H   UNL     1      -5.773  12.772  25.288  0.00  0.00    +0.029 HD
ENDBRANCH  15  27
ENDBRANCH   1  21
BRANCH   7  31
ATOM     31  C   UNL     1       0.995  10.236  18.775  0.00  0.00    +0.062 C 
ATOM     32  H   UNL     1       1.499  10.892  19.493  0.00  0.00    +0.053 HD
ATOM     33  H   UNL     1       1.166  10.664  17.781  0.00  0.00    +0.053 HD
BRANCH  31  34
ATOM     34  N   UNL     1       1.672   8.961  18.798  0.00  0.00    -0.250 N 
ATOM     35  C   UNL     1       2.405   8.383  17.806  0.00  0.00    +0.049 A 
ATOM     36  C   UNL     1       2.817   7.196  18.360  0.00  0.00    +0.086 A 
ATOM     37  N   UNL     1       2.353   7.100  19.642  0.00  0.00    -0.134 NA
ATOM     38  N   UNL     1       1.665   8.203  19.910  0.00  0.00    -0.065 NA
ATOM     39  H   UNL     1       2.557   8.844  16.842  0.00  0.00    +0.085 HD
BRANCH  36  40
ATOM     40  C   UNL     1       3.678   6.098  17.690  0.00  0.00    +0.005 C 
ATOM     41  C   UNL     1       5.155   6.311  17.481  0.00  0.00    -0.044 C 
ATOM     42  C   UNL     1       4.678   5.314  18.499  0.00  0.00    -0.044 C 
ATOM     43  H   UNL     1       3.150   5.556  16.911  0.00  0.00    +0.036 HD
ATOM     44  H   UNL     1       5.614   7.224  17.840  0.00  0.00    +0.027 HD
ATOM     45  H   UNL     1       5.592   5.933  16.564  0.00  0.00    +0.027 HD
ATOM     46  H   UNL     1       4.792   4.261  18.271  0.00  0.00    +0.027 HD
ATOM     47  H   UNL     1       4.810   5.552  19.548  0.00  0.00    +0.027 HD
ENDBRANCH  36  40
ENDBRANCH  31  34
ENDBRANCH   7  31
TORSDOF 5
ENDMDL
MODEL 2
REMARK VINA RESULT:    -7.417      1.149      1.399
REMARK INTER + INTRA:          -9.477
REMARK INTER:                  -8.895
REMARK INTRA:                  -0.582
REMARK UNBOUND:                -0.108
REMARK  Name = 
REMARK  5 active torsions:
REMARK  status: ('A' for Active; 'I' for Inactive)
REMARK    1  A    between atoms: C_1  and  C_2
REMARK    2  A    between atoms: C_8  and  C_9
REMARK    3  A    between atoms: C_15  and  C_16
REMARK    4  A    between atoms: C_16  and  N_17
REMARK    5  A    between atoms: C_19  and  C_20
REMARK                            x       y       z     vdW  Elec       q    Type
REMARK                         _______ _______ _______ _____ _____    ______ ____
ROOT
ATOM      1  C   UNL     1      -0.648  11.217  21.384  0.00  0.00    +0.248 C 
ATOM      2  O   UNL     1       0.041  10.342  21.902  0.00  0.00    -0.270 OA
ATOM      3  N   UNL     1      -0.931  11.253  20.032  0.00  0.00    -0.293 N 
ATOM      4  C   UNL     1      -1.941  12.077  19.377  0.00  0.00    +0.015 C 
ATOM      5  C   UNL     1      -1.764  11.793  17.895  0.00  0.00    -0.035 C 
ATOM      6  C   UNL     1      -1.299  10.342  17.869  0.00  0.00    -0.031 C 
ATOM      7  C   UNL     1      -0.461  10.182  19.145  0.00  0.00    +0.046 C 
ATOM      8  H   UNL     1      -2.924  11.748  19.732  0.00  0.00    +0.046 HD
ATOM      9  H   UNL     1      -1.815  13.137  19.607  0.00  0.00    +0.046 HD
ATOM     10  H   UNL     1      -0.993  12.447  17.476  0.00  0.00    +0.028 HD
ATOM     11  H   UNL     1      -2.685  11.952  17.326  0.00  0.00    +0.028 HD
ATOM     12  H   UNL     1      -0.764  10.081  16.951  0.00  0.00    +0.028 HD
ATOM     13  H   UNL     1      -2.179   9.688  17.931  0.00  0.00    +0.028 HD
ATOM     14  H   UNL     1      -0.724   9.223  19.612  0.00  0.00    +0.052 HD
ENDROOT
BRANCH   1  21
ATOM     15  C   UNL     1      -3.808  13.247  24.537  0.00  0.00    +0.042 A 
ATOM     16  N   UNL     1      -3.680  14.499  25.092  0.00  0.00    -0.279 N 
ATOM     17  N   UNL     1      -2.589  15.182  24.694  0.00  0.00    -0.154 NA
ATOM     18  C   UNL     1      -1.975  14.346  23.858  0.00  0.00    +0.181 A 
ATOM     19  N   UNL     1      -0.810  14.559  23.190  0.00  0.00    -0.234 NA
ATOM     20  C   UNL     1      -0.470  13.480  22.416  0.00  0.00    +0.042 A 
ATOM     21  C   UNL     1      -1.195  12.273  22.251  0.00  0.00    +0.056 A 
ATOM     22  C   UNL     1      -2.388  12.020  22.944  0.00  0.00    -0.036 A 
ATOM     23  C   UNL     1      -2.708  13.122  23.724  0.00  0.00    +0.042 A 
ATOM     24  H   UNL     1      -4.304  14.951  25.752  0.00  0.00    +0.189 HD
ATOM     25  H   UNL     1       0.475  13.613  21.888  0.00  0.00    +0.084 HD
ATOM     26  H   UNL     1      -2.948  11.099  22.868  0.00  0.00    +0.063 HD
BRANCH  15  27
ATOM     27  C   UNL     1      -4.942  12.350  24.854  0.00  0.00    -0.022 C 
ATOM     28  H   UNL     1      -4.791  11.347  24.441  0.00  0.00    +0.029 HD
ATOM     29  H   UNL     1      -5.062  12.254  25.938  0.00  0.00    +0.029 HD
ATOM     30  H   UNL     1      -5.872  12.750  24.439  0.00  0.00    +0.029 HD
ENDBRANCH  15  27
ENDBRANCH   1  21
BRANCH   7  31
ATOM     31  C   UNL     1       1.060  10.168  18.920  0.00  0.00    +0.062 C 
ATOM     32  H   UNL     1       1.564  10.774  19.681  0.00  0.00    +0.053 HD
ATOM     33  H   UNL     1       1.308  10.610  17.948  0.00  0.00    +0.053 HD
BRANCH  31  34
ATOM     34  N   UNL     1       1.660   8.854  18.940  0.00  0.00    -0.250 N 
ATOM     35  C   UNL     1       1.701   7.968  19.975  0.00  0.00    +0.049 A 
ATOM     36  C   UNL     1       2.377   6.893  19.451  0.00  0.00    +0.086 A 
ATOM     37  N   UNL     1       2.699   7.144  18.146  0.00  0.00    -0.134 NA
ATOM     38  N   UNL     1       2.234   8.347  17.834  0.00  0.00    -0.065 NA
ATOM     39  H   UNL     1       1.270   8.173  20.943  0.00  0.00    +0.085 HD
BRANCH  36  40
ATOM     40  C   UNL     1       2.744   5.574  20.172  0.00  0.00    +0.005 C 
ATOM     41  C   UNL     1       1.691   4.528  20.427  0.00  0.00    -0.044 C 
ATOM     42  C   UNL     1       2.771   4.273  19.414  0.00  0.00    -0.044 C 
ATOM     43  H   UNL     1       3.498   5.704  20.943  0.00  0.00    +0.036 HD
ATOM     44  H   UNL     1       0.683   4.692  20.065  0.00  0.00    +0.027 HD
ATOM     45  H   UNL     1       1.736   3.989  21.367  0.00  0.00    +0.027 HD
ATOM     46  H   UNL     1       3.547   3.561  19.668  0.00  0.00    +0.027 HD
ATOM     47  H   UNL     1       2.497   4.268  18.366  0.00  0.00    +0.027 HD
ENDBRANCH  36  40
ENDBRANCH  31  34
ENDBRANCH   7  31
TORSDOF 5
ENDMDL
MODEL 3
REMARK VINA RESULT:    -7.417      4.147      7.302
REMARK INTER + INTRA:          -9.476
REMARK INTER:                  -8.961
REMARK INTRA:                  -0.516
REMARK UNBOUND:                -0.108
REMARK  Name = 
REMARK  5 active torsions:
REMARK  status: ('A' for Active; 'I' for Inactive)
REMARK    1  A    between atoms: C_1  and  C_2
REMARK    2  A    between atoms: C_8  and  C_9
REMARK    3  A    between atoms: C_15  and  C_16
REMARK    4  A    between atoms: C_16  and  N_17
REMARK    5  A    between atoms: C_19  and  C_20
REMARK                            x       y       z     vdW  Elec       q    Type
REMARK                         _______ _______ _______ _____ _____    ______ ____
ROOT
ATOM      1  C   UNL     1       3.642   5.911  19.165  0.00  0.00    +0.248 C 
ATOM      2  O   UNL     1       4.632   5.981  19.887  0.00  0.00    -0.270 OA
ATOM      3  N   UNL     1       3.324   4.787  18.425  0.00  0.00    -0.293 N 
ATOM      4  C   UNL     1       2.054   4.511  17.763  0.00  0.00    +0.015 C 
ATOM      5  C   UNL     1       2.282   3.200  17.030  0.00  0.00    -0.035 C 
ATOM      6  C   UNL     1       3.272   2.465  17.924  0.00  0.00    -0.031 C 
ATOM      7  C   UNL     1       4.146   3.575  18.526  0.00  0.00    +0.046 C 
ATOM      8  H   UNL     1       1.287   4.407  18.540  0.00  0.00    +0.046 HD
ATOM      9  H   UNL     1       1.766   5.314  17.083  0.00  0.00    +0.046 HD
ATOM     10  H   UNL     1       2.724   3.391  16.047  0.00  0.00    +0.028 HD
ATOM     11  H   UNL     1       1.355   2.641  16.877  0.00  0.00    +0.028 HD
ATOM     12  H   UNL     1       3.838   1.695  17.391  0.00  0.00    +0.028 HD
ATOM     13  H   UNL     1       2.718   1.966  18.729  0.00  0.00    +0.028 HD
ATOM     14  H   UNL     1       4.291   3.358  19.593  0.00  0.00    +0.052 HD
ENDROOT
BRANCH   1  21
ATOM     15  C   UNL     1       0.360   9.171  20.794  0.00  0.00    +0.042 A 
ATOM     16  N   UNL     1      -0.101  10.253  20.083  0.00  0.00    -0.279 N 
ATOM     17  N   UNL     1       0.412  10.374  18.843  0.00  0.00    -0.154 NA
ATOM     18  C   UNL     1       1.247   9.341  18.741  0.00  0.00    +0.181 A 
ATOM     19  N   UNL     1       2.029   9.017  17.678  0.00  0.00    -0.234 NA
ATOM     20  C   UNL     1       2.766   7.887  17.920  0.00  0.00    +0.042 A 
ATOM     21  C   UNL     1       2.754   7.082  19.088  0.00  0.00    +0.056 A 
ATOM     22  C   UNL     1       1.972   7.405  20.207  0.00  0.00    -0.036 A 
ATOM     23  C   UNL     1       1.241   8.554  19.940  0.00  0.00    +0.042 A 
ATOM     24  H   UNL     1      -0.771  10.954  20.385  0.00  0.00    +0.189 HD
ATOM     25  H   UNL     1       3.423   7.618  17.093  0.00  0.00    +0.084 HD
ATOM     26  H   UNL     1       1.964   6.835  21.124  0.00  0.00    +0.063 HD
BRANCH  15  27
ATOM     27  C   UNL     1      -0.091   8.874  22.172  0.00  0.00    -0.022 C 
ATOM     28  H   UNL     1       0.705   8.416  22.768  0.00  0.00    +0.029 HD
ATOM     29  H   UNL     1      -0.405   9.794  22.677  0.00  0.00    +0.029 HD
ATOM     30  H   UNL     1      -0.941   8.184  22.156  0.00  0.00    +0.029 HD
ENDBRANCH  15  27
ENDBRANCH   1  21
BRANCH   7  31
ATOM     31  C   UNL     1       5.546   3.704  17.902  0.00  0.00    +0.062 C 
ATOM     32  H   UNL     1       6.067   2.741  17.933  0.00  0.00    +0.053 HD
ATOM     33  H   UNL     1       6.156   4.412  18.473  0.00  0.00    +0.053 HD
BRANCH  31  34
ATOM     34  N   UNL     1       5.556   4.161  16.533  0.00  0.00    -0.250 N 
ATOM     35  C   UNL     1       5.623   3.409  15.398  0.00  0.00    +0.049 A 
ATOM     36  C   UNL     1       5.593   4.343  14.391  0.00  0.00    +0.086 A 
ATOM     37  N   UNL     1       5.490   5.595  14.928  0.00  0.00    -0.134 NA
ATOM     38  N   UNL     1       5.447   5.472  16.248  0.00  0.00    -0.065 NA
ATOM     39  H   UNL     1       5.688   2.332  15.410  0.00  0.00    +0.085 HD
BRANCH  36  40
ATOM     40  C   UNL     1       5.657   4.080  12.867  0.00  0.00    +0.005 C 
ATOM     41  C   UNL     1       6.988   3.956  12.172  0.00  0.00    -0.044 C 
ATOM     42  C   UNL     1       6.115   2.744  12.343  0.00  0.00    -0.044 C 
ATOM     43  H   UNL     1       4.863   4.574  12.315  0.00  0.00    +0.036 HD
ATOM     44  H   UNL     1       7.898   4.013  12.756  0.00  0.00    +0.027 HD
ATOM     45  H   UNL     1       7.078   4.383  11.179  0.00  0.00    +0.027 HD
ATOM     46  H   UNL     1       5.614   2.352  11.466  0.00  0.00    +0.027 HD
ATOM     47  H   UNL     1       6.431   1.983  13.045  0.00  0.00    +0.027 HD
ENDBRANCH  36  40
ENDBRANCH  31  34
ENDBRANCH   7  31
TORSDOF 5
ENDMDL
MODEL 4
REMARK VINA RESULT:    -7.335      3.660      6.559
REMARK INTER + INTRA:          -9.373
REMARK INTER:                  -9.478
REMARK INTRA:                   0.105
REMARK UNBOUND:                -0.108
REMARK  Name = 
REMARK  5 active torsions:
REMARK  status: ('A' for Active; 'I' for Inactive)
REMARK    1  A    between atoms: C_1  and  C_2
REMARK    2  A    between atoms: C_8  and  C_9
REMARK    3  A    between atoms: C_15  and  C_16
REMARK    4  A    between atoms: C_16  and  N_17
REMARK    5  A    between atoms: C_19  and  C_20
REMARK                            x       y       z     vdW  Elec       q    Type
REMARK                         _______ _______ _______ _____ _____    ______ ____
ROOT
ATOM      1  C   UNL     1       2.308   5.465  20.242  0.00  0.00    +0.248 C 
ATOM      2  O   UNL     1       2.738   5.136  21.343  0.00  0.00    -0.270 OA
ATOM      3  N   UNL     1       2.223   4.593  19.173  0.00  0.00    -0.293 N 
ATOM      4  C   UNL     1       1.489   4.807  17.930  0.00  0.00    +0.015 C 
ATOM      5  C   UNL     1       1.807   3.588  17.083  0.00  0.00    -0.035 C 
ATOM      6  C   UNL     1       1.982   2.480  18.113  0.00  0.00    -0.031 C 
ATOM      7  C   UNL     1       2.593   3.182  19.334  0.00  0.00    +0.046 C 
ATOM      8  H   UNL     1       0.422   4.857  18.175  0.00  0.00    +0.046 HD
ATOM      9  H   UNL     1       1.785   5.736  17.438  0.00  0.00    +0.046 HD
ATOM     10  H   UNL     1       2.739   3.746  16.531  0.00  0.00    +0.028 HD
ATOM     11  H   UNL     1       1.021   3.368  16.355  0.00  0.00    +0.028 HD
ATOM     12  H   UNL     1       2.577   1.640  17.740  0.00  0.00    +0.028 HD
ATOM     13  H   UNL     1       0.993   2.087  18.381  0.00  0.00    +0.028 HD
ATOM     14  H   UNL     1       2.089   2.805  20.235  0.00  0.00    +0.052 HD
ENDROOT
BRANCH   1  21
ATOM     15  C   UNL     1       0.177   9.700  21.498  0.00  0.00    +0.042 A 
ATOM     16  N   UNL     1       0.147  10.833  20.719  0.00  0.00    -0.279 N 
ATOM     17  N   UNL     1       0.755  10.711  19.523  0.00  0.00    -0.154 NA
ATOM     18  C   UNL     1       1.209   9.459  19.521  0.00  0.00    +0.181 A 
ATOM     19  N   UNL     1       1.912   8.840  18.536  0.00  0.00    -0.234 NA
ATOM     20  C   UNL     1       2.218   7.546  18.872  0.00  0.00    +0.042 A 
ATOM     21  C   UNL     1       1.862   6.855  20.057  0.00  0.00    +0.056 A 
ATOM     22  C   UNL     1       1.155   7.476  21.098  0.00  0.00    -0.036 A 
ATOM     23  C   UNL     1       0.863   8.784  20.737  0.00  0.00    +0.042 A 
ATOM     24  H   UNL     1      -0.274  11.729  20.944  0.00  0.00    +0.189 HD
ATOM     25  H   UNL     1       2.805   7.034  18.110  0.00  0.00    +0.084 HD
ATOM     26  H   UNL     1       0.898   6.991  22.028  0.00  0.00    +0.063 HD
BRANCH  15  27
ATOM     27  C   UNL     1      -0.440   9.643  22.841  0.00  0.00    -0.022 C 
ATOM     28  H   UNL     1      -0.937  10.584  23.099  0.00  0.00    +0.029 HD
ATOM     29  H   UNL     1      -1.187   8.843  22.885  0.00  0.00    +0.029 HD
ATOM     30  H   UNL     1       0.321   9.444  23.603  0.00  0.00    +0.029 HD
ENDBRANCH  15  27
ENDBRANCH   1  21
BRANCH   7  31
ATOM     31  C   UNL     1       4.099   2.940  19.531  0.00  0.00    +0.062 C 
ATOM     32  H   UNL     1       4.333   1.876  19.413  0.00  0.00    +0.053 HD
ATOM     33  H   UNL     1       4.403   3.219  20.546  0.00  0.00    +0.053 HD
BRANCH  31  34
ATOM     34  N   UNL     1       4.951   3.677  18.628  0.00  0.00    -0.250 N 
ATOM     35  C   UNL     1       5.863   4.642  18.936  0.00  0.00    +0.049 A 
ATOM     36  C   UNL     1       6.385   4.993  17.715  0.00  0.00    +0.086 A 
ATOM     37  N   UNL     1       5.806   4.238  16.733  0.00  0.00    -0.134 NA
ATOM     38  N   UNL     1       4.938   3.415  17.308  0.00  0.00    -0.065 NA
ATOM     39  H   UNL     1       6.046   4.977  19.946  0.00  0.00    +0.085 HD
BRANCH  36  40
ATOM     40  C   UNL     1       7.465   6.064  17.430  0.00  0.00    +0.005 C 
ATOM     41  C   UNL     1       7.106   7.527  17.436  0.00  0.00    -0.044 C 
ATOM     42  C   UNL     1       7.960   6.960  18.535  0.00  0.00    -0.044 C 
ATOM     43  H   UNL     1       8.199   5.745  16.696  0.00  0.00    +0.036 HD
ATOM     44  H   UNL     1       6.093   7.822  17.680  0.00  0.00    +0.027 HD
ATOM     45  H   UNL     1       7.582   8.164  16.698  0.00  0.00    +0.027 HD
ATOM     46  H   UNL     1       9.014   7.213  18.541  0.00  0.00    +0.027 HD
ATOM     47  H   UNL     1       7.525   6.868  19.523  0.00  0.00    +0.027 HD
ENDBRANCH  36  40
ENDBRANCH  31  34
ENDBRANCH   7  31
TORSDOF 5
ENDMDL
MODEL 5
REMARK VINA RESULT:    -7.281      3.619      6.451
REMARK INTER + INTRA:          -9.305
REMARK INTER:                  -9.709
REMARK INTRA:                   0.404
REMARK UNBOUND:                -0.108
REMARK  Name = 
REMARK  5 active torsions:
REMARK  status: ('A' for Active; 'I' for Inactive)
REMARK    1  A    between atoms: C_1  and  C_2
REMARK    2  A    between atoms: C_8  and  C_9
REMARK    3  A    between atoms: C_15  and  C_16
REMARK    4  A    between atoms: C_16  and  N_17
REMARK    5  A    between atoms: C_19  and  C_20
REMARK                            x       y       z     vdW  Elec       q    Type
REMARK                         _______ _______ _______ _____ _____    ______ ____
ROOT
ATOM      1  C   UNL     1       2.821   6.518  19.178  0.00  0.00    +0.248 C 
ATOM      2  O   UNL     1       3.859   6.633  18.533  0.00  0.00    -0.270 OA
ATOM      3  N   UNL     1       2.407   5.323  19.735  0.00  0.00    -0.293 N 
ATOM      4  C   UNL     1       1.353   5.145  20.727  0.00  0.00    +0.015 C 
ATOM      5  C   UNL     1       1.256   3.641  20.917  0.00  0.00    -0.035 C 
ATOM      6  C   UNL     1       2.685   3.166  20.691  0.00  0.00    -0.031 C 
ATOM      7  C   UNL     1       3.248   4.125  19.632  0.00  0.00    +0.046 C 
ATOM      8  H   UNL     1       1.672   5.645  21.649  0.00  0.00    +0.046 HD
ATOM      9  H   UNL     1       0.406   5.577  20.397  0.00  0.00    +0.046 HD
ATOM     10  H   UNL     1       0.587   3.210  20.164  0.00  0.00    +0.028 HD
ATOM     11  H   UNL     1       0.870   3.368  21.903  0.00  0.00    +0.028 HD
ATOM     12  H   UNL     1       2.745   2.110  20.410  0.00  0.00    +0.028 HD
ATOM     13  H   UNL     1       3.250   3.288  21.625  0.00  0.00    +0.028 HD
ATOM     14  H   UNL     1       4.267   4.406  19.930  0.00  0.00    +0.052 HD
ENDROOT
BRANCH   1  21
ATOM     15  C   UNL     1       0.179   9.806  21.680  0.00  0.00    +0.042 A 
ATOM     16  N   UNL     1      -0.415  10.921  21.140  0.00  0.00    -0.279 N 
ATOM     17  N   UNL     1      -0.235  11.068  19.813  0.00  0.00    -0.154 NA
ATOM     18  C   UNL     1       0.511  10.019  19.472  0.00  0.00    +0.181 A 
ATOM     19  N   UNL     1       0.981   9.709  18.235  0.00  0.00    -0.234 NA
ATOM     20  C   UNL     1       1.719   8.554  18.251  0.00  0.00    +0.042 A 
ATOM     21  C   UNL     1       1.982   7.713  19.362  0.00  0.00    +0.056 A 
ATOM     22  C   UNL     1       1.527   8.020  20.653  0.00  0.00    -0.036 A 
ATOM     23  C   UNL     1       0.789   9.195  20.612  0.00  0.00    +0.042 A 
ATOM     24  H   UNL     1      -0.961  11.629  21.622  0.00  0.00    +0.189 HD
ATOM     25  H   UNL     1       2.130   8.296  17.275  0.00  0.00    +0.084 HD
ATOM     26  H   UNL     1       1.738   7.421  21.527  0.00  0.00    +0.063 HD
BRANCH  15  27
ATOM     27  C   UNL     1       0.089   9.477  23.120  0.00  0.00    -0.022 C 
ATOM     28  H   UNL     1      -0.951   9.386  23.451  0.00  0.00    +0.029 HD
ATOM     29  H   UNL     1       0.593   8.527  23.327  0.00  0.00    +0.029 HD
ATOM     30  H   UNL     1       0.567  10.257  23.721  0.00  0.00    +0.029 HD
ENDBRANCH  15  27
ENDBRANCH   1  21
BRANCH   7  31
ATOM     31  C   UNL     1       3.342   3.536  18.214  0.00  0.00    +0.062 C 
ATOM     32  H   UNL     1       2.515   3.900  17.595  0.00  0.00    +0.053 HD
ATOM     33  H   UNL     1       3.258   2.444  18.246  0.00  0.00    +0.053 HD
BRANCH  31  34
ATOM     34  N   UNL     1       4.572   3.835  17.519  0.00  0.00    -0.250 N 
ATOM     35  C   UNL     1       4.774   3.921  16.174  0.00  0.00    +0.049 A 
ATOM     36  C   UNL     1       6.108   4.231  16.069  0.00  0.00    +0.086 A 
ATOM     37  N   UNL     1       6.655   4.341  17.316  0.00  0.00    -0.134 NA
ATOM     38  N   UNL     1       5.695   4.115  18.205  0.00  0.00    -0.065 NA
ATOM     39  H   UNL     1       3.991   3.759  15.449  0.00  0.00    +0.085 HD
BRANCH  36  40
ATOM     40  C   UNL     1       6.922   4.442  14.769  0.00  0.00    +0.005 C 
ATOM     41  C   UNL     1       6.496   3.773  13.488  0.00  0.00    -0.044 C 
ATOM     42  C   UNL     1       6.355   5.261  13.640  0.00  0.00    -0.044 C 
ATOM     43  H   UNL     1       7.990   4.525  14.943  0.00  0.00    +0.036 HD
ATOM     44  H   UNL     1       5.593   3.175  13.478  0.00  0.00    +0.027 HD
ATOM     45  H   UNL     1       7.276   3.399  12.834  0.00  0.00    +0.027 HD
ATOM     46  H   UNL     1       7.040   5.895  13.087  0.00  0.00    +0.027 HD
ATOM     47  H   UNL     1       5.358   5.673  13.735  0.00  0.00    +0.027 HD
ENDBRANCH  36  40
ENDBRANCH  31  34
ENDBRANCH   7  31
TORSDOF 5
ENDMDL
MODEL 6
REMARK VINA RESULT:    -7.158      3.731      5.816
REMARK INTER + INTRA:          -9.149
REMARK INTER:                  -8.758
REMARK INTRA:                  -0.391
REMARK UNBOUND:                -0.108
REMARK  Name = 
REMARK  5 active torsions:
REMARK  status: ('A' for Active; 'I' for Inactive)
REMARK    1  A    between atoms: C_1  and  C_2
REMARK    2  A    between atoms: C_8  and  C_9
REMARK    3  A    between atoms: C_15  and  C_16
REMARK    4  A    between atoms: C_16  and  N_17
REMARK    5  A    between atoms: C_19  and  C_20
REMARK                            x       y       z     vdW  Elec       q    Type
REMARK                         _______ _______ _______ _____ _____    ______ ____
ROOT
ATOM      1  C   UNL     1       2.096   8.409  18.324  0.00  0.00    +0.248 C 
ATOM      2  O   UNL     1       2.906   8.529  17.410  0.00  0.00    -0.270 OA
ATOM      3  N   UNL     1       2.078   7.324  19.180  0.00  0.00    -0.293 N 
ATOM      4  C   UNL     1       1.347   7.219  20.437  0.00  0.00    +0.015 C 
ATOM      5  C   UNL     1       1.607   5.801  20.914  0.00  0.00    -0.035 C 
ATOM      6  C   UNL     1       3.009   5.508  20.396  0.00  0.00    -0.031 C 
ATOM      7  C   UNL     1       3.098   6.274  19.069  0.00  0.00    +0.046 C 
ATOM      8  H   UNL     1       1.766   7.958  21.131  0.00  0.00    +0.046 HD
ATOM      9  H   UNL     1       0.281   7.418  20.307  0.00  0.00    +0.046 HD
ATOM     10  H   UNL     1       0.883   5.115  20.464  0.00  0.00    +0.028 HD
ATOM     11  H   UNL     1       1.529   5.705  22.001  0.00  0.00    +0.028 HD
ATOM     12  H   UNL     1       3.215   4.437  20.305  0.00  0.00    +0.028 HD
ATOM     13  H   UNL     1       3.741   5.923  21.101  0.00  0.00    +0.028 HD
ATOM     14  H   UNL     1       4.079   6.765  19.020  0.00  0.00    +0.052 HD
ENDROOT
BRANCH   1  21
ATOM     15  C   UNL     1      -2.168  10.736  17.649  0.00  0.00    +0.042 A 
ATOM     16  N   UNL     1      -2.551  11.890  18.290  0.00  0.00    -0.279 N 
ATOM     17  N   UNL     1      -1.641  12.384  19.152  0.00  0.00    -0.154 NA
ATOM     18  C   UNL     1      -0.631  11.519  19.081  0.00  0.00    +0.181 A 
ATOM     19  N   UNL     1       0.538  11.560  19.774  0.00  0.00    -0.234 NA
ATOM     20  C   UNL     1       1.351  10.504  19.453  0.00  0.00    +0.042 A 
ATOM     21  C   UNL     1       1.098   9.475  18.511  0.00  0.00    +0.056 A 
ATOM     22  C   UNL     1      -0.108   9.397  17.799  0.00  0.00    -0.036 A 
ATOM     23  C   UNL     1      -0.915  10.472  18.145  0.00  0.00    +0.042 A 
ATOM     24  H   UNL     1      -3.424  12.397  18.187  0.00  0.00    +0.189 HD
ATOM     25  H   UNL     1       2.286  10.498  20.014  0.00  0.00    +0.084 HD
ATOM     26  H   UNL     1      -0.348   8.609  17.100  0.00  0.00    +0.063 HD
BRANCH  15  27
ATOM     27  C   UNL     1      -3.035  10.049  16.666  0.00  0.00    -0.022 C 
ATOM     28  H   UNL     1      -3.536  10.760  16.001  0.00  0.00    +0.029 HD
ATOM     29  H   UNL     1      -2.444   9.366  16.047  0.00  0.00    +0.029 HD
ATOM     30  H   UNL     1      -3.808   9.467  17.179  0.00  0.00    +0.029 HD
ENDBRANCH  15  27
ENDBRANCH   1  21
BRANCH   7  31
ATOM     31  C   UNL     1       2.973   5.400  17.809  0.00  0.00    +0.062 C 
ATOM     32  H   UNL     1       2.180   5.783  17.156  0.00  0.00    +0.053 HD
ATOM     33  H   UNL     1       2.691   4.376  18.080  0.00  0.00    +0.053 HD
BRANCH  31  34
ATOM     34  N   UNL     1       4.179   5.302  17.021  0.00  0.00    -0.250 N 
ATOM     35  C   UNL     1       4.507   4.347  16.107  0.00  0.00    +0.049 A 
ATOM     36  C   UNL     1       5.745   4.740  15.661  0.00  0.00    +0.086 A 
ATOM     37  N   UNL     1       6.112   5.899  16.286  0.00  0.00    -0.134 NA
ATOM     38  N   UNL     1       5.131   6.249  17.108  0.00  0.00    -0.065 NA
ATOM     39  H   UNL     1       3.863   3.514  15.869  0.00  0.00    +0.085 HD
BRANCH  36  40
ATOM     40  C   UNL     1       6.635   4.027  14.614  0.00  0.00    +0.005 C 
ATOM     41  C   UNL     1       6.106   3.748  13.232  0.00  0.00    -0.044 C 
ATOM     42  C   UNL     1       7.174   4.786  13.430  0.00  0.00    -0.044 C 
ATOM     43  H   UNL     1       7.286   3.274  15.048  0.00  0.00    +0.036 HD
ATOM     44  H   UNL     1       5.112   4.085  12.966  0.00  0.00    +0.027 HD
ATOM     45  H   UNL     1       6.388   2.809  12.766  0.00  0.00    +0.027 HD
ATOM     46  H   UNL     1       8.179   4.550  13.099  0.00  0.00    +0.027 HD
ATOM     47  H   UNL     1       6.904   5.827  13.303  0.00  0.00    +0.027 HD
ENDBRANCH  36  40
ENDBRANCH  31  34
ENDBRANCH   7  31
TORSDOF 5
ENDMDL
MODEL 7
REMARK VINA RESULT:    -7.004      3.756      8.917
REMARK INTER + INTRA:          -8.955
REMARK INTER:                  -9.366
REMARK INTRA:                   0.411
REMARK UNBOUND:                -0.108
REMARK  Name = 
REMARK  5 active torsions:
REMARK  status: ('A' for Active; 'I' for Inactive)
REMARK    1  A    between atoms: C_1  and  C_2
REMARK    2  A    between atoms: C_8  and  C_9
REMARK    3  A    between atoms: C_15  and  C_16
REMARK    4  A    between atoms: C_16  and  N_17
REMARK    5  A    between atoms: C_19  and  C_20
REMARK                            x       y       z     vdW  Elec       q    Type
REMARK                         _______ _______ _______ _____ _____    ______ ____
ROOT
ATOM      1  C   UNL     1       1.622   7.268  20.471  0.00  0.00    +0.248 C 
ATOM      2  O   UNL     1       1.204   7.483  21.605  0.00  0.00    -0.270 OA
ATOM      3  N   UNL     1       1.661   8.236  19.484  0.00  0.00    -0.293 N 
ATOM      4  C   UNL     1       2.375   8.156  18.215  0.00  0.00    +0.015 C 
ATOM      5  C   UNL     1       2.008   9.437  17.488  0.00  0.00    -0.035 C 
ATOM      6  C   UNL     1       1.823  10.442  18.618  0.00  0.00    -0.031 C 
ATOM      7  C   UNL     1       1.256   9.615  19.780  0.00  0.00    +0.046 C 
ATOM      8  H   UNL     1       3.449   8.116  18.436  0.00  0.00    +0.046 HD
ATOM      9  H   UNL     1       2.096   7.268  17.645  0.00  0.00    +0.046 HD
ATOM     10  H   UNL     1       1.069   9.303  16.940  0.00  0.00    +0.028 HD
ATOM     11  H   UNL     1       2.773   9.745  16.770  0.00  0.00    +0.028 HD
ATOM     12  H   UNL     1       1.198  11.294  18.334  0.00  0.00    +0.028 HD
ATOM     13  H   UNL     1       2.806  10.838  18.903  0.00  0.00    +0.028 HD
ATOM     14  H   UNL     1       1.767   9.922  20.703  0.00  0.00    +0.052 HD
ENDROOT
BRANCH   1  21
ATOM     15  C   UNL     1       4.814   3.888  18.911  0.00  0.00    +0.042 A 
ATOM     16  N   UNL     1       4.598   2.530  18.921  0.00  0.00    -0.279 N 
ATOM     17  N   UNL     1       3.395   2.154  19.396  0.00  0.00    -0.154 NA
ATOM     18  C   UNL     1       2.805   3.304  19.717  0.00  0.00    +0.181 A 
ATOM     19  N   UNL     1       1.568   3.472  20.256  0.00  0.00    -0.234 NA
ATOM     20  C   UNL     1       1.283   4.797  20.460  0.00  0.00    +0.042 A 
ATOM     21  C   UNL     1       2.101   5.913  20.152  0.00  0.00    +0.056 A 
ATOM     22  C   UNL     1       3.389   5.768  19.616  0.00  0.00    -0.036 A 
ATOM     23  C   UNL     1       3.656   4.419  19.424  0.00  0.00    +0.042 A 
ATOM     24  H   UNL     1       5.233   1.799  18.617  0.00  0.00    +0.189 HD
ATOM     25  H   UNL     1       0.306   4.960  20.916  0.00  0.00    +0.084 HD
ATOM     26  H   UNL     1       4.052   6.593  19.401  0.00  0.00    +0.063 HD
BRANCH  15  27
ATOM     27  C   UNL     1       6.076   4.488  18.424  0.00  0.00    -0.022 C 
ATOM     28  H   UNL     1       6.138   5.554  18.668  0.00  0.00    +0.029 HD
ATOM     29  H   UNL     1       6.938   3.987  18.879  0.00  0.00    +0.029 HD
ATOM     30  H   UNL     1       6.154   4.386  17.337  0.00  0.00    +0.029 HD
ENDBRANCH  15  27
ENDBRANCH   1  21
BRANCH   7  31
ATOM     31  C   UNL     1      -0.252   9.794  20.024  0.00  0.00    +0.062 C 
ATOM     32  H   UNL     1      -0.426  10.311  20.974  0.00  0.00    +0.053 HD
ATOM     33  H   UNL     1      -0.746   8.818  20.101  0.00  0.00    +0.053 HD
BRANCH  31  34
ATOM     34  N   UNL     1      -0.947  10.529  18.994  0.00  0.00    -0.250 N 
ATOM     35  C   UNL     1      -1.563  10.035  17.883  0.00  0.00    +0.049 A 
ATOM     36  C   UNL     1      -2.057  11.157  17.264  0.00  0.00    +0.086 A 
ATOM     37  N   UNL     1      -1.753  12.264  18.006  0.00  0.00    -0.134 NA
ATOM     38  N   UNL     1      -1.086  11.864  19.081  0.00  0.00    -0.065 NA
ATOM     39  H   UNL     1      -1.589   8.983  17.643  0.00  0.00    +0.085 HD
BRANCH  36  40
ATOM     40  C   UNL     1      -2.847  11.223  15.935  0.00  0.00    +0.005 C 
ATOM     41  C   UNL     1      -2.822  10.061  14.976  0.00  0.00    -0.044 C 
ATOM     42  C   UNL     1      -4.078  10.379  15.738  0.00  0.00    -0.044 C 
ATOM     43  H   UNL     1      -2.862  12.216  15.495  0.00  0.00    +0.036 HD
ATOM     44  H   UNL     1      -2.278   9.165  15.245  0.00  0.00    +0.027 HD
ATOM     45  H   UNL     1      -2.799  10.285  13.915  0.00  0.00    +0.027 HD
ATOM     46  H   UNL     1      -4.906  10.818  15.192  0.00  0.00    +0.027 HD
ATOM     47  H   UNL     1      -4.384   9.701  16.524  0.00  0.00    +0.027 HD
ENDBRANCH  36  40
ENDBRANCH  31  34
ENDBRANCH   7  31
TORSDOF 5
ENDMDL
MODEL 8
REMARK VINA RESULT:    -6.852      2.357      9.247
REMARK INTER + INTRA:          -8.763
REMARK INTER:                  -8.718
REMARK INTRA:                  -0.045
REMARK UNBOUND:                -0.108
REMARK  Name = 
REMARK  5 active torsions:
REMARK  status: ('A' for Active; 'I' for Inactive)
REMARK    1  A    between atoms: C_1  and  C_2
REMARK    2  A    between atoms: C_8  and  C_9
REMARK    3  A    between atoms: C_15  and  C_16
REMARK    4  A    between atoms: C_16  and  N_17
REMARK    5  A    between atoms: C_19  and  C_20
REMARK                            x       y       z     vdW  Elec       q    Type
REMARK                         _______ _______ _______ _____ _____    ______ ____
ROOT
ATOM      1  C   UNL     1       1.659   7.306  20.445  0.00  0.00    +0.248 C 
ATOM      2  O   UNL     1       1.247   7.504  21.584  0.00  0.00    -0.270 OA
ATOM      3  N   UNL     1       1.617   8.264  19.450  0.00  0.00    -0.293 N 
ATOM      4  C   UNL     1       2.314   8.220  18.169  0.00  0.00    +0.015 C 
ATOM      5  C   UNL     1       1.849   9.466  17.437  0.00  0.00    -0.035 C 
ATOM      6  C   UNL     1       1.616  10.467  18.561  0.00  0.00    -0.031 C 
ATOM      7  C   UNL     1       1.126   9.616  19.741  0.00  0.00    +0.046 C 
ATOM      8  H   UNL     1       3.391   8.253  18.371  0.00  0.00    +0.046 HD
ATOM      9  H   UNL     1       2.084   7.309  17.611  0.00  0.00    +0.046 HD
ATOM     10  H   UNL     1       0.912   9.264  16.907  0.00  0.00    +0.028 HD
ATOM     11  H   UNL     1       2.580   9.817  16.703  0.00  0.00    +0.028 HD
ATOM     12  H   UNL     1       0.932  11.274  18.281  0.00  0.00    +0.028 HD
ATOM     13  H   UNL     1       2.576  10.931  18.826  0.00  0.00    +0.028 HD
ATOM     14  H   UNL     1       1.631   9.966  20.651  0.00  0.00    +0.052 HD
ENDROOT
BRANCH   1  21
ATOM     15  C   UNL     1       5.085   4.121  18.969  0.00  0.00    +0.042 A 
ATOM     16  N   UNL     1       4.942   2.754  18.957  0.00  0.00    -0.279 N 
ATOM     17  N   UNL     1       3.744   2.309  19.382  0.00  0.00    -0.154 NA
ATOM     18  C   UNL     1       3.081   3.421  19.694  0.00  0.00    +0.181 A 
ATOM     19  N   UNL     1       1.818   3.516  20.187  0.00  0.00    -0.234 NA
ATOM     20  C   UNL     1       1.455   4.821  20.395  0.00  0.00    +0.042 A 
ATOM     21  C   UNL     1       2.223   5.983  20.130  0.00  0.00    +0.056 A 
ATOM     22  C   UNL     1       3.535   5.913  19.641  0.00  0.00    -0.036 A 
ATOM     23  C   UNL     1       3.882   4.583  19.444  0.00  0.00    +0.042 A 
ATOM     24  H   UNL     1       5.627   2.062  18.669  0.00  0.00    +0.189 HD
ATOM     25  H   UNL     1       0.455   4.925  20.815  0.00  0.00    +0.084 HD
ATOM     26  H   UNL     1       4.160   6.776  19.460  0.00  0.00    +0.063 HD
BRANCH  15  27
ATOM     27  C   UNL     1       6.330   4.794  18.537  0.00  0.00    -0.022 C 
ATOM     28  H   UNL     1       7.028   4.092  18.071  0.00  0.00    +0.029 HD
ATOM     29  H   UNL     1       6.106   5.581  17.809  0.00  0.00    +0.029 HD
ATOM     30  H   UNL     1       6.834   5.252  19.394  0.00  0.00    +0.029 HD
ENDBRANCH  15  27
ENDBRANCH   1  21
BRANCH   7  31
ATOM     31  C   UNL     1      -0.386   9.697  20.010  0.00  0.00    +0.062 C 
ATOM     32  H   UNL     1      -0.810   8.691  20.107  0.00  0.00    +0.053 HD
ATOM     33  H   UNL     1      -0.900  10.176  19.168  0.00  0.00    +0.053 HD
BRANCH  31  34
ATOM     34  N   UNL     1      -0.749  10.441  21.192  0.00  0.00    -0.250 N 
ATOM     35  C   UNL     1      -1.236  11.712  21.267  0.00  0.00    +0.049 A 
ATOM     36  C   UNL     1      -1.410  11.911  22.614  0.00  0.00    +0.086 A 
ATOM     37  N   UNL     1      -1.055  10.781  23.297  0.00  0.00    -0.134 NA
ATOM     38  N   UNL     1      -0.668   9.873  22.410  0.00  0.00    -0.065 NA
ATOM     39  H   UNL     1      -1.402  12.330  20.398  0.00  0.00    +0.085 HD
BRANCH  36  40
ATOM     40  C   UNL     1      -1.930  13.190  23.313  0.00  0.00    +0.005 C 
ATOM     41  C   UNL     1      -1.026  14.383  23.486  0.00  0.00    -0.044 C 
ATOM     42  C   UNL     1      -2.174  14.446  22.519  0.00  0.00    -0.044 C 
ATOM     43  H   UNL     1      -2.623  12.983  24.123  0.00  0.00    +0.036 HD
ATOM     44  H   UNL     1      -0.022  14.349  23.082  0.00  0.00    +0.027 HD
ATOM     45  H   UNL     1      -1.106  14.944  24.411  0.00  0.00    +0.027 HD
ATOM     46  H   UNL     1      -3.032  15.051  22.789  0.00  0.00    +0.027 HD
ATOM     47  H   UNL     1      -1.950  14.453  21.460  0.00  0.00    +0.027 HD
ENDBRANCH  36  40
ENDBRANCH  31  34
ENDBRANCH   7  31
TORSDOF 5
ENDMDL
MODEL 9
REMARK VINA RESULT:    -6.794      3.576      8.717
REMARK INTER + INTRA:          -8.690
REMARK INTER:                  -8.628
REMARK INTRA:                  -0.062
REMARK UNBOUND:                -0.108
REMARK  Name = 
REMARK  5 active torsions:
REMARK  status: ('A' for Active; 'I' for Inactive)
REMARK    1  A    between atoms: C_1  and  C_2
REMARK    2  A    between atoms: C_8  and  C_9
REMARK    3  A    between atoms: C_15  and  C_16
REMARK    4  A    between atoms: C_16  and  N_17
REMARK    5  A    between atoms: C_19  and  C_20
REMARK                            x       y       z     vdW  Elec       q    Type
REMARK                         _______ _______ _______ _____ _____    ______ ____
ROOT
ATOM      1  C   UNL     1       1.865   7.474  20.146  0.00  0.00    +0.248 C 
ATOM      2  O   UNL     1       1.596   7.424  21.342  0.00  0.00    -0.270 OA
ATOM      3  N   UNL     1       1.662   8.602  19.373  0.00  0.00    -0.293 N 
ATOM      4  C   UNL     1       2.190   8.847  18.035  0.00  0.00    +0.015 C 
ATOM      5  C   UNL     1       1.591  10.181  17.626  0.00  0.00    -0.035 C 
ATOM      6  C   UNL     1       1.467  10.931  18.946  0.00  0.00    -0.031 C 
ATOM      7  C   UNL     1       1.163   9.840  19.982  0.00  0.00    +0.046 C 
ATOM      8  H   UNL     1       3.282   8.906  18.112  0.00  0.00    +0.046 HD
ATOM      9  H   UNL     1       1.924   8.049  17.340  0.00  0.00    +0.046 HD
ATOM     10  H   UNL     1       0.602  10.028  17.181  0.00  0.00    +0.028 HD
ATOM     11  H   UNL     1       2.209  10.710  16.895  0.00  0.00    +0.028 HD
ATOM     12  H   UNL     1       0.724  11.733  18.914  0.00  0.00    +0.028 HD
ATOM     13  H   UNL     1       2.435  11.392  19.182  0.00  0.00    +0.028 HD
ATOM     14  H   UNL     1       1.767  10.039  20.878  0.00  0.00    +0.052 HD
ENDROOT
BRANCH   1  21
ATOM     15  C   UNL     1       1.890   2.855  18.497  0.00  0.00    +0.042 A 
ATOM     16  N   UNL     1       2.935   2.257  17.835  0.00  0.00    -0.279 N 
ATOM     17  N   UNL     1       4.017   3.041  17.663  0.00  0.00    -0.154 NA
ATOM     18  C   UNL     1       3.665   4.198  18.222  0.00  0.00    +0.181 A 
ATOM     19  N   UNL     1       4.409   5.333  18.302  0.00  0.00    -0.234 NA
ATOM     20  C   UNL     1       3.730   6.336  18.945  0.00  0.00    +0.042 A 
ATOM     21  C   UNL     1       2.432   6.274  19.511  0.00  0.00    +0.056 A 
ATOM     22  C   UNL     1       1.636   5.122  19.425  0.00  0.00    -0.036 A 
ATOM     23  C   UNL     1       2.341   4.125  18.765  0.00  0.00    +0.042 A 
ATOM     24  H   UNL     1       2.978   1.310  17.471  0.00  0.00    +0.189 HD
ATOM     25  H   UNL     1       4.294   7.267  19.000  0.00  0.00    +0.084 HD
ATOM     26  H   UNL     1       0.631   5.051  19.814  0.00  0.00    +0.063 HD
BRANCH  15  27
ATOM     27  C   UNL     1       0.620   2.151  18.780  0.00  0.00    -0.022 C 
ATOM     28  H   UNL     1       0.720   1.068  18.647  0.00  0.00    +0.029 HD
ATOM     29  H   UNL     1       0.301   2.336  19.811  0.00  0.00    +0.029 HD
ATOM     30  H   UNL     1      -0.170   2.501  18.108  0.00  0.00    +0.029 HD
ENDBRANCH  15  27
ENDBRANCH   1  21
BRANCH   7  31
ATOM     31  C   UNL     1      -0.305   9.776  20.438  0.00  0.00    +0.062 C 
ATOM     32  H   UNL     1      -0.436  10.323  21.379  0.00  0.00    +0.053 HD
ATOM     33  H   UNL     1      -0.600   8.738  20.632  0.00  0.00    +0.053 HD
BRANCH  31  34
ATOM     34  N   UNL     1      -1.255  10.305  19.489  0.00  0.00    -0.250 N 
ATOM     35  C   UNL     1      -1.793   9.680  18.405  0.00  0.00    +0.049 A 
ATOM     36  C   UNL     1      -2.628  10.629  17.867  0.00  0.00    +0.086 A 
ATOM     37  N   UNL     1      -2.589  11.762  18.631  0.00  0.00    -0.134 NA
ATOM     38  N   UNL     1      -1.755  11.546  19.641  0.00  0.00    -0.065 NA
ATOM     39  H   UNL     1      -1.543   8.668  18.125  0.00  0.00    +0.085 HD
BRANCH  36  40
ATOM     40  C   UNL     1      -3.506  10.496  16.600  0.00  0.00    +0.005 C 
ATOM     41  C   UNL     1      -3.056  11.099  15.295  0.00  0.00    -0.044 C 
ATOM     42  C   UNL     1      -3.076   9.606  15.465  0.00  0.00    -0.044 C 
ATOM     43  H   UNL     1      -4.571  10.534  16.812  0.00  0.00    +0.036 HD
ATOM     44  H   UNL     1      -2.093  11.592  15.244  0.00  0.00    +0.027 HD
ATOM     45  H   UNL     1      -3.812  11.550  14.662  0.00  0.00    +0.027 HD
ATOM     46  H   UNL     1      -3.846   9.046  14.946  0.00  0.00    +0.027 HD
ATOM     47  H   UNL     1      -2.127   9.087  15.532  0.00  0.00    +0.027 HD
ENDBRANCH  36  40
ENDBRANCH  31  34
ENDBRANCH   7  31
TORSDOF 5
ENDMDL
MODEL 10
REMARK VINA RESULT:    -6.755      2.672      9.370
REMARK INTER + INTRA:          -8.640
REMARK INTER:                  -8.339
REMARK INTRA:                  -0.301
REMARK UNBOUND:                -0.108
REMARK  Name = 
REMARK  5 active torsions:
REMARK  status: ('A' for Active; 'I' for Inactive)
REMARK    1  A    between atoms: C_1  and  C_2
REMARK    2  A    between atoms: C_8  and  C_9
REMARK    3  A    between atoms: C_15  and  C_16
REMARK    4  A    between atoms: C_16  and  N_17
REMARK    5  A    between atoms: C_19  and  C_20
REMARK                            x       y       z     vdW  Elec       q    Type
REMARK                         _______ _______ _______ _____ _____    ______ ____
ROOT
ATOM      1  C   UNL     1       1.935   8.281  18.321  0.00  0.00    +0.248 C 
ATOM      2  O   UNL     1       1.588   8.951  17.352  0.00  0.00    -0.270 OA
ATOM      3  N   UNL     1       1.520   8.549  19.612  0.00  0.00    -0.293 N 
ATOM      4  C   UNL     1       1.653   7.671  20.769  0.00  0.00    +0.015 C 
ATOM      5  C   UNL     1       1.121   8.488  21.933  0.00  0.00    -0.035 C 
ATOM      6  C   UNL     1       0.044   9.354  21.291  0.00  0.00    -0.031 C 
ATOM      7  C   UNL     1       0.569   9.635  19.876  0.00  0.00    +0.046 C 
ATOM      8  H   UNL     1       1.036   6.783  20.588  0.00  0.00    +0.046 HD
ATOM      9  H   UNL     1       2.687   7.360  20.927  0.00  0.00    +0.046 HD
ATOM     10  H   UNL     1       1.917   9.115  22.348  0.00  0.00    +0.028 HD
ATOM     11  H   UNL     1       0.733   7.861  22.741  0.00  0.00    +0.028 HD
ATOM     12  H   UNL     1      -0.179  10.256  21.869  0.00  0.00    +0.028 HD
ATOM     13  H   UNL     1      -0.884   8.772  21.223  0.00  0.00    +0.028 HD
ATOM     14  H   UNL     1      -0.267   9.526  19.171  0.00  0.00    +0.052 HD
ENDROOT
BRANCH   1  21
ATOM     15  C   UNL     1       3.162   3.558  17.832  0.00  0.00    +0.042 A 
ATOM     16  N   UNL     1       4.417   3.095  17.513  0.00  0.00    -0.279 N 
ATOM     17  N   UNL     1       5.346   4.055  17.345  0.00  0.00    -0.154 NA
ATOM     18  C   UNL     1       4.676   5.188  17.550  0.00  0.00    +0.181 A 
ATOM     19  N   UNL     1       5.163   6.456  17.484  0.00  0.00    -0.234 NA
ATOM     20  C   UNL     1       4.190   7.384  17.751  0.00  0.00    +0.042 A 
ATOM     21  C   UNL     1       2.835   7.140  18.090  0.00  0.00    +0.056 A 
ATOM     22  C   UNL     1       2.302   5.844  18.145  0.00  0.00    -0.036 A 
ATOM     23  C   UNL     1       3.303   4.924  17.865  0.00  0.00    +0.042 A 
ATOM     24  H   UNL     1       4.709   2.130  17.394  0.00  0.00    +0.189 HD
ATOM     25  H   UNL     1       4.548   8.411  17.679  0.00  0.00    +0.084 HD
ATOM     26  H   UNL     1       1.268   5.624  18.366  0.00  0.00    +0.063 HD
BRANCH  15  27
ATOM     27  C   UNL     1       2.014   2.653  18.055  0.00  0.00    -0.022 C 
ATOM     28  H   UNL     1       2.320   1.725  18.551  0.00  0.00    +0.029 HD
ATOM     29  H   UNL     1       1.261   3.139  18.685  0.00  0.00    +0.029 HD
ATOM     30  H   UNL     1       1.545   2.387  17.102  0.00  0.00    +0.029 HD
ENDBRANCH  15  27
ENDBRANCH   1  21
BRANCH   7  31
ATOM     31  C   UNL     1       1.145  11.047  19.670  0.00  0.00    +0.062 C 
ATOM     32  H   UNL     1       1.410  11.200  18.618  0.00  0.00    +0.053 HD
ATOM     33  H   UNL     1       2.066  11.173  20.250  0.00  0.00    +0.053 HD
BRANCH  31  34
ATOM     34  N   UNL     1       0.262  12.121  20.058  0.00  0.00    -0.250 N 
ATOM     35  C   UNL     1       0.331  12.901  21.173  0.00  0.00    +0.049 A 
ATOM     36  C   UNL     1      -0.738  13.753  21.037  0.00  0.00    +0.086 A 
ATOM     37  N   UNL     1      -1.393  13.486  19.868  0.00  0.00    -0.134 NA
ATOM     38  N   UNL     1      -0.757  12.491  19.261  0.00  0.00    -0.065 NA
ATOM     39  H   UNL     1       1.095  12.783  21.927  0.00  0.00    +0.085 HD
BRANCH  36  40
ATOM     40  C   UNL     1      -1.181  14.865  22.017  0.00  0.00    +0.005 C 
ATOM     41  C   UNL     1      -2.379  14.662  22.908  0.00  0.00    -0.044 C 
ATOM     42  C   UNL     1      -0.999  14.690  23.502  0.00  0.00    -0.044 C 
ATOM     43  H   UNL     1      -1.031  15.866  21.623  0.00  0.00    +0.036 HD
ATOM     44  H   UNL     1      -2.903  13.715  22.883  0.00  0.00    +0.027 HD
ATOM     45  H   UNL     1      -3.026  15.515  23.082  0.00  0.00    +0.027 HD
ATOM     46  H   UNL     1      -0.712  15.562  24.078  0.00  0.00    +0.027 HD
ATOM     47  H   UNL     1      -0.586  13.762  23.876  0.00  0.00    +0.027 HD
ENDBRANCH  36  40
ENDBRANCH  31  34
ENDBRANCH   7  31
TORSDOF 5
ENDMDL
MODEL 11
REMARK VINA RESULT:    -6.686      4.539     11.427
REMARK INTER + INTRA:          -8.553
REMARK INTER:                  -8.483
REMARK INTRA:                  -0.070
REMARK UNBOUND:                -0.108
REMARK  Name = 
REMARK  5 active torsions:
REMARK  status: ('A' for Active; 'I' for Inactive)
REMARK    1  A    between atoms: C_1  and  C_2
REMARK    2  A    between atoms: C_8  and  C_9
REMARK    3  A    between atoms: C_15  and  C_16
REMARK    4  A    between atoms: C_16  and  N_17
REMARK    5  A    between atoms: C_19  and  C_20
REMARK                            x       y       z     vdW  Elec       q    Type
REMARK                         _______ _______ _______ _____ _____    ______ ____
ROOT
ATOM      1  C   UNL     1       4.060   5.149  17.059  0.00  0.00    +0.248 C 
ATOM      2  O   UNL     1       3.626   6.288  17.199  0.00  0.00    -0.270 OA
ATOM      3  N   UNL     1       3.650   4.083  17.838  0.00  0.00    -0.293 N 
ATOM      4  C   UNL     1       3.897   2.669  17.579  0.00  0.00    +0.015 C 
ATOM      5  C   UNL     1       3.314   1.951  18.783  0.00  0.00    -0.035 C 
ATOM      6  C   UNL     1       2.142   2.837  19.186  0.00  0.00    -0.031 C 
ATOM      7  C   UNL     1       2.602   4.263  18.850  0.00  0.00    +0.046 C 
ATOM      8  H   UNL     1       3.368   2.400  16.657  0.00  0.00    +0.046 HD
ATOM      9  H   UNL     1       4.961   2.458  17.453  0.00  0.00    +0.046 HD
ATOM     10  H   UNL     1       4.053   1.908  19.589  0.00  0.00    +0.028 HD
ATOM     11  H   UNL     1       3.009   0.927  18.552  0.00  0.00    +0.028 HD
ATOM     12  H   UNL     1       1.843   2.702  20.230  0.00  0.00    +0.028 HD
ATOM     13  H   UNL     1       1.275   2.582  18.563  0.00  0.00    +0.028 HD
ATOM     14  H   UNL     1       1.765   4.791  18.374  0.00  0.00    +0.052 HD
ENDROOT
BRANCH   1  21
ATOM     15  C   UNL     1       5.708   3.752  12.656  0.00  0.00    +0.042 A 
ATOM     16  N   UNL     1       7.010   3.859  12.227  0.00  0.00    -0.279 N 
ATOM     17  N   UNL     1       7.859   4.384  13.131  0.00  0.00    -0.154 NA
ATOM     18  C   UNL     1       7.087   4.640  14.185  0.00  0.00    +0.181 A 
ATOM     19  N   UNL     1       7.465   5.193  15.368  0.00  0.00    -0.234 NA
ATOM     20  C   UNL     1       6.406   5.314  16.230  0.00  0.00    +0.042 A 
ATOM     21  C   UNL     1       5.064   4.913  16.009  0.00  0.00    +0.056 A 
ATOM     22  C   UNL     1       4.642   4.359  14.791  0.00  0.00    -0.036 A 
ATOM     23  C   UNL     1       5.730   4.253  13.935  0.00  0.00    +0.042 A 
ATOM     24  H   UNL     1       7.389   3.591  11.325  0.00  0.00    +0.189 HD
ATOM     25  H   UNL     1       6.676   5.778  17.178  0.00  0.00    +0.084 HD
ATOM     26  H   UNL     1       3.623   4.074  14.577  0.00  0.00    +0.063 HD
BRANCH  15  27
ATOM     27  C   UNL     1       4.633   3.198  11.803  0.00  0.00    -0.022 C 
ATOM     28  H   UNL     1       4.242   2.257  12.205  0.00  0.00    +0.029 HD
ATOM     29  H   UNL     1       3.801   3.905  11.729  0.00  0.00    +0.029 HD
ATOM     30  H   UNL     1       5.009   3.002  10.793  0.00  0.00    +0.029 HD
ENDBRANCH  15  27
ENDBRANCH   1  21
BRANCH   7  31
ATOM     31  C   UNL     1       3.030   5.105  20.064  0.00  0.00    +0.062 C 
ATOM     32  H   UNL     1       4.086   5.385  19.980  0.00  0.00    +0.053 HD
ATOM     33  H   UNL     1       2.929   4.525  20.988  0.00  0.00    +0.053 HD
BRANCH  31  34
ATOM     34  N   UNL     1       2.270   6.318  20.253  0.00  0.00    -0.250 N 
ATOM     35  C   UNL     1       1.296   6.562  21.174  0.00  0.00    +0.049 A 
ATOM     36  C   UNL     1       0.923   7.858  20.913  0.00  0.00    +0.086 A 
ATOM     37  N   UNL     1       1.674   8.355  19.886  0.00  0.00    -0.134 NA
ATOM     38  N   UNL     1       2.516   7.405  19.498  0.00  0.00    -0.065 NA
ATOM     39  H   UNL     1       0.969   5.826  21.894  0.00  0.00    +0.085 HD
BRANCH  36  40
ATOM     40  C   UNL     1      -0.167   8.684  21.638  0.00  0.00    +0.005 C 
ATOM     41  C   UNL     1       0.143   9.374  22.941  0.00  0.00    -0.044 C 
ATOM     42  C   UNL     1      -0.073  10.186  21.695  0.00  0.00    -0.044 C 
ATOM     43  H   UNL     1      -1.162   8.262  21.536  0.00  0.00    +0.036 HD
ATOM     44  H   UNL     1       1.147   9.319  23.344  0.00  0.00    +0.027 HD
ATOM     45  H   UNL     1      -0.633   9.388  23.699  0.00  0.00    +0.027 HD
ATOM     46  H   UNL     1      -0.995  10.750  21.609  0.00  0.00    +0.027 HD
ATOM     47  H   UNL     1       0.784  10.678  21.251  0.00  0.00    +0.027 HD
ENDBRANCH  36  40
ENDBRANCH  31  34
ENDBRANCH   7  31
TORSDOF 5
ENDMDL
MODEL 12
REMARK VINA RESULT:    -6.646      2.666      9.135
REMARK INTER + INTRA:          -8.503
REMARK INTER:                  -8.141
REMARK INTRA:                  -0.362
REMARK UNBOUND:                -0.108
REMARK  Name = 
REMARK  5 active torsions:
REMARK  status: ('A' for Active; 'I' for Inactive)
REMARK    1  A    between atoms: C_1  and  C_2
REMARK    2  A    between atoms: C_8  and  C_9
REMARK    3  A    between atoms: C_15  and  C_16
REMARK    4  A    between atoms: C_16  and  N_17
REMARK    5  A    between atoms: C_19  and  C_20
REMARK                            x       y       z     vdW  Elec       q    Type
REMARK                         _______ _______ _______ _____ _____    ______ ____
ROOT
ATOM      1  C   UNL     1       1.804   7.228  20.294  0.00  0.00    +0.248 C 
ATOM      2  O   UNL     1       1.405   7.306  21.452  0.00  0.00    -0.270 OA
ATOM      3  N   UNL     1       1.716   8.272  19.393  0.00  0.00    -0.293 N 
ATOM      4  C   UNL     1       2.392   8.369  18.104  0.00  0.00    +0.015 C 
ATOM      5  C   UNL     1       1.878   9.663  17.498  0.00  0.00    -0.035 C 
ATOM      6  C   UNL     1       1.633  10.547  18.713  0.00  0.00    -0.031 C 
ATOM      7  C   UNL     1       1.188   9.575  19.815  0.00  0.00    +0.046 C 
ATOM      8  H   UNL     1       3.471   8.418  18.294  0.00  0.00    +0.046 HD
ATOM      9  H   UNL     1       2.181   7.507  17.467  0.00  0.00    +0.046 HD
ATOM     10  H   UNL     1       0.939   9.481  16.964  0.00  0.00    +0.028 HD
ATOM     11  H   UNL     1       2.585  10.103  16.790  0.00  0.00    +0.028 HD
ATOM     12  H   UNL     1       0.920  11.354  18.518  0.00  0.00    +0.028 HD
ATOM     13  H   UNL     1       2.582  11.015  19.007  0.00  0.00    +0.028 HD
ATOM     14  H   UNL     1       1.697   9.855  20.747  0.00  0.00    +0.052 HD
ENDROOT
BRANCH   1  21
ATOM     15  C   UNL     1       1.828   2.561  18.786  0.00  0.00    +0.042 A 
ATOM     16  N   UNL     1       2.949   1.849  18.431  0.00  0.00    -0.279 N 
ATOM     17  N   UNL     1       4.106   2.531  18.536  0.00  0.00    -0.154 NA
ATOM     18  C   UNL     1       3.730   3.735  18.965  0.00  0.00    +0.181 A 
ATOM     19  N   UNL     1       4.530   4.805  19.218  0.00  0.00    -0.234 NA
ATOM     20  C   UNL     1       3.803   5.887  19.644  0.00  0.00    +0.042 A 
ATOM     21  C   UNL     1       2.402   5.959  19.850  0.00  0.00    +0.056 A 
ATOM     22  C   UNL     1       1.552   4.877  19.576  0.00  0.00    -0.036 A 
ATOM     23  C   UNL     1       2.309   3.797  19.141  0.00  0.00    +0.042 A 
ATOM     24  H   UNL     1       2.997   0.888  18.107  0.00  0.00    +0.189 HD
ATOM     25  H   UNL     1       4.417   6.768  19.830  0.00  0.00    +0.084 HD
ATOM     26  H   UNL     1       0.478   4.907  19.689  0.00  0.00    +0.063 HD
BRANCH  15  27
ATOM     27  C   UNL     1       0.469   1.979  18.736  0.00  0.00    -0.022 C 
ATOM     28  H   UNL     1      -0.243   2.562  19.330  0.00  0.00    +0.029 HD
ATOM     29  H   UNL     1       0.103   1.949  17.704  0.00  0.00    +0.029 HD
ATOM     30  H   UNL     1       0.476   0.956  19.127  0.00  0.00    +0.029 HD
ENDBRANCH  15  27
ENDBRANCH   1  21
BRANCH   7  31
ATOM     31  C   UNL     1      -0.321   9.582  20.111  0.00  0.00    +0.062 C 
ATOM     32  H   UNL     1      -0.686   8.559  20.255  0.00  0.00    +0.053 HD
ATOM     33  H   UNL     1      -0.876   9.999  19.262  0.00  0.00    +0.053 HD
BRANCH  31  34
ATOM     34  N   UNL     1      -0.704  10.350  21.272  0.00  0.00    -0.250 N 
ATOM     35  C   UNL     1      -1.204  11.617  21.311  0.00  0.00    +0.049 A 
ATOM     36  C   UNL     1      -1.395  11.847  22.651  0.00  0.00    +0.086 A 
ATOM     37  N   UNL     1      -1.036  10.737  23.364  0.00  0.00    -0.134 NA
ATOM     38  N   UNL     1      -0.630   9.812  22.503  0.00  0.00    -0.065 NA
ATOM     39  H   UNL     1      -1.366  12.213  20.425  0.00  0.00    +0.085 HD
BRANCH  36  40
ATOM     40  C   UNL     1      -1.934  13.137  23.314  0.00  0.00    +0.005 C 
ATOM     41  C   UNL     1      -1.043  14.342  23.471  0.00  0.00    -0.044 C 
ATOM     42  C   UNL     1      -2.180  14.372  22.488  0.00  0.00    -0.044 C 
ATOM     43  H   UNL     1      -2.636  12.942  24.120  0.00  0.00    +0.036 HD
ATOM     44  H   UNL     1      -0.034  14.308  23.080  0.00  0.00    +0.027 HD
ATOM     45  H   UNL     1      -1.140  14.923  24.381  0.00  0.00    +0.027 HD
ATOM     46  H   UNL     1      -3.047  14.975  22.734  0.00  0.00    +0.027 HD
ATOM     47  H   UNL     1      -1.942  14.356  21.432  0.00  0.00    +0.027 HD
ENDBRANCH  36  40
ENDBRANCH  31  34
ENDBRANCH   7  31
TORSDOF 5
ENDMDL
MODEL 13
REMARK VINA RESULT:    -6.617      3.744      8.841
REMARK INTER + INTRA:          -8.466
REMARK INTER:                  -8.257
REMARK INTRA:                  -0.209
REMARK UNBOUND:                -0.108
REMARK  Name = 
REMARK  5 active torsions:
REMARK  status: ('A' for Active; 'I' for Inactive)
REMARK    1  A    between atoms: C_1  and  C_2
REMARK    2  A    between atoms: C_8  and  C_9
REMARK    3  A    between atoms: C_15  and  C_16
REMARK    4  A    between atoms: C_16  and  N_17
REMARK    5  A    between atoms: C_19  and  C_20
REMARK                            x       y       z     vdW  Elec       q    Type
REMARK                         _______ _______ _______ _____ _____    ______ ____
ROOT
ATOM      1  C   UNL     1       1.849   8.010  18.761  0.00  0.00    +0.248 C 
ATOM      2  O   UNL     1       1.278   8.397  17.746  0.00  0.00    -0.270 OA
ATOM      3  N   UNL     1       1.520   8.454  20.028  0.00  0.00    -0.293 N 
ATOM      4  C   UNL     1       1.944   7.866  21.294  0.00  0.00    +0.015 C 
ATOM      5  C   UNL     1       1.377   8.792  22.355  0.00  0.00    -0.035 C 
ATOM      6  C   UNL     1       0.088   9.303  21.723  0.00  0.00    -0.031 C 
ATOM      7  C   UNL     1       0.400   9.382  20.222  0.00  0.00    +0.046 C 
ATOM      8  H   UNL     1       1.505   6.864  21.362  0.00  0.00    +0.046 HD
ATOM      9  H   UNL     1       3.031   7.785  21.361  0.00  0.00    +0.046 HD
ATOM     10  H   UNL     1       2.067   9.622  22.537  0.00  0.00    +0.028 HD
ATOM     11  H   UNL     1       1.207   8.282  23.308  0.00  0.00    +0.028 HD
ATOM     12  H   UNL     1      -0.254  10.248  22.156  0.00  0.00    +0.028 HD
ATOM     13  H   UNL     1      -0.704   8.562  21.889  0.00  0.00    +0.028 HD
ATOM     14  H   UNL     1      -0.463   8.985  19.671  0.00  0.00    +0.052 HD
ENDROOT
BRANCH   1  21
ATOM     15  C   UNL     1       4.133   3.718  19.401  0.00  0.00    +0.042 A 
ATOM     16  N   UNL     1       5.344   3.375  18.848  0.00  0.00    -0.279 N 
ATOM     17  N   UNL     1       5.909   4.335  18.090  0.00  0.00    -0.154 NA
ATOM     18  C   UNL     1       5.034   5.338  18.139  0.00  0.00    +0.181 A 
ATOM     19  N   UNL     1       5.131   6.545  17.521  0.00  0.00    -0.234 NA
ATOM     20  C   UNL     1       4.044   7.336  17.789  0.00  0.00    +0.042 A 
ATOM     21  C   UNL     1       2.934   7.027  18.615  0.00  0.00    +0.056 A 
ATOM     22  C   UNL     1       2.799   5.782  19.247  0.00  0.00    -0.036 A 
ATOM     23  C   UNL     1       3.907   4.997  18.956  0.00  0.00    +0.042 A 
ATOM     24  H   UNL     1       5.846   2.498  18.948  0.00  0.00    +0.189 HD
ATOM     25  H   UNL     1       4.083   8.302  17.286  0.00  0.00    +0.084 HD
ATOM     26  H   UNL     1       1.952   5.500  19.855  0.00  0.00    +0.063 HD
BRANCH  15  27
ATOM     27  C   UNL     1       3.364   2.794  20.264  0.00  0.00    -0.022 C 
ATOM     28  H   UNL     1       3.859   1.822  20.358  0.00  0.00    +0.029 HD
ATOM     29  H   UNL     1       3.252   3.214  21.269  0.00  0.00    +0.029 HD
ATOM     30  H   UNL     1       2.365   2.626  19.849  0.00  0.00    +0.029 HD
ENDBRANCH  15  27
ENDBRANCH   1  21
BRANCH   7  31
ATOM     31  C   UNL     1       0.653  10.803  19.690  0.00  0.00    +0.062 C 
ATOM     32  H   UNL     1       1.639  10.861  19.214  0.00  0.00    +0.053 HD
ATOM     33  H   UNL     1       0.658  11.526  20.514  0.00  0.00    +0.053 HD
BRANCH  31  34
ATOM     34  N   UNL     1      -0.322  11.272  18.735  0.00  0.00    -0.250 N 
ATOM     35  C   UNL     1      -1.297  10.553  18.111  0.00  0.00    +0.049 A 
ATOM     36  C   UNL     1      -1.930  11.484  17.324  0.00  0.00    +0.086 A 
ATOM     37  N   UNL     1      -1.351  12.709  17.505  0.00  0.00    -0.134 NA
ATOM     38  N   UNL     1      -0.373  12.572  18.392  0.00  0.00    -0.065 NA
ATOM     39  H   UNL     1      -1.443   9.496  18.272  0.00  0.00    +0.085 HD
BRANCH  36  40
ATOM     40  C   UNL     1      -3.122  11.248  16.366  0.00  0.00    +0.005 C 
ATOM     41  C   UNL     1      -2.906  10.581  15.033  0.00  0.00    -0.044 C 
ATOM     42  C   UNL     1      -3.640   9.854  16.124  0.00  0.00    -0.044 C 
ATOM     43  H   UNL     1      -3.861  12.043  16.399  0.00  0.00    +0.036 HD
ATOM     44  H   UNL     1      -1.914  10.235  14.769  0.00  0.00    +0.027 HD
ATOM     45  H   UNL     1      -3.480  10.948  14.189  0.00  0.00    +0.027 HD
ATOM     46  H   UNL     1      -4.711   9.729  16.018  0.00  0.00    +0.027 HD
ATOM     47  H   UNL     1      -3.145   9.018  16.602  0.00  0.00    +0.027 HD
ENDBRANCH  36  40
ENDBRANCH  31  34
ENDBRANCH   7  31
TORSDOF 5
ENDMDL
MODEL 14
REMARK VINA RESULT:    -6.529      2.739      9.540
REMARK INTER + INTRA:          -8.355
REMARK INTER:                  -8.081
REMARK INTRA:                  -0.274
REMARK UNBOUND:                -0.108
REMARK  Name = 
REMARK  5 active torsions:
REMARK  status: ('A' for Active; 'I' for Inactive)
REMARK    1  A    between atoms: C_1  and  C_2
REMARK    2  A    between atoms: C_8  and  C_9
REMARK    3  A    between atoms: C_15  and  C_16
REMARK    4  A    between atoms: C_16  and  N_17
REMARK    5  A    between atoms: C_19  and  C_20
REMARK                            x       y       z     vdW  Elec       q    Type
REMARK                         _______ _______ _______ _____ _____    ______ ____
ROOT
ATOM      1  C   UNL     1       1.937   8.289  18.320  0.00  0.00    +0.248 C 
ATOM      2  O   UNL     1       1.627   8.976  17.351  0.00  0.00    -0.270 OA
ATOM      3  N   UNL     1       1.525   8.570  19.609  0.00  0.00    -0.293 N 
ATOM      4  C   UNL     1       1.611   7.683  20.763  0.00  0.00    +0.015 C 
ATOM      5  C   UNL     1       1.106   8.518  21.927  0.00  0.00    -0.035 C 
ATOM      6  C   UNL     1       0.073   9.432  21.280  0.00  0.00    -0.031 C 
ATOM      7  C   UNL     1       0.620   9.696  19.870  0.00  0.00    +0.046 C 
ATOM      8  H   UNL     1       0.958   6.823  20.575  0.00  0.00    +0.046 HD
ATOM      9  H   UNL     1       2.630   7.327  20.928  0.00  0.00    +0.046 HD
ATOM     10  H   UNL     1       1.926   9.108  22.349  0.00  0.00    +0.028 HD
ATOM     11  H   UNL     1       0.686   7.906  22.729  0.00  0.00    +0.028 HD
ATOM     12  H   UNL     1      -0.115  10.341  21.860  0.00  0.00    +0.028 HD
ATOM     13  H   UNL     1      -0.879   8.891  21.203  0.00  0.00    +0.028 HD
ATOM     14  H   UNL     1      -0.215   9.625  19.159  0.00  0.00    +0.052 HD
ENDROOT
BRANCH   1  21
ATOM     15  C   UNL     1       6.128   5.861  17.548  0.00  0.00    +0.042 A 
ATOM     16  N   UNL     1       6.245   4.495  17.447  0.00  0.00    -0.279 N 
ATOM     17  N   UNL     1       5.085   3.820  17.566  0.00  0.00    -0.154 NA
ATOM     18  C   UNL     1       4.178   4.775  17.761  0.00  0.00    +0.181 A 
ATOM     19  N   UNL     1       2.841   4.614  17.952  0.00  0.00    -0.234 NA
ATOM     20  C   UNL     1       2.208   5.818  18.124  0.00  0.00    +0.042 A 
ATOM     21  C   UNL     1       2.789   7.111  18.091  0.00  0.00    +0.056 A 
ATOM     22  C   UNL     1       4.167   7.304  17.915  0.00  0.00    -0.036 A 
ATOM     23  C   UNL     1       4.786   6.073  17.751  0.00  0.00    +0.042 A 
ATOM     24  H   UNL     1       7.091   3.955  17.298  0.00  0.00    +0.189 HD
ATOM     25  H   UNL     1       1.138   5.717  18.305  0.00  0.00    +0.084 HD
ATOM     26  H   UNL     1       4.648   8.272  17.919  0.00  0.00    +0.063 HD
BRANCH  15  27
ATOM     27  C   UNL     1       7.292   6.768  17.443  0.00  0.00    -0.022 C 
ATOM     28  H   UNL     1       8.061   6.364  16.775  0.00  0.00    +0.029 HD
ATOM     29  H   UNL     1       6.983   7.743  17.050  0.00  0.00    +0.029 HD
ATOM     30  H   UNL     1       7.747   6.923  18.426  0.00  0.00    +0.029 HD
ENDBRANCH  15  27
ENDBRANCH   1  21
BRANCH   7  31
ATOM     31  C   UNL     1       1.258  11.081  19.674  0.00  0.00    +0.062 C 
ATOM     32  H   UNL     1       1.570  11.213  18.632  0.00  0.00    +0.053 HD
ATOM     33  H   UNL     1       2.160  11.178  20.288  0.00  0.00    +0.053 HD
BRANCH  31  34
ATOM     34  N   UNL     1       0.403  12.193  20.017  0.00  0.00    -0.250 N 
ATOM     35  C   UNL     1       0.399  12.923  21.168  0.00  0.00    +0.049 A 
ATOM     36  C   UNL     1      -0.597  13.845  20.961  0.00  0.00    +0.086 A 
ATOM     37  N   UNL     1      -1.139  13.666  19.719  0.00  0.00    -0.134 NA
ATOM     38  N   UNL     1      -0.502  12.658  19.136  0.00  0.00    -0.065 NA
ATOM     39  H   UNL     1       1.071  12.728  21.990  0.00  0.00    +0.085 HD
BRANCH  36  40
ATOM     40  C   UNL     1      -1.076  14.944  21.940  0.00  0.00    +0.005 C 
ATOM     41  C   UNL     1      -2.337  14.752  22.741  0.00  0.00    -0.044 C 
ATOM     42  C   UNL     1      -1.000  14.725  23.428  0.00  0.00    -0.044 C 
ATOM     43  H   UNL     1      -0.873  15.950  21.585  0.00  0.00    +0.036 HD
ATOM     44  H   UNL     1      -2.883  13.821  22.655  0.00  0.00    +0.027 HD
ATOM     45  H   UNL     1      -2.971  15.619  22.895  0.00  0.00    +0.027 HD
ATOM     46  H   UNL     1      -0.729  15.573  24.046  0.00  0.00    +0.027 HD
ATOM     47  H   UNL     1      -0.639  13.775  23.803  0.00  0.00    +0.027 HD
ENDBRANCH  36  40
ENDBRANCH  31  34
ENDBRANCH   7  31
TORSDOF 5
ENDMDL
MODEL 15
REMARK VINA RESULT:    -6.480      2.297      9.555
REMARK INTER + INTRA:          -8.293
REMARK INTER:                  -7.916
REMARK INTRA:                  -0.377
REMARK UNBOUND:                -0.108
REMARK  Name = 
REMARK  5 active torsions:
REMARK  status: ('A' for Active; 'I' for Inactive)
REMARK    1  A    between atoms: C_1  and  C_2
REMARK    2  A    between atoms: C_8  and  C_9
REMARK    3  A    between atoms: C_15  and  C_16
REMARK    4  A    between atoms: C_16  and  N_17
REMARK    5  A    between atoms: C_19  and  C_20
REMARK                            x       y       z     vdW  Elec       q    Type
REMARK                         _______ _______ _______ _____ _____    ______ ____
ROOT
ATOM      1  C   UNL     1       1.983   7.315  19.838  0.00  0.00    +0.248 C 
ATOM      2  O   UNL     1       1.639   7.056  20.988  0.00  0.00    -0.270 OA
ATOM      3  N   UNL     1       1.769   8.545  19.244  0.00  0.00    -0.293 N 
ATOM      4  C   UNL     1       2.369   9.030  18.006  0.00  0.00    +0.015 C 
ATOM      5  C   UNL     1       1.725  10.385  17.774  0.00  0.00    -0.035 C 
ATOM      6  C   UNL     1       1.475  10.901  19.185  0.00  0.00    -0.031 C 
ATOM      7  C   UNL     1       1.164   9.643  20.007  0.00  0.00    +0.046 C 
ATOM      8  H   UNL     1       3.449   9.123  18.171  0.00  0.00    +0.046 HD
ATOM      9  H   UNL     1       2.194   8.346  17.174  0.00  0.00    +0.046 HD
ATOM     10  H   UNL     1       0.778  10.264  17.239  0.00  0.00    +0.028 HD
ATOM     11  H   UNL     1       2.360  11.054  17.186  0.00  0.00    +0.028 HD
ATOM     12  H   UNL     1       0.692  11.664  19.228  0.00  0.00    +0.028 HD
ATOM     13  H   UNL     1       2.398  11.359  19.563  0.00  0.00    +0.028 HD
ATOM     14  H   UNL     1       1.696   9.717  20.965  0.00  0.00    +0.052 HD
ENDROOT
BRANCH   1  21
ATOM     15  C   UNL     1       5.790   4.802  18.038  0.00  0.00    +0.042 A 
ATOM     16  N   UNL     1       5.697   3.673  17.258  0.00  0.00    -0.279 N 
ATOM     17  N   UNL     1       4.437   3.278  16.988  0.00  0.00    -0.154 NA
ATOM     18  C   UNL     1       3.679   4.171  17.621  0.00  0.00    +0.181 A 
ATOM     19  N   UNL     1       2.321   4.209  17.671  0.00  0.00    -0.234 NA
ATOM     20  C   UNL     1       1.874   5.269  18.417  0.00  0.00    +0.042 A 
ATOM     21  C   UNL     1       2.655   6.261  19.061  0.00  0.00    +0.056 A 
ATOM     22  C   UNL     1       4.058   6.234  19.042  0.00  0.00    -0.036 A 
ATOM     23  C   UNL     1       4.485   5.150  18.287  0.00  0.00    +0.042 A 
ATOM     24  H   UNL     1       6.456   3.120  16.873  0.00  0.00    +0.189 HD
ATOM     25  H   UNL     1       0.788   5.309  18.496  0.00  0.00    +0.084 HD
ATOM     26  H   UNL     1       4.684   6.953  19.550  0.00  0.00    +0.063 HD
BRANCH  15  27
ATOM     27  C   UNL     1       7.090   5.386  18.437  0.00  0.00    -0.022 C 
ATOM     28  H   UNL     1       7.009   5.952  19.371  0.00  0.00    +0.029 HD
ATOM     29  H   UNL     1       7.835   4.597  18.583  0.00  0.00    +0.029 HD
ATOM     30  H   UNL     1       7.457   6.066  17.661  0.00  0.00    +0.029 HD
ENDBRANCH  15  27
ENDBRANCH   1  21
BRANCH   7  31
ATOM     31  C   UNL     1      -0.325   9.440  20.338  0.00  0.00    +0.062 C 
ATOM     32  H   UNL     1      -0.511   8.402  20.638  0.00  0.00    +0.053 HD
ATOM     33  H   UNL     1      -0.943   9.628  19.453  0.00  0.00    +0.053 HD
BRANCH  31  34
ATOM     34  N   UNL     1      -0.832  10.295  21.385  0.00  0.00    -0.250 N 
ATOM     35  C   UNL     1      -1.530  11.457  21.253  0.00  0.00    +0.049 A 
ATOM     36  C   UNL     1      -1.761  11.843  22.551  0.00  0.00    +0.086 A 
ATOM     37  N   UNL     1      -1.229  10.920  23.407  0.00  0.00    -0.134 NA
ATOM     38  N   UNL     1      -0.676   9.958  22.679  0.00  0.00    -0.065 NA
ATOM     39  H   UNL     1      -1.785  11.885  20.296  0.00  0.00    +0.085 HD
BRANCH  36  40
ATOM     40  C   UNL     1      -2.505  13.111  23.034  0.00  0.00    +0.005 C 
ATOM     41  C   UNL     1      -3.970  13.293  22.736  0.00  0.00    -0.044 C 
ATOM     42  C   UNL     1      -3.519  13.023  24.144  0.00  0.00    -0.044 C 
ATOM     43  H   UNL     1      -1.888  14.005  23.008  0.00  0.00    +0.036 HD
ATOM     44  H   UNL     1      -4.506  12.510  22.214  0.00  0.00    +0.027 HD
ATOM     45  H   UNL     1      -4.313  14.293  22.494  0.00  0.00    +0.027 HD
ATOM     46  H   UNL     1      -3.557  13.841  24.855  0.00  0.00    +0.027 HD
ATOM     47  H   UNL     1      -3.746  12.056  24.576  0.00  0.00    +0.027 HD
ENDBRANCH  36  40
ENDBRANCH  31  34
ENDBRANCH   7  31
TORSDOF 5
ENDMDL
MODEL 16
REMARK VINA RESULT:    -6.447      2.250      8.930
REMARK INTER + INTRA:          -8.251
REMARK INTER:                  -8.484
REMARK INTRA:                   0.233
REMARK UNBOUND:                -0.108
REMARK  Name = 
REMARK  5 active torsions:
REMARK  status: ('A' for Active; 'I' for Inactive)
REMARK    1  A    between atoms: C_1  and  C_2
REMARK    2  A    between atoms: C_8  and  C_9
REMARK    3  A    between atoms: C_15  and  C_16
REMARK    4  A    between atoms: C_16  and  N_17
REMARK    5  A    between atoms: C_19  and  C_20
REMARK                            x       y       z     vdW  Elec       q    Type
REMARK                         _______ _______ _______ _____ _____    ______ ____
ROOT
ATOM      1  C   UNL     1       1.355   8.633  20.920  0.00  0.00    +0.248 C 
ATOM      2  O   UNL     1       1.716   8.779  22.084  0.00  0.00    -0.270 OA
ATOM      3  N   UNL     1       0.550   9.542  20.259  0.00  0.00    -0.293 N 
ATOM      4  C   UNL     1       0.295   9.596  18.824  0.00  0.00    +0.015 C 
ATOM      5  C   UNL     1      -0.717  10.715  18.657  0.00  0.00    -0.035 C 
ATOM      6  C   UNL     1      -0.358  11.683  19.777  0.00  0.00    -0.031 C 
ATOM      7  C   UNL     1       0.136  10.785  20.920  0.00  0.00    +0.046 C 
ATOM      8  H   UNL     1       1.241   9.834  18.324  0.00  0.00    +0.046 HD
ATOM      9  H   UNL     1      -0.080   8.645  18.441  0.00  0.00    +0.046 HD
ATOM     10  H   UNL     1      -1.731  10.329  18.798  0.00  0.00    +0.028 HD
ATOM     11  H   UNL     1      -0.669  11.178  17.667  0.00  0.00    +0.028 HD
ATOM     12  H   UNL     1      -1.187  12.340  20.056  0.00  0.00    +0.028 HD
ATOM     13  H   UNL     1       0.467  12.324  19.440  0.00  0.00    +0.028 HD
ATOM     14  H   UNL     1       1.033  11.246  21.356  0.00  0.00    +0.052 HD
ENDROOT
BRANCH   1  21
ATOM     15  C   UNL     1       1.903   3.827  20.108  0.00  0.00    +0.042 A 
ATOM     16  N   UNL     1       2.510   3.275  19.005  0.00  0.00    -0.279 N 
ATOM     17  N   UNL     1       2.984   4.168  18.115  0.00  0.00    -0.154 NA
ATOM     18  C   UNL     1       2.668   5.348  18.648  0.00  0.00    +0.181 A 
ATOM     19  N   UNL     1       2.917   6.579  18.127  0.00  0.00    -0.234 NA
ATOM     20  C   UNL     1       2.450   7.575  18.945  0.00  0.00    +0.042 A 
ATOM     21  C   UNL     1       1.806   7.431  20.199  0.00  0.00    +0.056 A 
ATOM     22  C   UNL     1       1.518   6.173  20.749  0.00  0.00    -0.036 A 
ATOM     23  C   UNL     1       1.994   5.182  19.902  0.00  0.00    +0.042 A 
ATOM     24  H   UNL     1       2.635   2.289  18.795  0.00  0.00    +0.189 HD
ATOM     25  H   UNL     1       2.613   8.573  18.539  0.00  0.00    +0.084 HD
ATOM     26  H   UNL     1       0.999   6.026  21.685  0.00  0.00    +0.063 HD
BRANCH  15  27
ATOM     27  C   UNL     1       1.324   3.004  21.192  0.00  0.00    -0.022 C 
ATOM     28  H   UNL     1       0.242   3.154  21.281  0.00  0.00    +0.029 HD
ATOM     29  H   UNL     1       1.502   1.940  21.002  0.00  0.00    +0.029 HD
ATOM     30  H   UNL     1       1.780   3.262  22.154  0.00  0.00    +0.029 HD
ENDBRANCH  15  27
ENDBRANCH   1  21
BRANCH   7  31
ATOM     31  C   UNL     1      -0.869  10.589  22.067  0.00  0.00    +0.062 C 
ATOM     32  H   UNL     1      -0.413  10.013  22.880  0.00  0.00    +0.053 HD
ATOM     33  H   UNL     1      -1.737  10.016  21.722  0.00  0.00    +0.053 HD
BRANCH  31  34
ATOM     34  N   UNL     1      -1.382  11.813  22.635  0.00  0.00    -0.250 N 
ATOM     35  C   UNL     1      -2.631  12.051  23.125  0.00  0.00    +0.049 A 
ATOM     36  C   UNL     1      -2.571  13.360  23.537  0.00  0.00    +0.086 A 
ATOM     37  N   UNL     1      -1.318  13.857  23.312  0.00  0.00    -0.134 NA
ATOM     38  N   UNL     1      -0.586  12.889  22.774  0.00  0.00    -0.065 NA
ATOM     39  H   UNL     1      -3.412  11.306  23.132  0.00  0.00    +0.085 HD
BRANCH  36  40
ATOM     40  C   UNL     1      -3.709  14.196  24.171  0.00  0.00    +0.005 C 
ATOM     41  C   UNL     1      -4.495  15.170  23.333  0.00  0.00    -0.044 C 
ATOM     42  C   UNL     1      -5.147  13.910  23.829  0.00  0.00    -0.044 C 
ATOM     43  H   UNL     1      -3.502  14.492  25.196  0.00  0.00    +0.036 HD
ATOM     44  H   UNL     1      -4.282  15.250  22.275  0.00  0.00    +0.027 HD
ATOM     45  H   UNL     1      -4.785  16.108  23.793  0.00  0.00    +0.027 HD
ATOM     46  H   UNL     1      -5.879  13.995  24.624  0.00  0.00    +0.027 HD
ATOM     47  H   UNL     1      -5.373  13.134  23.107  0.00  0.00    +0.027 HD
ENDBRANCH  36  40
ENDBRANCH  31  34
ENDBRANCH   7  31
TORSDOF 5
ENDMDL
MODEL 17
REMARK VINA RESULT:    -6.446      3.581     10.375
REMARK INTER + INTRA:          -8.250
REMARK INTER:                  -7.817
REMARK INTRA:                  -0.433
REMARK UNBOUND:                -0.108
REMARK  Name = 
REMARK  5 active torsions:
REMARK  status: ('A' for Active; 'I' for Inactive)
REMARK    1  A    between atoms: C_1  and  C_2
REMARK    2  A    between atoms: C_8  and  C_9
REMARK    3  A    between atoms: C_15  and  C_16
REMARK    4  A    between atoms: C_16  and  N_17
REMARK    5  A    between atoms: C_19  and  C_20
REMARK                            x       y       z     vdW  Elec       q    Type
REMARK                         _______ _______ _______ _____ _____    ______ ____
ROOT
ATOM      1  C   UNL     1       3.531   6.543  18.079  0.00  0.00    +0.248 C 
ATOM      2  O   UNL     1       3.046   7.640  17.821  0.00  0.00    -0.270 OA
ATOM      3  N   UNL     1       3.036   5.712  19.067  0.00  0.00    -0.293 N 
ATOM      4  C   UNL     1       3.364   4.304  19.265  0.00  0.00    +0.015 C 
ATOM      5  C   UNL     1       2.621   3.912  20.530  0.00  0.00    -0.035 C 
ATOM      6  C   UNL     1       1.374   4.787  20.489  0.00  0.00    -0.031 C 
ATOM      7  C   UNL     1       1.838   6.090  19.824  0.00  0.00    +0.046 C 
ATOM      8  H   UNL     1       2.994   3.748  18.395  0.00  0.00    +0.046 HD
ATOM      9  H   UNL     1       4.440   4.145  19.358  0.00  0.00    +0.046 HD
ATOM     10  H   UNL     1       3.225   4.152  21.410  0.00  0.00    +0.028 HD
ATOM     11  H   UNL     1       2.387   2.845  20.564  0.00  0.00    +0.028 HD
ATOM     12  H   UNL     1       0.919   4.928  21.474  0.00  0.00    +0.028 HD
ATOM     13  H   UNL     1       0.624   4.303  19.850  0.00  0.00    +0.028 HD
ATOM     14  H   UNL     1       1.070   6.400  19.102  0.00  0.00    +0.052 HD
ENDROOT
BRANCH   1  21
ATOM     15  C   UNL     1       5.868   4.416  14.329  0.00  0.00    +0.042 A 
ATOM     16  N   UNL     1       7.233   4.383  14.162  0.00  0.00    -0.279 N 
ATOM     17  N   UNL     1       7.935   4.987  15.141  0.00  0.00    -0.154 NA
ATOM     18  C   UNL     1       6.999   5.440  15.973  0.00  0.00    +0.181 A 
ATOM     19  N   UNL     1       7.189   6.140  17.123  0.00  0.00    -0.234 NA
ATOM     20  C   UNL     1       5.998   6.447  17.728  0.00  0.00    +0.042 A 
ATOM     21  C   UNL     1       4.694   6.096  17.295  0.00  0.00    +0.056 A 
ATOM     22  C   UNL     1       4.468   5.393  16.103  0.00  0.00    -0.036 A 
ATOM     23  C   UNL     1       5.687   5.099  15.506  0.00  0.00    +0.042 A 
ATOM     24  H   UNL     1       7.754   3.963  13.399  0.00  0.00    +0.189 HD
ATOM     25  H   UNL     1       6.120   7.031  18.640  0.00  0.00    +0.084 HD
ATOM     26  H   UNL     1       3.488   5.139  15.726  0.00  0.00    +0.063 HD
BRANCH  15  27
ATOM     27  C   UNL     1       4.934   3.804  13.358  0.00  0.00    -0.022 C 
ATOM     28  H   UNL     1       3.925   3.709  13.772  0.00  0.00    +0.029 HD
ATOM     29  H   UNL     1       4.871   4.416  12.451  0.00  0.00    +0.029 HD
ATOM     30  H   UNL     1       5.278   2.804  13.074  0.00  0.00    +0.029 HD
ENDBRANCH  15  27
ENDBRANCH   1  21
BRANCH   7  31
ATOM     31  C   UNL     1       2.044   7.269  20.790  0.00  0.00    +0.062 C 
ATOM     32  H   UNL     1       3.054   7.679  20.682  0.00  0.00    +0.053 HD
ATOM     33  H   UNL     1       1.948   6.934  21.830  0.00  0.00    +0.053 HD
BRANCH  31  34
ATOM     34  N   UNL     1       1.110   8.358  20.620  0.00  0.00    -0.250 N 
ATOM     35  C   UNL     1       1.044   9.252  19.594  0.00  0.00    +0.049 A 
ATOM     36  C   UNL     1      -0.020  10.053  19.934  0.00  0.00    +0.086 A 
ATOM     37  N   UNL     1      -0.564   9.620  21.111  0.00  0.00    -0.134 NA
ATOM     38  N   UNL     1       0.127   8.562  21.516  0.00  0.00    -0.065 NA
ATOM     39  H   UNL     1       1.727   9.241  18.759  0.00  0.00    +0.085 HD
BRANCH  36  40
ATOM     40  C   UNL     1      -0.568  11.266  19.146  0.00  0.00    +0.005 C 
ATOM     41  C   UNL     1      -1.662  11.080  18.127  0.00  0.00    -0.044 C 
ATOM     42  C   UNL     1      -1.954  11.789  19.420  0.00  0.00    -0.044 C 
ATOM     43  H   UNL     1       0.194  12.005  18.914  0.00  0.00    +0.036 HD
ATOM     44  H   UNL     1      -2.087  10.095  17.980  0.00  0.00    +0.027 HD
ATOM     45  H   UNL     1      -1.610  11.674  17.221  0.00  0.00    +0.027 HD
ATOM     46  H   UNL     1      -2.100  12.863  19.389  0.00  0.00    +0.027 HD
ATOM     47  H   UNL     1      -2.573  11.284  20.151  0.00  0.00    +0.027 HD
ENDBRANCH  36  40
ENDBRANCH  31  34
ENDBRANCH   7  31
TORSDOF 5
ENDMDL
MODEL 18
REMARK VINA RESULT:    -6.414      2.673      4.101
REMARK INTER + INTRA:          -8.210
REMARK INTER:                  -7.769
REMARK INTRA:                  -0.441
REMARK UNBOUND:                -0.108
REMARK  Name = 
REMARK  5 active torsions:
REMARK  status: ('A' for Active; 'I' for Inactive)
REMARK    1  A    between atoms: C_1  and  C_2
REMARK    2  A    between atoms: C_8  and  C_9
REMARK    3  A    between atoms: C_15  and  C_16
REMARK    4  A    between atoms: C_16  and  N_17
REMARK    5  A    between atoms: C_19  and  C_20
REMARK                            x       y       z     vdW  Elec       q    Type
REMARK                         _______ _______ _______ _____ _____    ______ ____
ROOT
ATOM      1  C   UNL     1       0.635  10.473  19.097  0.00  0.00    +0.248 C 
ATOM      2  O   UNL     1       1.437  10.902  18.273  0.00  0.00    -0.270 OA
ATOM      3  N   UNL     1       0.787   9.258  19.737  0.00  0.00    -0.293 N 
ATOM      4  C   UNL     1       0.050   8.792  20.906  0.00  0.00    +0.015 C 
ATOM      5  C   UNL     1       0.544   7.374  21.131  0.00  0.00    -0.035 C 
ATOM      6  C   UNL     1       1.991   7.427  20.655  0.00  0.00    -0.031 C 
ATOM      7  C   UNL     1       1.980   8.437  19.499  0.00  0.00    +0.046 C 
ATOM      8  H   UNL     1       0.310   9.444  21.748  0.00  0.00    +0.046 HD
ATOM      9  H   UNL     1      -1.030   8.827  20.748  0.00  0.00    +0.046 HD
ATOM     10  H   UNL     1      -0.032   6.673  20.518  0.00  0.00    +0.028 HD
ATOM     11  H   UNL     1       0.454   7.059  22.174  0.00  0.00    +0.028 HD
ATOM     12  H   UNL     1       2.387   6.444  20.383  0.00  0.00    +0.028 HD
ATOM     13  H   UNL     1       2.616   7.817  21.469  0.00  0.00    +0.028 HD
ATOM     14  H   UNL     1       2.859   9.087  19.602  0.00  0.00    +0.052 HD
ENDROOT
BRANCH   1  21
ATOM     15  C   UNL     1      -4.034  11.943  18.785  0.00  0.00    +0.042 A 
ATOM     16  N   UNL     1      -4.602  12.941  19.540  0.00  0.00    -0.279 N 
ATOM     17  N   UNL     1      -3.762  13.537  20.410  0.00  0.00    -0.154 NA
ATOM     18  C   UNL     1      -2.607  12.901  20.226  0.00  0.00    +0.181 A 
ATOM     19  N   UNL     1      -1.434  13.120  20.877  0.00  0.00    -0.234 NA
ATOM     20  C   UNL     1      -0.447  12.278  20.435  0.00  0.00    +0.042 A 
ATOM     21  C   UNL     1      -0.542  11.298  19.415  0.00  0.00    +0.056 A 
ATOM     22  C   UNL     1      -1.744  11.037  18.742  0.00  0.00    -0.036 A 
ATOM     23  C   UNL     1      -2.728  11.897  19.211  0.00  0.00    +0.042 A 
ATOM     24  H   UNL     1      -5.562  13.269  19.513  0.00  0.00    +0.189 HD
ATOM     25  H   UNL     1       0.499  12.415  20.959  0.00  0.00    +0.084 HD
ATOM     26  H   UNL     1      -1.861  10.276  17.984  0.00  0.00    +0.063 HD
BRANCH  15  27
ATOM     27  C   UNL     1      -4.798  11.176  17.777  0.00  0.00    -0.022 C 
ATOM     28  H   UNL     1      -4.168  10.877  16.932  0.00  0.00    +0.029 HD
ATOM     29  H   UNL     1      -5.217  10.268  18.224  0.00  0.00    +0.029 HD
ATOM     30  H   UNL     1      -5.624  11.778  17.385  0.00  0.00    +0.029 HD
ENDBRANCH  15  27
ENDBRANCH   1  21
BRANCH   7  31
ATOM     31  C   UNL     1       2.050   7.811  18.096  0.00  0.00    +0.062 C 
ATOM     32  H   UNL     1       2.469   8.527  17.380  0.00  0.00    +0.053 HD
ATOM     33  H   UNL     1       1.045   7.559  17.738  0.00  0.00    +0.053 HD
BRANCH  31  34
ATOM     34  N   UNL     1       2.833   6.601  18.013  0.00  0.00    -0.250 N 
ATOM     35  C   UNL     1       2.385   5.316  17.941  0.00  0.00    +0.049 A 
ATOM     36  C   UNL     1       3.540   4.576  17.876  0.00  0.00    +0.086 A 
ATOM     37  N   UNL     1       4.623   5.410  17.890  0.00  0.00    -0.134 NA
ATOM     38  N   UNL     1       4.176   6.658  17.953  0.00  0.00    -0.065 NA
ATOM     39  H   UNL     1       1.337   5.057  17.946  0.00  0.00    +0.085 HD
BRANCH  36  40
ATOM     40  C   UNL     1       3.663   3.036  17.794  0.00  0.00    +0.005 C 
ATOM     41  C   UNL     1       3.601   2.200  19.046  0.00  0.00    -0.044 C 
ATOM     42  C   UNL     1       2.467   2.160  18.061  0.00  0.00    -0.044 C 
ATOM     43  H   UNL     1       4.347   2.702  17.019  0.00  0.00    +0.036 HD
ATOM     44  H   UNL     1       3.430   2.685  19.999  0.00  0.00    +0.027 HD
ATOM     45  H   UNL     1       4.254   1.336  19.106  0.00  0.00    +0.027 HD
ATOM     46  H   UNL     1       2.351   1.270  17.455  0.00  0.00    +0.027 HD
ATOM     47  H   UNL     1       1.529   2.622  18.345  0.00  0.00    +0.027 HD
ENDBRANCH  36  40
ENDBRANCH  31  34
ENDBRANCH   7  31
TORSDOF 5
ENDMDL
MODEL 19
REMARK VINA RESULT:    -6.399      3.923      9.278
REMARK INTER + INTRA:          -8.190
REMARK INTER:                  -7.615
REMARK INTRA:                  -0.575
REMARK UNBOUND:                -0.108
REMARK  Name = 
REMARK  5 active torsions:
REMARK  status: ('A' for Active; 'I' for Inactive)
REMARK    1  A    between atoms: C_1  and  C_2
REMARK    2  A    between atoms: C_8  and  C_9
REMARK    3  A    between atoms: C_15  and  C_16
REMARK    4  A    between atoms: C_16  and  N_17
REMARK    5  A    between atoms: C_19  and  C_20
REMARK                            x       y       z     vdW  Elec       q    Type
REMARK                         _______ _______ _______ _____ _____    ______ ____
ROOT
ATOM      1  C   UNL     1       1.989   7.859  18.319  0.00  0.00    +0.248 C 
ATOM      2  O   UNL     1       1.390   8.360  17.372  0.00  0.00    -0.270 OA
ATOM      3  N   UNL     1       1.686   8.141  19.638  0.00  0.00    -0.293 N 
ATOM      4  C   UNL     1       2.146   7.408  20.812  0.00  0.00    +0.015 C 
ATOM      5  C   UNL     1       1.596   8.190  21.992  0.00  0.00    -0.035 C 
ATOM      6  C   UNL     1       0.287   8.757  21.457  0.00  0.00    -0.031 C 
ATOM      7  C   UNL     1       0.562   9.024  19.970  0.00  0.00    +0.046 C 
ATOM      8  H   UNL     1       1.719   6.399  20.767  0.00  0.00    +0.046 HD
ATOM      9  H   UNL     1       3.235   7.332  20.845  0.00  0.00    +0.046 HD
ATOM     10  H   UNL     1       2.282   9.000  22.259  0.00  0.00    +0.028 HD
ATOM     11  H   UNL     1       1.454   7.565  22.878  0.00  0.00    +0.028 HD
ATOM     12  H   UNL     1      -0.054   9.638  22.010  0.00  0.00    +0.028 HD
ATOM     13  H   UNL     1      -0.494   7.991  21.548  0.00  0.00    +0.028 HD
ATOM     14  H   UNL     1      -0.310   8.685  19.394  0.00  0.00    +0.052 HD
ENDROOT
BRANCH   1  21
ATOM     15  C   UNL     1       6.612   6.471  17.455  0.00  0.00    +0.042 A 
ATOM     16  N   UNL     1       7.029   5.173  17.273  0.00  0.00    -0.279 N 
ATOM     17  N   UNL     1       6.047   4.252  17.335  0.00  0.00    -0.154 NA
ATOM     18  C   UNL     1       4.951   4.969  17.576  0.00  0.00    +0.181 A 
ATOM     19  N   UNL     1       3.684   4.505  17.740  0.00  0.00    -0.234 NA
ATOM     20  C   UNL     1       2.800   5.526  17.976  0.00  0.00    +0.042 A 
ATOM     21  C   UNL     1       3.080   6.915  18.030  0.00  0.00    +0.056 A 
ATOM     22  C   UNL     1       4.381   7.419  17.884  0.00  0.00    -0.036 A 
ATOM     23  C   UNL     1       5.257   6.367  17.653  0.00  0.00    +0.042 A 
ATOM     24  H   UNL     1       7.973   4.843  17.101  0.00  0.00    +0.189 HD
ATOM     25  H   UNL     1       1.779   5.180  18.138  0.00  0.00    +0.084 HD
ATOM     26  H   UNL     1       4.635   8.467  17.953  0.00  0.00    +0.063 HD
BRANCH  15  27
ATOM     27  C   UNL     1       7.547   7.617  17.420  0.00  0.00    -0.022 C 
ATOM     28  H   UNL     1       7.643   8.030  16.410  0.00  0.00    +0.029 HD
ATOM     29  H   UNL     1       7.195   8.417  18.080  0.00  0.00    +0.029 HD
ATOM     30  H   UNL     1       8.543   7.309  17.754  0.00  0.00    +0.029 HD
ENDBRANCH  15  27
ENDBRANCH   1  21
BRANCH   7  31
ATOM     31  C   UNL     1       0.789  10.502  19.611  0.00  0.00    +0.062 C 
ATOM     32  H   UNL     1       1.752  10.627  19.105  0.00  0.00    +0.053 HD
ATOM     33  H   UNL     1       0.825  11.115  20.518  0.00  0.00    +0.053 HD
BRANCH  31  34
ATOM     34  N   UNL     1      -0.228  11.079  18.763  0.00  0.00    -0.250 N 
ATOM     35  C   UNL     1      -1.233  10.437  18.105  0.00  0.00    +0.049 A 
ATOM     36  C   UNL     1      -1.898  11.454  17.463  0.00  0.00    +0.086 A 
ATOM     37  N   UNL     1      -1.306  12.649  17.759  0.00  0.00    -0.134 NA
ATOM     38  N   UNL     1      -0.289  12.411  18.578  0.00  0.00    -0.065 NA
ATOM     39  H   UNL     1      -1.376   9.368  18.147  0.00  0.00    +0.085 HD
BRANCH  36  40
ATOM     40  C   UNL     1      -3.134  11.330  16.540  0.00  0.00    +0.005 C 
ATOM     41  C   UNL     1      -2.990  10.773  15.147  0.00  0.00    -0.044 C 
ATOM     42  C   UNL     1      -3.702   9.976  16.204  0.00  0.00    -0.044 C 
ATOM     43  H   UNL     1      -3.847  12.139  16.669  0.00  0.00    +0.036 HD
ATOM     44  H   UNL     1      -2.021  10.424  14.814  0.00  0.00    +0.027 HD
ATOM     45  H   UNL     1      -3.587  11.224  14.362  0.00  0.00    +0.027 HD
ATOM     46  H   UNL     1      -4.780   9.888  16.134  0.00  0.00    +0.027 HD
ATOM     47  H   UNL     1      -3.214   9.089  16.590  0.00  0.00    +0.027 HD
ENDBRANCH  36  40
ENDBRANCH  31  34
ENDBRANCH   7  31
TORSDOF 5
ENDMDL
MODEL 20
REMARK VINA RESULT:    -6.398      3.316      5.678
REMARK INTER + INTRA:          -8.189
REMARK INTER:                  -7.722
REMARK INTRA:                  -0.467
REMARK UNBOUND:                -0.108
REMARK  Name = 
REMARK  5 active torsions:
REMARK  status: ('A' for Active; 'I' for Inactive)
REMARK    1  A    between atoms: C_1  and  C_2
REMARK    2  A    between atoms: C_8  and  C_9
REMARK    3  A    between atoms: C_15  and  C_16
REMARK    4  A    between atoms: C_16  and  N_17
REMARK    5  A    between atoms: C_19  and  C_20
REMARK                            x       y       z     vdW  Elec       q    Type
REMARK                         _______ _______ _______ _____ _____    ______ ____
ROOT
ATOM      1  C   UNL     1       1.995   8.425  18.324  0.00  0.00    +0.248 C 
ATOM      2  O   UNL     1       2.794   8.571  17.403  0.00  0.00    -0.270 OA
ATOM      3  N   UNL     1       2.019   7.340  19.179  0.00  0.00    -0.293 N 
ATOM      4  C   UNL     1       1.302   7.212  20.443  0.00  0.00    +0.015 C 
ATOM      5  C   UNL     1       1.610   5.803  20.917  0.00  0.00    -0.035 C 
ATOM      6  C   UNL     1       3.016   5.553  20.387  0.00  0.00    -0.031 C 
ATOM      7  C   UNL     1       3.069   6.322  19.059  0.00  0.00    +0.046 C 
ATOM      8  H   UNL     1       1.703   7.963  21.134  0.00  0.00    +0.046 HD
ATOM      9  H   UNL     1       0.229   7.377  20.322  0.00  0.00    +0.046 HD
ATOM     10  H   UNL     1       0.903   5.094  20.473  0.00  0.00    +0.028 HD
ATOM     11  H   UNL     1       1.544   5.703  22.004  0.00  0.00    +0.028 HD
ATOM     12  H   UNL     1       3.255   4.489  20.293  0.00  0.00    +0.028 HD
ATOM     13  H   UNL     1       3.740   5.990  21.086  0.00  0.00    +0.028 HD
ATOM     14  H   UNL     1       4.035   6.844  19.003  0.00  0.00    +0.052 HD
ENDROOT
BRANCH   1  21
ATOM     15  C   UNL     1       0.079  12.566  20.123  0.00  0.00    +0.042 A 
ATOM     16  N   UNL     1      -1.161  13.068  19.806  0.00  0.00    -0.279 N 
ATOM     17  N   UNL     1      -1.868  12.318  18.938  0.00  0.00    -0.154 NA
ATOM     18  C   UNL     1      -1.060  11.294  18.668  0.00  0.00    +0.181 A 
ATOM     19  N   UNL     1      -1.302  10.253  17.829  0.00  0.00    -0.234 NA
ATOM     20  C   UNL     1      -0.246   9.380  17.790  0.00  0.00    +0.042 A 
ATOM     21  C   UNL     1       0.966   9.459  18.521  0.00  0.00    +0.056 A 
ATOM     22  C   UNL     1       1.251  10.533  19.378  0.00  0.00    -0.036 A 
ATOM     23  C   UNL     1       0.171  11.405  19.395  0.00  0.00    +0.042 A 
ATOM     24  H   UNL     1      -1.590  13.922  20.147  0.00  0.00    +0.189 HD
ATOM     25  H   UNL     1      -0.403   8.548  17.104  0.00  0.00    +0.084 HD
ATOM     26  H   UNL     1       2.177  10.643  19.923  0.00  0.00    +0.063 HD
BRANCH  15  27
ATOM     27  C   UNL     1       0.997  13.251  21.059  0.00  0.00    -0.022 C 
ATOM     28  H   UNL     1       2.040  13.170  20.734  0.00  0.00    +0.029 HD
ATOM     29  H   UNL     1       0.747  14.315  21.130  0.00  0.00    +0.029 HD
ATOM     30  H   UNL     1       0.921  12.812  22.059  0.00  0.00    +0.029 HD
ENDBRANCH  15  27
ENDBRANCH   1  21
BRANCH   7  31
ATOM     31  C   UNL     1       2.961   5.445  17.800  0.00  0.00    +0.062 C 
ATOM     32  H   UNL     1       2.171   5.821  17.141  0.00  0.00    +0.053 HD
ATOM     33  H   UNL     1       2.686   4.419  18.071  0.00  0.00    +0.053 HD
BRANCH  31  34
ATOM     34  N   UNL     1       4.174   5.355  17.022  0.00  0.00    -0.250 N 
ATOM     35  C   UNL     1       4.534   4.380  16.141  0.00  0.00    +0.049 A 
ATOM     36  C   UNL     1       5.764   4.793  15.689  0.00  0.00    +0.086 A 
ATOM     37  N   UNL     1       6.095   5.981  16.277  0.00  0.00    -0.134 NA
ATOM     38  N   UNL     1       5.099   6.330  17.083  0.00  0.00    -0.065 NA
ATOM     39  H   UNL     1       3.915   3.522  15.927  0.00  0.00    +0.085 HD
BRANCH  36  40
ATOM     40  C   UNL     1       6.679   4.072  14.670  0.00  0.00    +0.005 C 
ATOM     41  C   UNL     1       6.192   3.799  13.271  0.00  0.00    -0.044 C 
ATOM     42  C   UNL     1       7.264   4.825  13.505  0.00  0.00    -0.044 C 
ATOM     43  H   UNL     1       7.307   3.311  15.124  0.00  0.00    +0.036 HD
ATOM     44  H   UNL     1       5.210   4.148  12.974  0.00  0.00    +0.027 HD
ATOM     45  H   UNL     1       6.478   2.858  12.814  0.00  0.00    +0.027 HD
ATOM     46  H   UNL     1       8.277   4.579  13.207  0.00  0.00    +0.027 HD
ATOM     47  H   UNL     1       7.010   5.870  13.371  0.00  0.00    +0.027 HD
ENDBRANCH  36  40
ENDBRANCH  31  34
ENDBRANCH   7  31
TORSDOF 5
ENDMDL
MODEL 21
REMARK VINA RESULT:    -6.386      1.323      1.642
REMARK INTER + INTRA:          -8.174
REMARK INTER:                  -7.985
REMARK INTRA:                  -0.189
REMARK UNBOUND:                -0.108
REMARK  Name = 
REMARK  5 active torsions:
REMARK  status: ('A' for Active; 'I' for Inactive)
REMARK    1  A    between atoms: C_1  and  C_2
REMARK    2  A    between atoms: C_8  and  C_9
REMARK    3  A    between atoms: C_15  and  C_16
REMARK    4  A    between atoms: C_16  and  N_17
REMARK    5  A    between atoms: C_19  and  C_20
REMARK                            x       y       z     vdW  Elec       q    Type
REMARK                         _______ _______ _______ _____ _____    ______ ____
ROOT
ATOM      1  C   UNL     1      -0.689  10.472  21.956  0.00  0.00    +0.248 C 
ATOM      2  O   UNL     1      -0.674   9.439  22.619  0.00  0.00    -0.270 OA
ATOM      3  N   UNL     1      -0.218  10.544  20.659  0.00  0.00    -0.293 N 
ATOM      4  C   UNL     1      -0.436  11.633  19.713  0.00  0.00    +0.015 C 
ATOM      5  C   UNL     1       0.369  11.241  18.486  0.00  0.00    -0.035 C 
ATOM      6  C   UNL     1       0.299   9.719  18.492  0.00  0.00    -0.031 C 
ATOM      7  C   UNL     1       0.273   9.340  19.979  0.00  0.00    +0.046 C 
ATOM      8  H   UNL     1      -1.509  11.674  19.491  0.00  0.00    +0.046 HD
ATOM      9  H   UNL     1      -0.119  12.595  20.119  0.00  0.00    +0.046 HD
ATOM     10  H   UNL     1       1.406  11.575  18.594  0.00  0.00    +0.028 HD
ATOM     11  H   UNL     1      -0.031  11.678  17.567  0.00  0.00    +0.028 HD
ATOM     12  H   UNL     1       1.113   9.252  17.929  0.00  0.00    +0.028 HD
ATOM     13  H   UNL     1      -0.644   9.407  18.024  0.00  0.00    +0.028 HD
ATOM     14  H   UNL     1      -0.476   8.548  20.119  0.00  0.00    +0.052 HD
ENDROOT
BRANCH   1  21
ATOM     15  C   UNL     1      -3.942  13.164  24.451  0.00  0.00    +0.042 A 
ATOM     16  N   UNL     1      -3.785  14.489  24.784  0.00  0.00    -0.279 N 
ATOM     17  N   UNL     1      -2.634  15.044  24.356  0.00  0.00    -0.154 NA
ATOM     18  C   UNL     1      -2.011  14.048  23.730  0.00  0.00    +0.181 A 
ATOM     19  N   UNL     1      -0.794  14.088  23.127  0.00  0.00    -0.234 NA
ATOM     20  C   UNL     1      -0.460  12.875  22.583  0.00  0.00    +0.042 A 
ATOM     21  C   UNL     1      -1.236  11.689  22.579  0.00  0.00    +0.056 A 
ATOM     22  C   UNL     1      -2.485  11.613  23.212  0.00  0.00    -0.036 A 
ATOM     23  C   UNL     1      -2.798  12.850  23.759  0.00  0.00    +0.042 A 
ATOM     24  H   UNL     1      -4.427  15.078  25.305  0.00  0.00    +0.189 HD
ATOM     25  H   UNL     1       0.524  12.872  22.114  0.00  0.00    +0.084 HD
ATOM     26  H   UNL     1      -3.087  10.717  23.258  0.00  0.00    +0.063 HD
BRANCH  15  27
ATOM     27  C   UNL     1      -5.141  12.386  24.833  0.00  0.00    -0.022 C 
ATOM     28  H   UNL     1      -5.352  11.588  24.113  0.00  0.00    +0.029 HD
ATOM     29  H   UNL     1      -5.000  11.924  25.816  0.00  0.00    +0.029 HD
ATOM     30  H   UNL     1      -6.020  13.037  24.883  0.00  0.00    +0.029 HD
ENDBRANCH  15  27
ENDBRANCH   1  21
BRANCH   7  31
ATOM     31  C   UNL     1       1.603   8.798  20.530  0.00  0.00    +0.062 C 
ATOM     32  H   UNL     1       1.652   8.940  21.615  0.00  0.00    +0.053 HD
ATOM     33  H   UNL     1       2.448   9.349  20.101  0.00  0.00    +0.053 HD
BRANCH  31  34
ATOM     34  N   UNL     1       1.842   7.400  20.261  0.00  0.00    -0.250 N 
ATOM     35  C   UNL     1       2.651   6.856  19.309  0.00  0.00    +0.049 A 
ATOM     36  C   UNL     1       2.509   5.503  19.501  0.00  0.00    +0.086 A 
ATOM     37  N   UNL     1       1.659   5.273  20.546  0.00  0.00    -0.134 NA
ATOM     38  N   UNL     1       1.269   6.449  21.022  0.00  0.00    -0.065 NA
ATOM     39  H   UNL     1       3.224   7.451  18.614  0.00  0.00    +0.085 HD
BRANCH  36  40
ATOM     40  C   UNL     1       3.183   4.366  18.695  0.00  0.00    +0.005 C 
ATOM     41  C   UNL     1       2.479   3.749  17.515  0.00  0.00    -0.044 C 
ATOM     42  C   UNL     1       3.687   4.617  17.298  0.00  0.00    -0.044 C 
ATOM     43  H   UNL     1       3.775   3.697  19.314  0.00  0.00    +0.036 HD
ATOM     44  H   UNL     1       1.514   4.136  17.212  0.00  0.00    +0.027 HD
ATOM     45  H   UNL     1       2.587   2.680  17.368  0.00  0.00    +0.027 HD
ATOM     46  H   UNL     1       4.612   4.135  17.005  0.00  0.00    +0.027 HD
ATOM     47  H   UNL     1       3.541   5.593  16.853  0.00  0.00    +0.027 HD
ENDBRANCH  36  40
ENDBRANCH  31  34
ENDBRANCH   7  31
TORSDOF 5
ENDMDL
MODEL 22
REMARK VINA RESULT:    -6.341      2.034      2.576
REMARK INTER + INTRA:          -8.118
REMARK INTER:                  -8.390
REMARK INTRA:                   0.272
REMARK UNBOUND:                -0.108
REMARK  Name = 
REMARK  5 active torsions:
REMARK  status: ('A' for Active; 'I' for Inactive)
REMARK    1  A    between atoms: C_1  and  C_2
REMARK    2  A    between atoms: C_8  and  C_9
REMARK    3  A    between atoms: C_15  and  C_16
REMARK    4  A    between atoms: C_16  and  N_17
REMARK    5  A    between atoms: C_19  and  C_20
REMARK                            x       y       z     vdW  Elec       q    Type
REMARK                         _______ _______ _______ _____ _____    ______ ____
ROOT
ATOM      1  C   UNL     1      -0.238  10.163  21.468  0.00  0.00    +0.248 C 
ATOM      2  O   UNL     1      -0.521   9.143  22.091  0.00  0.00    -0.270 OA
ATOM      3  N   UNL     1       0.471  10.151  20.282  0.00  0.00    -0.293 N 
ATOM      4  C   UNL     1       0.620  11.259  19.345  0.00  0.00    +0.015 C 
ATOM      5  C   UNL     1       1.560  10.733  18.276  0.00  0.00    -0.035 C 
ATOM      6  C   UNL     1       1.235   9.246  18.222  0.00  0.00    -0.031 C 
ATOM      7  C   UNL     1       0.869   8.879  19.667  0.00  0.00    +0.046 C 
ATOM      8  H   UNL     1      -0.370  11.483  18.932  0.00  0.00    +0.046 HD
ATOM      9  H   UNL     1       1.014  12.153  19.832  0.00  0.00    +0.046 HD
ATOM     10  H   UNL     1       2.601  10.884  18.582  0.00  0.00    +0.028 HD
ATOM     11  H   UNL     1       1.419  11.231  17.312  0.00  0.00    +0.028 HD
ATOM     12  H   UNL     1       2.048   8.645  17.804  0.00  0.00    +0.028 HD
ATOM     13  H   UNL     1       0.357   9.099  17.580  0.00  0.00    +0.028 HD
ATOM     14  H   UNL     1      -0.015   8.228  19.644  0.00  0.00    +0.052 HD
ENDROOT
BRANCH   1  21
ATOM     15  C   UNL     1      -3.112  13.216  24.012  0.00  0.00    +0.042 A 
ATOM     16  N   UNL     1      -2.883  14.560  24.185  0.00  0.00    -0.279 N 
ATOM     17  N   UNL     1      -1.775  15.025  23.576  0.00  0.00    -0.154 NA
ATOM     18  C   UNL     1      -1.254  13.947  22.992  0.00  0.00    +0.181 A 
ATOM     19  N   UNL     1      -0.113  13.880  22.256  0.00  0.00    -0.234 NA
ATOM     20  C   UNL     1       0.124  12.606  21.809  0.00  0.00    +0.042 A 
ATOM     21  C   UNL     1      -0.678  11.456  22.016  0.00  0.00    +0.056 A 
ATOM     22  C   UNL     1      -1.848  11.493  22.789  0.00  0.00    -0.036 A 
ATOM     23  C   UNL     1      -2.063  12.790  23.234  0.00  0.00    +0.042 A 
ATOM     24  H   UNL     1      -3.445  15.223  24.709  0.00  0.00    +0.189 HD
ATOM     25  H   UNL     1       1.047  12.518  21.237  0.00  0.00    +0.084 HD
ATOM     26  H   UNL     1      -2.465  10.630  22.995  0.00  0.00    +0.063 HD
BRANCH  15  27
ATOM     27  C   UNL     1      -4.280  12.526  24.605  0.00  0.00    -0.022 C 
ATOM     28  H   UNL     1      -4.143  12.348  25.677  0.00  0.00    +0.029 HD
ATOM     29  H   UNL     1      -5.185  13.129  24.476  0.00  0.00    +0.029 HD
ATOM     30  H   UNL     1      -4.439  11.558  24.120  0.00  0.00    +0.029 HD
ENDBRANCH  15  27
ENDBRANCH   1  21
BRANCH   7  31
ATOM     31  C   UNL     1       1.963   8.118  20.436  0.00  0.00    +0.062 C 
ATOM     32  H   UNL     1       1.747   8.123  21.510  0.00  0.00    +0.053 HD
ATOM     33  H   UNL     1       2.934   8.608  20.306  0.00  0.00    +0.053 HD
BRANCH  31  34
ATOM     34  N   UNL     1       2.137   6.743  20.032  0.00  0.00    -0.250 N 
ATOM     35  C   UNL     1       1.486   5.642  20.502  0.00  0.00    +0.049 A 
ATOM     36  C   UNL     1       2.031   4.611  19.776  0.00  0.00    +0.086 A 
ATOM     37  N   UNL     1       2.955   5.104  18.899  0.00  0.00    -0.134 NA
ATOM     38  N   UNL     1       2.999   6.422  19.050  0.00  0.00    -0.065 NA
ATOM     39  H   UNL     1       0.733   5.689  21.274  0.00  0.00    +0.085 HD
BRANCH  36  40
ATOM     40  C   UNL     1       1.690   3.105  19.885  0.00  0.00    +0.005 C 
ATOM     41  C   UNL     1       0.750   2.465  18.897  0.00  0.00    -0.044 C 
ATOM     42  C   UNL     1       2.214   2.130  18.865  0.00  0.00    -0.044 C 
ATOM     43  H   UNL     1       1.632   2.753  20.911  0.00  0.00    +0.036 HD
ATOM     44  H   UNL     1       0.347   3.061  18.087  0.00  0.00    +0.027 HD
ATOM     45  H   UNL     1       0.063   1.714  19.271  0.00  0.00    +0.027 HD
ATOM     46  H   UNL     1       2.519   1.151  19.217  0.00  0.00    +0.027 HD
ATOM     47  H   UNL     1       2.805   2.500  18.036  0.00  0.00    +0.027 HD
ENDBRANCH  36  40
ENDBRANCH  31  34
ENDBRANCH   7  31
TORSDOF 5
ENDMDL
MODEL 23
REMARK VINA RESULT:    -6.300      3.443      5.885
REMARK INTER + INTRA:          -8.066
REMARK INTER:                  -8.541
REMARK INTRA:                   0.475
REMARK UNBOUND:                -0.108
REMARK  Name = 
REMARK  5 active torsions:
REMARK  status: ('A' for Active; 'I' for Inactive)
REMARK    1  A    between atoms: C_1  and  C_2
REMARK    2  A    between atoms: C_8  and  C_9
REMARK    3  A    between atoms: C_15  and  C_16
REMARK    4  A    between atoms: C_16  and  N_17
REMARK    5  A    between atoms: C_19  and  C_20
REMARK                            x       y       z     vdW  Elec       q    Type
REMARK                         _______ _______ _______ _____ _____    ______ ____
ROOT
ATOM      1  C   UNL     1       2.452   6.960  19.666  0.00  0.00    +0.248 C 
ATOM      2  O   UNL     1       3.517   7.278  19.145  0.00  0.00    -0.270 OA
ATOM      3  N   UNL     1       2.015   5.651  19.752  0.00  0.00    -0.293 N 
ATOM      4  C   UNL     1       0.919   5.152  20.574  0.00  0.00    +0.015 C 
ATOM      5  C   UNL     1       0.815   3.679  20.220  0.00  0.00    -0.035 C 
ATOM      6  C   UNL     1       2.253   3.292  19.900  0.00  0.00    -0.031 C 
ATOM      7  C   UNL     1       2.861   4.552  19.269  0.00  0.00    +0.046 C 
ATOM      8  H   UNL     1       1.197   5.292  21.625  0.00  0.00    +0.046 HD
ATOM      9  H   UNL     1      -0.013   5.685  20.378  0.00  0.00    +0.046 HD
ATOM     10  H   UNL     1       0.180   3.548  19.337  0.00  0.00    +0.028 HD
ATOM     11  H   UNL     1       0.387   3.083  21.031  0.00  0.00    +0.028 HD
ATOM     12  H   UNL     1       2.326   2.400  19.270  0.00  0.00    +0.028 HD
ATOM     13  H   UNL     1       2.777   3.071  20.840  0.00  0.00    +0.028 HD
ATOM     14  H   UNL     1       3.866   4.696  19.687  0.00  0.00    +0.052 HD
ENDROOT
BRANCH   1  21
ATOM     15  C   UNL     1      -0.756  10.667  19.548  0.00  0.00    +0.042 A 
ATOM     16  N   UNL     1      -1.252  11.320  20.651  0.00  0.00    -0.279 N 
ATOM     17  N   UNL     1      -0.778  10.874  21.831  0.00  0.00    -0.154 NA
ATOM     18  C   UNL     1       0.050   9.888  21.491  0.00  0.00    +0.181 A 
ATOM     19  N   UNL     1       0.779   9.100  22.325  0.00  0.00    -0.234 NA
ATOM     20  C   UNL     1       1.523   8.183  21.630  0.00  0.00    +0.042 A 
ATOM     21  C   UNL     1       1.605   8.026  20.223  0.00  0.00    +0.056 A 
ATOM     22  C   UNL     1       0.849   8.812  19.340  0.00  0.00    -0.036 A 
ATOM     23  C   UNL     1       0.100   9.727  20.067  0.00  0.00    +0.042 A 
ATOM     24  H   UNL     1      -1.922  12.083  20.671  0.00  0.00    +0.189 HD
ATOM     25  H   UNL     1       2.098   7.520  22.276  0.00  0.00    +0.084 HD
ATOM     26  H   UNL     1       0.861   8.697  18.266  0.00  0.00    +0.063 HD
BRANCH  15  27
ATOM     27  C   UNL     1      -1.160  11.018  18.169  0.00  0.00    -0.022 C 
ATOM     28  H   UNL     1      -0.551  10.495  17.423  0.00  0.00    +0.029 HD
ATOM     29  H   UNL     1      -2.208  10.749  17.997  0.00  0.00    +0.029 HD
ATOM     30  H   UNL     1      -1.050  12.094  18.000  0.00  0.00    +0.029 HD
ENDBRANCH  15  27
ENDBRANCH   1  21
BRANCH   7  31
ATOM     31  C   UNL     1       3.017   4.497  17.740  0.00  0.00    +0.062 C 
ATOM     32  H   UNL     1       2.271   5.138  17.257  0.00  0.00    +0.053 HD
ATOM     33  H   UNL     1       2.843   3.479  17.374  0.00  0.00    +0.053 HD
BRANCH  31  34
ATOM     34  N   UNL     1       4.316   4.895  17.252  0.00  0.00    -0.250 N 
ATOM     35  C   UNL     1       5.247   5.667  17.880  0.00  0.00    +0.049 A 
ATOM     36  C   UNL     1       6.281   5.722  16.978  0.00  0.00    +0.086 A 
ATOM     37  N   UNL     1       5.966   4.985  15.871  0.00  0.00    -0.134 NA
ATOM     38  N   UNL     1       4.761   4.462  16.058  0.00  0.00    -0.065 NA
ATOM     39  H   UNL     1       5.095   6.091  18.861  0.00  0.00    +0.085 HD
BRANCH  36  40
ATOM     40  C   UNL     1       7.623   6.477  17.135  0.00  0.00    +0.005 C 
ATOM     41  C   UNL     1       7.634   7.948  17.461  0.00  0.00    -0.044 C 
ATOM     42  C   UNL     1       8.078   6.948  18.491  0.00  0.00    -0.044 C 
ATOM     43  H   UNL     1       8.395   6.122  16.458  0.00  0.00    +0.036 HD
ATOM     44  H   UNL     1       6.695   8.461  17.623  0.00  0.00    +0.027 HD
ATOM     45  H   UNL     1       8.392   8.561  16.987  0.00  0.00    +0.027 HD
ATOM     46  H   UNL     1       9.137   6.885  18.715  0.00  0.00    +0.027 HD
ATOM     47  H   UNL     1       7.439   6.781  19.350  0.00  0.00    +0.027 HD
ENDBRANCH  36  40
ENDBRANCH  31  34
ENDBRANCH   7  31
TORSDOF 5
ENDMDL
MODEL 24
REMARK VINA RESULT:    -6.111      2.307      3.709
REMARK INTER + INTRA:          -7.827
REMARK INTER:                  -7.497
REMARK INTRA:                  -0.330
REMARK UNBOUND:                -0.108
REMARK  Name = 
REMARK  5 active torsions:
REMARK  status: ('A' for Active; 'I' for Inactive)
REMARK    1  A    between atoms: C_1  and  C_2
REMARK    2  A    between atoms: C_8  and  C_9
REMARK    3  A    between atoms: C_15  and  C_16
REMARK    4  A    between atoms: C_16  and  N_17
REMARK    5  A    between atoms: C_19  and  C_20
REMARK                            x       y       z     vdW  Elec       q    Type
REMARK                         _______ _______ _______ _____ _____    ______ ____
ROOT
ATOM      1  C   UNL     1       0.551  10.475  19.338  0.00  0.00    +0.248 C 
ATOM      2  O   UNL     1       1.312  10.977  18.516  0.00  0.00    -0.270 OA
ATOM      3  N   UNL     1       0.760   9.229  19.899  0.00  0.00    -0.293 N 
ATOM      4  C   UNL     1       0.077   8.671  21.061  0.00  0.00    +0.015 C 
ATOM      5  C   UNL     1       0.621   7.259  21.184  0.00  0.00    -0.035 C 
ATOM      6  C   UNL     1       2.048   7.386  20.667  0.00  0.00    -0.031 C 
ATOM      7  C   UNL     1       1.969   8.461  19.575  0.00  0.00    +0.046 C 
ATOM      8  H   UNL     1       0.345   9.280  21.932  0.00  0.00    +0.046 HD
ATOM      9  H   UNL     1      -1.008   8.682  20.939  0.00  0.00    +0.046 HD
ATOM     10  H   UNL     1       0.045   6.578  20.548  0.00  0.00    +0.028 HD
ATOM     11  H   UNL     1       0.575   6.881  22.209  0.00  0.00    +0.028 HD
ATOM     12  H   UNL     1       2.465   6.434  20.323  0.00  0.00    +0.028 HD
ATOM     13  H   UNL     1       2.688   7.747  21.483  0.00  0.00    +0.028 HD
ATOM     14  H   UNL     1       2.831   9.132  19.689  0.00  0.00    +0.052 HD
ENDROOT
BRANCH   1  21
ATOM     15  C   UNL     1      -2.120  13.454  22.174  0.00  0.00    +0.042 A 
ATOM     16  N   UNL     1      -3.395  13.883  21.892  0.00  0.00    -0.279 N 
ATOM     17  N   UNL     1      -3.908  13.408  20.740  0.00  0.00    -0.154 NA
ATOM     18  C   UNL     1      -2.931  12.649  20.244  0.00  0.00    +0.181 A 
ATOM     19  N   UNL     1      -2.943  11.950  19.078  0.00  0.00    -0.234 NA
ATOM     20  C   UNL     1      -1.764  11.280  18.881  0.00  0.00    +0.042 A 
ATOM     21  C   UNL     1      -0.638  11.242  19.742  0.00  0.00    +0.056 A 
ATOM     22  C   UNL     1      -0.591  11.970  20.940  0.00  0.00    -0.036 A 
ATOM     23  C   UNL     1      -1.793  12.644  21.114  0.00  0.00    +0.042 A 
ATOM     24  H   UNL     1      -3.978  14.504  22.445  0.00  0.00    +0.189 HD
ATOM     25  H   UNL     1      -1.736  10.731  17.940  0.00  0.00    +0.084 HD
ATOM     26  H   UNL     1       0.262  11.991  21.602  0.00  0.00    +0.063 HD
BRANCH  15  27
ATOM     27  C   UNL     1      -1.394  13.869  23.394  0.00  0.00    -0.022 C 
ATOM     28  H   UNL     1      -0.437  14.344  23.154  0.00  0.00    +0.029 HD
ATOM     29  H   UNL     1      -1.991  14.586  23.969  0.00  0.00    +0.029 HD
ATOM     30  H   UNL     1      -1.190  13.003  24.031  0.00  0.00    +0.029 HD
ENDBRANCH  15  27
ENDBRANCH   1  21
BRANCH   7  31
ATOM     31  C   UNL     1       2.010   7.923  18.134  0.00  0.00    +0.062 C 
ATOM     32  H   UNL     1       2.421   8.679  17.456  0.00  0.00    +0.053 HD
ATOM     33  H   UNL     1       0.998   7.697  17.781  0.00  0.00    +0.053 HD
BRANCH  31  34
ATOM     34  N   UNL     1       2.786   6.717  17.964  0.00  0.00    -0.250 N 
ATOM     35  C   UNL     1       2.337   5.431  17.920  0.00  0.00    +0.049 A 
ATOM     36  C   UNL     1       3.483   4.696  17.738  0.00  0.00    +0.086 A 
ATOM     37  N   UNL     1       4.560   5.535  17.658  0.00  0.00    -0.134 NA
ATOM     38  N   UNL     1       4.117   6.780  17.778  0.00  0.00    -0.065 NA
ATOM     39  H   UNL     1       1.295   5.168  18.022  0.00  0.00    +0.085 HD
BRANCH  36  40
ATOM     40  C   UNL     1       3.603   3.157  17.627  0.00  0.00    +0.005 C 
ATOM     41  C   UNL     1       3.646   2.306  18.869  0.00  0.00    -0.044 C 
ATOM     42  C   UNL     1       2.435   2.275  17.981  0.00  0.00    -0.044 C 
ATOM     43  H   UNL     1       4.221   2.836  16.794  0.00  0.00    +0.036 HD
ATOM     44  H   UNL     1       3.553   2.779  19.839  0.00  0.00    +0.027 HD
ATOM     45  H   UNL     1       4.304   1.444  18.864  0.00  0.00    +0.027 HD
ATOM     46  H   UNL     1       2.272   1.391  17.374  0.00  0.00    +0.027 HD
ATOM     47  H   UNL     1       1.522   2.730  18.346  0.00  0.00    +0.027 HD
ENDBRANCH  36  40
ENDBRANCH  31  34
ENDBRANCH   7  31
TORSDOF 5
ENDMDL
MODEL 25
REMARK VINA RESULT:    -6.077      2.888      4.728
REMARK INTER + INTRA:          -7.784
REMARK INTER:                  -7.511
REMARK INTRA:                  -0.273
REMARK UNBOUND:                -0.108
REMARK  Name = 
REMARK  5 active torsions:
REMARK  status: ('A' for Active; 'I' for Inactive)
REMARK    1  A    between atoms: C_1  and  C_2
REMARK    2  A    between atoms: C_8  and  C_9
REMARK    3  A    between atoms: C_15  and  C_16
REMARK    4  A    between atoms: C_16  and  N_17
REMARK    5  A    between atoms: C_19  and  C_20
REMARK                            x       y       z     vdW  Elec       q    Type
REMARK                         _______ _______ _______ _____ _____    ______ ____
ROOT
ATOM      1  C   UNL     1      -0.307  12.469  21.484  0.00  0.00    +0.248 C 
ATOM      2  O   UNL     1       0.466  13.219  20.895  0.00  0.00    -0.270 OA
ATOM      3  N   UNL     1      -0.124  11.101  21.554  0.00  0.00    -0.293 N 
ATOM      4  C   UNL     1      -0.821  10.174  22.440  0.00  0.00    +0.015 C 
ATOM      5  C   UNL     1      -0.306   8.802  22.039  0.00  0.00    -0.035 C 
ATOM      6  C   UNL     1       1.124   9.080  21.594  0.00  0.00    -0.031 C 
ATOM      7  C   UNL     1       1.068  10.479  20.966  0.00  0.00    +0.046 C 
ATOM      8  H   UNL     1      -0.541  10.421  23.470  0.00  0.00    +0.046 HD
ATOM      9  H   UNL     1      -1.905  10.249  22.337  0.00  0.00    +0.046 HD
ATOM     10  H   UNL     1      -0.895   8.409  21.204  0.00  0.00    +0.028 HD
ATOM     11  H   UNL     1      -0.362   8.080  22.858  0.00  0.00    +0.028 HD
ATOM     12  H   UNL     1       1.521   8.309  20.927  0.00  0.00    +0.028 HD
ATOM     13  H   UNL     1       1.771   9.108  22.481  0.00  0.00    +0.028 HD
ATOM     14  H   UNL     1       1.944  11.046  21.310  0.00  0.00    +0.052 HD
ENDROOT
BRANCH   1  21
ATOM     15  C   UNL     1      -2.742  14.879  24.994  0.00  0.00    +0.042 A 
ATOM     16  N   UNL     1      -4.082  15.185  24.960  0.00  0.00    -0.279 N 
ATOM     17  N   UNL     1      -4.731  14.756  23.861  0.00  0.00    -0.154 NA
ATOM     18  C   UNL     1      -3.782  14.156  23.143  0.00  0.00    +0.181 A 
ATOM     19  N   UNL     1      -3.921  13.562  21.928  0.00  0.00    -0.234 NA
ATOM     20  C   UNL     1      -2.732  13.047  21.480  0.00  0.00    +0.042 A 
ATOM     21  C   UNL     1      -1.481  13.061  22.146  0.00  0.00    +0.056 A 
ATOM     22  C   UNL     1      -1.305  13.685  23.390  0.00  0.00    -0.036 A 
ATOM     23  C   UNL     1      -2.519  14.204  23.818  0.00  0.00    +0.042 A 
ATOM     24  H   UNL     1      -4.620  15.688  25.659  0.00  0.00    +0.189 HD
ATOM     25  H   UNL     1      -2.809  12.587  20.496  0.00  0.00    +0.084 HD
ATOM     26  H   UNL     1      -0.359  13.745  23.909  0.00  0.00    +0.063 HD
BRANCH  15  27
ATOM     27  C   UNL     1      -1.866  15.267  26.121  0.00  0.00    -0.022 C 
ATOM     28  H   UNL     1      -2.064  16.292  26.453  0.00  0.00    +0.029 HD
ATOM     29  H   UNL     1      -2.024  14.599  26.975  0.00  0.00    +0.029 HD
ATOM     30  H   UNL     1      -0.814  15.206  25.826  0.00  0.00    +0.029 HD
ENDBRANCH  15  27
ENDBRANCH   1  21
BRANCH   7  31
ATOM     31  C   UNL     1       1.100  10.498  19.429  0.00  0.00    +0.062 C 
ATOM     32  H   UNL     1       1.465   9.539  19.043  0.00  0.00    +0.053 HD
ATOM     33  H   UNL     1       1.794  11.267  19.069  0.00  0.00    +0.053 HD
BRANCH  31  34
ATOM     34  N   UNL     1      -0.173  10.764  18.802  0.00  0.00    -0.250 N 
ATOM     35  C   UNL     1      -1.245   9.930  18.695  0.00  0.00    +0.049 A 
ATOM     36  C   UNL     1      -2.174  10.686  18.022  0.00  0.00    +0.086 A 
ATOM     37  N   UNL     1      -1.661  11.926  17.767  0.00  0.00    -0.134 NA
ATOM     38  N   UNL     1      -0.434  11.973  18.270  0.00  0.00    -0.065 NA
ATOM     39  H   UNL     1      -1.248   8.923  19.084  0.00  0.00    +0.085 HD
BRANCH  36  40
ATOM     40  C   UNL     1      -3.599  10.257  17.596  0.00  0.00    +0.005 C 
ATOM     41  C   UNL     1      -4.806  10.939  18.184  0.00  0.00    -0.044 C 
ATOM     42  C   UNL     1      -4.444  11.166  16.743  0.00  0.00    -0.044 C 
ATOM     43  H   UNL     1      -3.686   9.191  17.406  0.00  0.00    +0.036 HD
ATOM     44  H   UNL     1      -4.666  11.758  18.878  0.00  0.00    +0.027 HD
ATOM     45  H   UNL     1      -5.674  10.326  18.401  0.00  0.00    +0.027 HD
ATOM     46  H   UNL     1      -5.067  10.706  15.985  0.00  0.00    +0.027 HD
ATOM     47  H   UNL     1      -4.056  12.137  16.461  0.00  0.00    +0.027 HD
ENDBRANCH  36  40
ENDBRANCH  31  34
ENDBRANCH   7  31
TORSDOF 5
ENDMDL
MODEL 26
REMARK VINA RESULT:    -6.075      4.437      7.249
REMARK INTER + INTRA:          -7.781
REMARK INTER:                  -8.084
REMARK INTRA:                   0.303
REMARK UNBOUND:                -0.108
REMARK  Name = 
REMARK  5 active torsions:
REMARK  status: ('A' for Active; 'I' for Inactive)
REMARK    1  A    between atoms: C_1  and  C_2
REMARK    2  A    between atoms: C_8  and  C_9
REMARK    3  A    between atoms: C_15  and  C_16
REMARK    4  A    between atoms: C_16  and  N_17
REMARK    5  A    between atoms: C_19  and  C_20
REMARK                            x       y       z     vdW  Elec       q    Type
REMARK                         _______ _______ _______ _____ _____    ______ ____
ROOT
ATOM      1  C   UNL     1       2.900   6.055  17.692  0.00  0.00    +0.248 C 
ATOM      2  O   UNL     1       2.113   5.312  17.114  0.00  0.00    -0.270 OA
ATOM      3  N   UNL     1       4.252   6.092  17.407  0.00  0.00    -0.293 N 
ATOM      4  C   UNL     1       5.205   7.109  17.837  0.00  0.00    +0.015 C 
ATOM      5  C   UNL     1       6.548   6.616  17.327  0.00  0.00    -0.035 C 
ATOM      6  C   UNL     1       6.187   5.877  16.045  0.00  0.00    -0.031 C 
ATOM      7  C   UNL     1       4.806   5.268  16.326  0.00  0.00    +0.046 C 
ATOM      8  H   UNL     1       4.921   8.056  17.363  0.00  0.00    +0.046 HD
ATOM      9  H   UNL     1       5.202   7.238  18.921  0.00  0.00    +0.046 HD
ATOM     10  H   UNL     1       6.995   5.927  18.051  0.00  0.00    +0.028 HD
ATOM     11  H   UNL     1       7.257   7.431  17.160  0.00  0.00    +0.028 HD
ATOM     12  H   UNL     1       6.943   5.144  15.747  0.00  0.00    +0.028 HD
ATOM     13  H   UNL     1       6.100   6.607  15.229  0.00  0.00    +0.028 HD
ATOM     14  H   UNL     1       4.177   5.416  15.438  0.00  0.00    +0.052 HD
ENDROOT
BRANCH   1  21
ATOM     15  C   UNL     1       1.084  10.217  19.545  0.00  0.00    +0.042 A 
ATOM     16  N   UNL     1       0.684  10.396  20.848  0.00  0.00    -0.279 N 
ATOM     17  N   UNL     1       0.836   9.314  21.637  0.00  0.00    -0.154 NA
ATOM     18  C   UNL     1       1.343   8.392  20.822  0.00  0.00    +0.181 A 
ATOM     19  N   UNL     1       1.668   7.109  21.131  0.00  0.00    -0.234 NA
ATOM     20  C   UNL     1       2.165   6.438  20.044  0.00  0.00    +0.042 A 
ATOM     21  C   UNL     1       2.373   6.948  18.737  0.00  0.00    +0.056 A 
ATOM     22  C   UNL     1       2.027   8.261  18.385  0.00  0.00    -0.036 A 
ATOM     23  C   UNL     1       1.522   8.916  19.500  0.00  0.00    +0.042 A 
ATOM     24  H   UNL     1       0.296  11.235  21.268  0.00  0.00    +0.189 HD
ATOM     25  H   UNL     1       2.410   5.398  20.258  0.00  0.00    +0.084 HD
ATOM     26  H   UNL     1       2.141   8.671  17.393  0.00  0.00    +0.063 HD
BRANCH  15  27
ATOM     27  C   UNL     1       0.995  11.292  18.532  0.00  0.00    -0.022 C 
ATOM     28  H   UNL     1       0.196  11.100  17.808  0.00  0.00    +0.029 HD
ATOM     29  H   UNL     1       0.790  12.254  19.013  0.00  0.00    +0.029 HD
ATOM     30  H   UNL     1       1.937  11.377  17.981  0.00  0.00    +0.029 HD
ENDBRANCH  15  27
ENDBRANCH   1  21
BRANCH   7  31
ATOM     31  C   UNL     1       4.815   3.758  16.621  0.00  0.00    +0.062 C 
ATOM     32  H   UNL     1       5.825   3.351  16.496  0.00  0.00    +0.053 HD
ATOM     33  H   UNL     1       4.170   3.226  15.912  0.00  0.00    +0.053 HD
BRANCH  31  34
ATOM     34  N   UNL     1       4.360   3.399  17.943  0.00  0.00    -0.250 N 
ATOM     35  C   UNL     1       3.150   2.886  18.302  0.00  0.00    +0.049 A 
ATOM     36  C   UNL     1       3.257   2.731  19.662  0.00  0.00    +0.086 A 
ATOM     37  N   UNL     1       4.500   3.122  20.074  0.00  0.00    -0.134 NA
ATOM     38  N   UNL     1       5.180   3.514  19.003  0.00  0.00    -0.065 NA
ATOM     39  H   UNL     1       2.359   2.691  17.593  0.00  0.00    +0.085 HD
BRANCH  36  40
ATOM     40  C   UNL     1       2.177   2.195  20.633  0.00  0.00    +0.005 C 
ATOM     41  C   UNL     1       1.869   2.932  21.910  0.00  0.00    -0.044 C 
ATOM     42  C   UNL     1       0.867   2.921  20.790  0.00  0.00    -0.044 C 
ATOM     43  H   UNL     1       2.142   1.111  20.676  0.00  0.00    +0.036 HD
ATOM     44  H   UNL     1       2.383   3.862  22.122  0.00  0.00    +0.027 HD
ATOM     45  H   UNL     1       1.654   2.340  22.793  0.00  0.00    +0.027 HD
ATOM     46  H   UNL     1      -0.027   2.320  20.915  0.00  0.00    +0.027 HD
ATOM     47  H   UNL     1       0.704   3.840  20.241  0.00  0.00    +0.027 HD
ENDBRANCH  36  40
ENDBRANCH  31  34
ENDBRANCH   7  31
TORSDOF 5
ENDMDL
MODEL 27
REMARK VINA RESULT:    -6.059      3.569      5.400
REMARK INTER + INTRA:          -7.761
REMARK INTER:                  -8.076
REMARK INTRA:                   0.315
REMARK UNBOUND:                -0.108
REMARK  Name = 
REMARK  5 active torsions:
REMARK  status: ('A' for Active; 'I' for Inactive)
REMARK    1  A    between atoms: C_1  and  C_2
REMARK    2  A    between atoms: C_8  and  C_9
REMARK    3  A    between atoms: C_15  and  C_16
REMARK    4  A    between atoms: C_16  and  N_17
REMARK    5  A    between atoms: C_19  and  C_20
REMARK                            x       y       z     vdW  Elec       q    Type
REMARK                         _______ _______ _______ _____ _____    ______ ____
ROOT
ATOM      1  C   UNL     1       0.254  10.172  18.521  0.00  0.00    +0.248 C 
ATOM      2  O   UNL     1       1.162  10.573  17.798  0.00  0.00    -0.270 OA
ATOM      3  N   UNL     1       0.445   9.249  19.531  0.00  0.00    -0.293 N 
ATOM      4  C   UNL     1      -0.493   8.920  20.599  0.00  0.00    +0.015 C 
ATOM      5  C   UNL     1       0.177   7.793  21.364  0.00  0.00    -0.035 C 
ATOM      6  C   UNL     1       1.661   8.107  21.223  0.00  0.00    -0.031 C 
ATOM      7  C   UNL     1       1.790   8.744  19.832  0.00  0.00    +0.046 C 
ATOM      8  H   UNL     1      -0.615   9.812  21.224  0.00  0.00    +0.046 HD
ATOM      9  H   UNL     1      -1.468   8.623  20.207  0.00  0.00    +0.046 HD
ATOM     10  H   UNL     1      -0.054   6.831  20.897  0.00  0.00    +0.028 HD
ATOM     11  H   UNL     1      -0.147   7.746  22.408  0.00  0.00    +0.028 HD
ATOM     12  H   UNL     1       2.300   7.230  21.370  0.00  0.00    +0.028 HD
ATOM     13  H   UNL     1       1.940   8.846  21.985  0.00  0.00    +0.028 HD
ATOM     14  H   UNL     1       2.462   9.610  19.911  0.00  0.00    +0.052 HD
ENDROOT
BRANCH   1  21
ATOM     15  C   UNL     1      -3.961  10.845  16.106  0.00  0.00    +0.042 A 
ATOM     16  N   UNL     1      -5.034  11.567  16.572  0.00  0.00    -0.279 N 
ATOM     17  N   UNL     1      -4.855  12.122  17.787  0.00  0.00    -0.154 NA
ATOM     18  C   UNL     1      -3.627  11.742  18.134  0.00  0.00    +0.181 A 
ATOM     19  N   UNL     1      -2.972  12.032  19.289  0.00  0.00    -0.234 NA
ATOM     20  C   UNL     1      -1.720  11.474  19.312  0.00  0.00    +0.042 A 
ATOM     21  C   UNL     1      -1.099  10.705  18.296  0.00  0.00    +0.056 A 
ATOM     22  C   UNL     1      -1.760  10.374  17.104  0.00  0.00    -0.036 A 
ATOM     23  C   UNL     1      -3.025  10.944  17.107  0.00  0.00    +0.042 A 
ATOM     24  H   UNL     1      -5.925  11.723  16.110  0.00  0.00    +0.189 HD
ATOM     25  H   UNL     1      -1.181  11.669  20.239  0.00  0.00    +0.084 HD
ATOM     26  H   UNL     1      -1.330   9.763  16.323  0.00  0.00    +0.063 HD
BRANCH  15  27
ATOM     27  C   UNL     1      -3.972  10.164  14.792  0.00  0.00    -0.022 C 
ATOM     28  H   UNL     1      -3.310  10.661  14.074  0.00  0.00    +0.029 HD
ATOM     29  H   UNL     1      -3.638   9.126  14.897  0.00  0.00    +0.029 HD
ATOM     30  H   UNL     1      -4.983  10.160  14.372  0.00  0.00    +0.029 HD
ENDBRANCH  15  27
ENDBRANCH   1  21
BRANCH   7  31
ATOM     31  C   UNL     1       2.378   7.821  18.752  0.00  0.00    +0.062 C 
ATOM     32  H   UNL     1       3.249   8.290  18.282  0.00  0.00    +0.053 HD
ATOM     33  H   UNL     1       1.644   7.648  17.955  0.00  0.00    +0.053 HD
BRANCH  31  34
ATOM     34  N   UNL     1       2.786   6.520  19.227  0.00  0.00    -0.250 N 
ATOM     35  C   UNL     1       1.993   5.466  19.569  0.00  0.00    +0.049 A 
ATOM     36  C   UNL     1       2.890   4.495  19.940  0.00  0.00    +0.086 A 
ATOM     37  N   UNL     1       4.165   4.967  19.797  0.00  0.00    -0.134 NA
ATOM     38  N   UNL     1       4.091   6.210  19.337  0.00  0.00    -0.065 NA
ATOM     39  H   UNL     1       0.915   5.501  19.522  0.00  0.00    +0.085 HD
BRANCH  36  40
ATOM     40  C   UNL     1       2.572   3.067  20.445  0.00  0.00    +0.005 C 
ATOM     41  C   UNL     1       1.714   2.866  21.667  0.00  0.00    -0.044 C 
ATOM     42  C   UNL     1       1.182   2.504  20.309  0.00  0.00    -0.044 C 
ATOM     43  H   UNL     1       3.394   2.372  20.308  0.00  0.00    +0.036 HD
ATOM     44  H   UNL     1       1.291   3.730  22.165  0.00  0.00    +0.027 HD
ATOM     45  H   UNL     1       1.982   2.060  22.342  0.00  0.00    +0.027 HD
ATOM     46  H   UNL     1       1.088   1.452  20.065  0.00  0.00    +0.027 HD
ATOM     47  H   UNL     1       0.401   3.123  19.885  0.00  0.00    +0.027 HD
ENDBRANCH  36  40
ENDBRANCH  31  34
ENDBRANCH   7  31
TORSDOF 5
ENDMDL
MODEL 28
REMARK VINA RESULT:    -6.025      4.258      6.694
REMARK INTER + INTRA:          -7.718
REMARK INTER:                  -7.389
REMARK INTRA:                  -0.329
REMARK UNBOUND:                -0.108
REMARK  Name = 
REMARK  5 active torsions:
REMARK  status: ('A' for Active; 'I' for Inactive)
REMARK    1  A    between atoms: C_1  and  C_2
REMARK    2  A    between atoms: C_8  and  C_9
REMARK    3  A    between atoms: C_15  and  C_16
REMARK    4  A    between atoms: C_16  and  N_17
REMARK    5  A    between atoms: C_19  and  C_20
REMARK                            x       y       z     vdW  Elec       q    Type
REMARK                         _______ _______ _______ _____ _____    ______ ____
ROOT
ATOM      1  C   UNL     1       2.159   5.464  20.607  0.00  0.00    +0.248 C 
ATOM      2  O   UNL     1       2.714   5.124  21.648  0.00  0.00    -0.270 OA
ATOM      3  N   UNL     1       2.078   4.649  19.493  0.00  0.00    -0.293 N 
ATOM      4  C   UNL     1       1.223   4.850  18.328  0.00  0.00    +0.015 C 
ATOM      5  C   UNL     1       1.597   3.723  17.381  0.00  0.00    -0.035 C 
ATOM      6  C   UNL     1       1.976   2.586  18.320  0.00  0.00    -0.031 C 
ATOM      7  C   UNL     1       2.609   3.282  19.533  0.00  0.00    +0.046 C 
ATOM      8  H   UNL     1       0.181   4.766  18.658  0.00  0.00    +0.046 HD
ATOM      9  H   UNL     1       1.375   5.831  17.876  0.00  0.00    +0.046 HD
ATOM     10  H   UNL     1       2.457   4.015  16.770  0.00  0.00    +0.028 HD
ATOM     11  H   UNL     1       0.780   3.458  16.704  0.00  0.00    +0.028 HD
ATOM     12  H   UNL     1       2.623   1.840  17.849  0.00  0.00    +0.028 HD
ATOM     13  H   UNL     1       1.061   2.069  18.638  0.00  0.00    +0.028 HD
ATOM     14  H   UNL     1       2.227   2.801  20.444  0.00  0.00    +0.052 HD
ENDROOT
BRANCH   1  21
ATOM     15  C   UNL     1       1.441   9.995  18.871  0.00  0.00    +0.042 A 
ATOM     16  N   UNL     1       0.511  10.887  19.348  0.00  0.00    -0.279 N 
ATOM     17  N   UNL     1      -0.226  10.435  20.381  0.00  0.00    -0.154 NA
ATOM     18  C   UNL     1       0.229   9.199  20.582  0.00  0.00    +0.181 A 
ATOM     19  N   UNL     1      -0.199   8.306  21.513  0.00  0.00    -0.234 NA
ATOM     20  C   UNL     1       0.493   7.125  21.434  0.00  0.00    +0.042 A 
ATOM     21  C   UNL     1       1.553   6.804  20.548  0.00  0.00    +0.056 A 
ATOM     22  C   UNL     1       2.001   7.700  19.566  0.00  0.00    -0.036 A 
ATOM     23  C   UNL     1       1.281   8.883  19.662  0.00  0.00    +0.042 A 
ATOM     24  H   UNL     1       0.325  11.827  19.013  0.00  0.00    +0.189 HD
ATOM     25  H   UNL     1       0.152   6.380  22.153  0.00  0.00    +0.084 HD
ATOM     26  H   UNL     1       2.781   7.476  18.854  0.00  0.00    +0.063 HD
BRANCH  15  27
ATOM     27  C   UNL     1       2.342  10.314  17.742  0.00  0.00    -0.022 C 
ATOM     28  H   UNL     1       1.810  10.822  16.931  0.00  0.00    +0.029 HD
ATOM     29  H   UNL     1       3.155  10.968  18.075  0.00  0.00    +0.029 HD
ATOM     30  H   UNL     1       2.784   9.398  17.334  0.00  0.00    +0.029 HD
ENDBRANCH  15  27
ENDBRANCH   1  21
BRANCH   7  31
ATOM     31  C   UNL     1       4.144   3.199  19.596  0.00  0.00    +0.062 C 
ATOM     32  H   UNL     1       4.479   2.175  19.400  0.00  0.00    +0.053 HD
ATOM     33  H   UNL     1       4.501   3.462  20.599  0.00  0.00    +0.053 HD
BRANCH  31  34
ATOM     34  N   UNL     1       4.833   4.069  18.672  0.00  0.00    -0.250 N 
ATOM     35  C   UNL     1       4.889   3.972  17.314  0.00  0.00    +0.049 A 
ATOM     36  C   UNL     1       5.662   5.046  16.947  0.00  0.00    +0.086 A 
ATOM     37  N   UNL     1       6.024   5.754  18.058  0.00  0.00    -0.134 NA
ATOM     38  N   UNL     1       5.491   5.155  19.116  0.00  0.00    -0.065 NA
ATOM     39  H   UNL     1       4.401   3.185  16.759  0.00  0.00    +0.085 HD
BRANCH  36  40
ATOM     40  C   UNL     1       6.087   5.449  15.514  0.00  0.00    +0.005 C 
ATOM     41  C   UNL     1       7.242   4.755  14.840  0.00  0.00    -0.044 C 
ATOM     42  C   UNL     1       5.839   4.519  14.356  0.00  0.00    -0.044 C 
ATOM     43  H   UNL     1       5.977   6.512  15.318  0.00  0.00    +0.036 HD
ATOM     44  H   UNL     1       7.745   3.945  15.353  0.00  0.00    +0.027 HD
ATOM     45  H   UNL     1       7.899   5.358  14.223  0.00  0.00    +0.027 HD
ATOM     46  H   UNL     1       5.547   4.963  13.411  0.00  0.00    +0.027 HD
ATOM     47  H   UNL     1       5.390   3.552  14.543  0.00  0.00    +0.027 HD
ENDBRANCH  36  40
ENDBRANCH  31  34
ENDBRANCH   7  31
TORSDOF 5
ENDMDL
MODEL 29
REMARK VINA RESULT:    -6.006      3.314      7.662
REMARK INTER + INTRA:          -7.694
REMARK INTER:                  -8.296
REMARK INTRA:                   0.602
REMARK UNBOUND:                -0.108
REMARK  Name = 
REMARK  5 active torsions:
REMARK  status: ('A' for Active; 'I' for Inactive)
REMARK    1  A    between atoms: C_1  and  C_2
REMARK    2  A    between atoms: C_8  and  C_9
REMARK    3  A    between atoms: C_15  and  C_16
REMARK    4  A    between atoms: C_16  and  N_17
REMARK    5  A    between atoms: C_19  and  C_20
REMARK                            x       y       z     vdW  Elec       q    Type
REMARK                         _______ _______ _______ _____ _____    ______ ____
ROOT
ATOM      1  C   UNL     1       0.836   9.568  20.262  0.00  0.00    +0.248 C 
ATOM      2  O   UNL     1       0.166   9.332  21.263  0.00  0.00    -0.270 OA
ATOM      3  N   UNL     1       0.900  10.816  19.673  0.00  0.00    -0.293 N 
ATOM      4  C   UNL     1       1.858  11.255  18.664  0.00  0.00    +0.015 C 
ATOM      5  C   UNL     1       1.423  12.665  18.309  0.00  0.00    -0.035 C 
ATOM      6  C   UNL     1       0.838  13.191  19.614  0.00  0.00    -0.031 C 
ATOM      7  C   UNL     1       0.205  11.959  20.277  0.00  0.00    +0.046 C 
ATOM      8  H   UNL     1       2.855  11.247  19.122  0.00  0.00    +0.046 HD
ATOM      9  H   UNL     1       1.862  10.597  17.793  0.00  0.00    +0.046 HD
ATOM     10  H   UNL     1       0.653  12.636  17.531  0.00  0.00    +0.028 HD
ATOM     11  H   UNL     1       2.250  13.278  17.940  0.00  0.00    +0.028 HD
ATOM     12  H   UNL     1       0.142  14.022  19.466  0.00  0.00    +0.028 HD
ATOM     13  H   UNL     1       1.657  13.559  20.246  0.00  0.00    +0.028 HD
ATOM     14  H   UNL     1       0.456  11.976  21.346  0.00  0.00    +0.052 HD
ENDROOT
BRANCH   1  21
ATOM     15  C   UNL     1       2.723   5.050  19.981  0.00  0.00    +0.042 A 
ATOM     16  N   UNL     1       3.452   4.560  18.923  0.00  0.00    -0.279 N 
ATOM     17  N   UNL     1       3.644   5.436  17.917  0.00  0.00    -0.154 NA
ATOM     18  C   UNL     1       3.009   6.535  18.324  0.00  0.00    +0.181 A 
ATOM     19  N   UNL     1       2.893   7.713  17.657  0.00  0.00    -0.234 NA
ATOM     20  C   UNL     1       2.168   8.629  18.375  0.00  0.00    +0.042 A 
ATOM     21  C   UNL     1       1.603   8.463  19.664  0.00  0.00    +0.056 A 
ATOM     22  C   UNL     1       1.691   7.252  20.366  0.00  0.00    -0.036 A 
ATOM     23  C   UNL     1       2.423   6.340  19.617  0.00  0.00    +0.042 A 
ATOM     24  H   UNL     1       3.852   3.633  18.821  0.00  0.00    +0.189 HD
ATOM     25  H   UNL     1       2.037   9.576  17.851  0.00  0.00    +0.084 HD
ATOM     26  H   UNL     1       1.244   7.080  21.334  0.00  0.00    +0.063 HD
BRANCH  15  27
ATOM     27  C   UNL     1       2.412   4.235  21.176  0.00  0.00    -0.022 C 
ATOM     28  H   UNL     1       1.715   4.749  21.846  0.00  0.00    +0.029 HD
ATOM     29  H   UNL     1       1.957   3.283  20.882  0.00  0.00    +0.029 HD
ATOM     30  H   UNL     1       3.326   4.020  21.740  0.00  0.00    +0.029 HD
ENDBRANCH  15  27
ENDBRANCH   1  21
BRANCH   7  31
ATOM     31  C   UNL     1      -1.329  11.891  20.179  0.00  0.00    +0.062 C 
ATOM     32  H   UNL     1      -1.762  12.894  20.272  0.00  0.00    +0.053 HD
ATOM     33  H   UNL     1      -1.739  11.293  21.002  0.00  0.00    +0.053 HD
BRANCH  31  34
ATOM     34  N   UNL     1      -1.830  11.310  18.957  0.00  0.00    -0.250 N 
ATOM     35  C   UNL     1      -1.985  11.912  17.744  0.00  0.00    +0.049 A 
ATOM     36  C   UNL     1      -2.486  10.911  16.949  0.00  0.00    +0.086 A 
ATOM     37  N   UNL     1      -2.597   9.758  17.675  0.00  0.00    -0.134 NA
ATOM     38  N   UNL     1      -2.171  10.009  18.907  0.00  0.00    -0.065 NA
ATOM     39  H   UNL     1      -1.741  12.949  17.567  0.00  0.00    +0.085 HD
BRANCH  36  40
ATOM     40  C   UNL     1      -2.877  11.007  15.455  0.00  0.00    +0.005 C 
ATOM     41  C   UNL     1      -2.625   9.849  14.526  0.00  0.00    -0.044 C 
ATOM     42  C   UNL     1      -4.032  10.204  14.916  0.00  0.00    -0.044 C 
ATOM     43  H   UNL     1      -2.741  12.002  15.041  0.00  0.00    +0.036 HD
ATOM     44  H   UNL     1      -2.203   8.934  14.923  0.00  0.00    +0.027 HD
ATOM     45  H   UNL     1      -2.303  10.076  13.515  0.00  0.00    +0.027 HD
ATOM     46  H   UNL     1      -4.663  10.672  14.169  0.00  0.00    +0.027 HD
ATOM     47  H   UNL     1      -4.562   9.533  15.580  0.00  0.00    +0.027 HD
ENDBRANCH  36  40
ENDBRANCH  31  34
ENDBRANCH   7  31
TORSDOF 5
ENDMDL
MODEL 30
REMARK VINA RESULT:    -5.974      2.124      3.467
REMARK INTER + INTRA:          -7.654
REMARK INTER:                  -8.225
REMARK INTRA:                   0.571
REMARK UNBOUND:                -0.108
REMARK  Name = 
REMARK  5 active torsions:
REMARK  status: ('A' for Active; 'I' for Inactive)
REMARK    1  A    between atoms: C_1  and  C_2
REMARK    2  A    between atoms: C_8  and  C_9
REMARK    3  A    between atoms: C_15  and  C_16
REMARK    4  A    between atoms: C_16  and  N_17
REMARK    5  A    between atoms: C_19  and  C_20
REMARK                            x       y       z     vdW  Elec       q    Type
REMARK                         _______ _______ _______ _____ _____    ______ ____
ROOT
ATOM      1  C   UNL     1       0.171   9.544  20.967  0.00  0.00    +0.248 C 
ATOM      2  O   UNL     1      -0.163   8.464  21.446  0.00  0.00    -0.270 OA
ATOM      3  N   UNL     1       0.902   9.658  19.800  0.00  0.00    -0.293 N 
ATOM      4  C   UNL     1       1.111  10.873  19.019  0.00  0.00    +0.015 C 
ATOM      5  C   UNL     1       2.052  10.454  17.903  0.00  0.00    -0.035 C 
ATOM      6  C   UNL     1       1.670   9.001  17.650  0.00  0.00    -0.031 C 
ATOM      7  C   UNL     1       1.263   8.463  19.029  0.00  0.00    +0.046 C 
ATOM      8  H   UNL     1       0.139  11.190  18.625  0.00  0.00    +0.046 HD
ATOM      9  H   UNL     1       1.530  11.679  19.624  0.00  0.00    +0.046 HD
ATOM     10  H   UNL     1       3.091  10.521  18.241  0.00  0.00    +0.028 HD
ATOM     11  H   UNL     1       1.948  11.079  17.012  0.00  0.00    +0.028 HD
ATOM     12  H   UNL     1       2.468   8.427  17.168  0.00  0.00    +0.028 HD
ATOM     13  H   UNL     1       0.800   8.975  16.981  0.00  0.00    +0.028 HD
ATOM     14  H   UNL     1       0.354   7.857  18.907  0.00  0.00    +0.052 HD
ENDROOT
BRANCH   1  21
ATOM     15  C   UNL     1       0.098  14.354  21.924  0.00  0.00    +0.042 A 
ATOM     16  N   UNL     1      -0.678  14.958  22.884  0.00  0.00    -0.279 N 
ATOM     17  N   UNL     1      -1.451  14.116  23.596  0.00  0.00    -0.154 NA
ATOM     18  C   UNL     1      -1.181  12.919  23.079  0.00  0.00    +0.181 A 
ATOM     19  N   UNL     1      -1.717  11.724  23.444  0.00  0.00    -0.234 NA
ATOM     20  C   UNL     1      -1.210  10.694  22.696  0.00  0.00    +0.042 A 
ATOM     21  C   UNL     1      -0.230  10.771  21.674  0.00  0.00    +0.056 A 
ATOM     22  C   UNL     1       0.325  11.992  21.264  0.00  0.00    -0.036 A 
ATOM     23  C   UNL     1      -0.209  13.019  22.031  0.00  0.00    +0.042 A 
ATOM     24  H   UNL     1      -0.730  15.947  23.107  0.00  0.00    +0.189 HD
ATOM     25  H   UNL     1      -1.642   9.726  22.950  0.00  0.00    +0.084 HD
ATOM     26  H   UNL     1       1.047  12.091  20.467  0.00  0.00    +0.063 HD
BRANCH  15  27
ATOM     27  C   UNL     1       1.012  15.116  21.044  0.00  0.00    -0.022 C 
ATOM     28  H   UNL     1       0.958  16.192  21.241  0.00  0.00    +0.029 HD
ATOM     29  H   UNL     1       2.048  14.796  21.201  0.00  0.00    +0.029 HD
ATOM     30  H   UNL     1       0.756  14.952  19.993  0.00  0.00    +0.029 HD
ENDBRANCH  15  27
ENDBRANCH   1  21
BRANCH   7  31
ATOM     31  C   UNL     1       2.311   7.564  19.706  0.00  0.00    +0.062 C 
ATOM     32  H   UNL     1       1.947   7.222  20.681  0.00  0.00    +0.053 HD
ATOM     33  H   UNL     1       3.234   8.125  19.892  0.00  0.00    +0.053 HD
BRANCH  31  34
ATOM     34  N   UNL     1       2.685   6.395  18.945  0.00  0.00    -0.250 N 
ATOM     35  C   UNL     1       2.012   5.215  18.837  0.00  0.00    +0.049 A 
ATOM     36  C   UNL     1       2.803   4.470  17.997  0.00  0.00    +0.086 A 
ATOM     37  N   UNL     1       3.890   5.205  17.615  0.00  0.00    -0.134 NA
ATOM     38  N   UNL     1       3.798   6.399  18.188  0.00  0.00    -0.065 NA
ATOM     39  H   UNL     1       1.080   5.021  19.345  0.00  0.00    +0.085 HD
BRANCH  36  40
ATOM     40  C   UNL     1       2.554   3.020  17.517  0.00  0.00    +0.005 C 
ATOM     41  C   UNL     1       3.277   1.869  18.166  0.00  0.00    -0.044 C 
ATOM     42  C   UNL     1       1.802   2.047  18.386  0.00  0.00    -0.044 C 
ATOM     43  H   UNL     1       2.386   2.947  16.446  0.00  0.00    +0.036 HD
ATOM     44  H   UNL     1       3.943   2.063  18.998  0.00  0.00    +0.027 HD
ATOM     45  H   UNL     1       3.602   1.055  17.527  0.00  0.00    +0.027 HD
ATOM     46  H   UNL     1       1.128   1.354  17.897  0.00  0.00    +0.027 HD
ATOM     47  H   UNL     1       1.467   2.366  19.366  0.00  0.00    +0.027 HD
ENDBRANCH  36  40
ENDBRANCH  31  34
ENDBRANCH   7  31
TORSDOF 5
ENDMDL
MODEL 31
REMARK VINA RESULT:    -5.918      2.917      4.410
REMARK INTER + INTRA:          -7.584
REMARK INTER:                  -7.475
REMARK INTRA:                  -0.108
REMARK UNBOUND:                -0.108
REMARK  Name = 
REMARK  5 active torsions:
REMARK  status: ('A' for Active; 'I' for Inactive)
REMARK    1  A    between atoms: C_1  and  C_2
REMARK    2  A    between atoms: C_8  and  C_9
REMARK    3  A    between atoms: C_15  and  C_16
REMARK    4  A    between atoms: C_16  and  N_17
REMARK    5  A    between atoms: C_19  and  C_20
REMARK                            x       y       z     vdW  Elec       q    Type
REMARK                         _______ _______ _______ _____ _____    ______ ____
ROOT
ATOM      1  C   UNL     1      -0.047  10.346  18.931  0.00  0.00    +0.248 C 
ATOM      2  O   UNL     1       0.759  10.747  18.097  0.00  0.00    -0.270 OA
ATOM      3  N   UNL     1       0.262   9.395  19.885  0.00  0.00    -0.293 N 
ATOM      4  C   UNL     1      -0.525   9.058  21.065  0.00  0.00    +0.015 C 
ATOM      5  C   UNL     1       0.220   7.900  21.706  0.00  0.00    -0.035 C 
ATOM      6  C   UNL     1       1.677   8.189  21.365  0.00  0.00    -0.031 C 
ATOM      7  C   UNL     1       1.624   8.858  19.984  0.00  0.00    +0.046 C 
ATOM      8  H   UNL     1      -0.539   9.936  21.721  0.00  0.00    +0.046 HD
ATOM      9  H   UNL     1      -1.552   8.790  20.808  0.00  0.00    +0.046 HD
ATOM     10  H   UNL     1      -0.096   6.954  21.255  0.00  0.00    +0.028 HD
ATOM     11  H   UNL     1       0.044   7.834  22.783  0.00  0.00    +0.028 HD
ATOM     12  H   UNL     1       2.310   7.297  21.402  0.00  0.00    +0.028 HD
ATOM     13  H   UNL     1       2.076   8.904  22.096  0.00  0.00    +0.028 HD
ATOM     14  H   UNL     1       2.319   9.708  19.987  0.00  0.00    +0.052 HD
ENDROOT
BRANCH   1  21
ATOM     15  C   UNL     1      -3.726  13.252  20.373  0.00  0.00    +0.042 A 
ATOM     16  N   UNL     1      -4.963  13.318  19.777  0.00  0.00    -0.279 N 
ATOM     17  N   UNL     1      -5.128  12.490  18.727  0.00  0.00    -0.154 NA
ATOM     18  C   UNL     1      -3.955  11.867  18.624  0.00  0.00    +0.181 A 
ATOM     19  N   UNL     1      -3.598  10.931  17.705  0.00  0.00    -0.234 NA
ATOM     20  C   UNL     1      -2.310  10.504  17.894  0.00  0.00    +0.042 A 
ATOM     21  C   UNL     1      -1.406  10.910  18.909  0.00  0.00    +0.056 A 
ATOM     22  C   UNL     1      -1.741  11.888  19.857  0.00  0.00    -0.036 A 
ATOM     23  C   UNL     1      -3.047  12.309  19.641  0.00  0.00    +0.042 A 
ATOM     24  H   UNL     1      -5.746  13.909  20.037  0.00  0.00    +0.189 HD
ATOM     25  H   UNL     1      -1.988   9.771  17.154  0.00  0.00    +0.084 HD
ATOM     26  H   UNL     1      -1.067  12.246  20.621  0.00  0.00    +0.063 HD
BRANCH  15  27
ATOM     27  C   UNL     1      -3.360  14.085  21.539  0.00  0.00    -0.022 C 
ATOM     28  H   UNL     1      -2.363  13.837  21.918  0.00  0.00    +0.029 HD
ATOM     29  H   UNL     1      -3.363  15.146  21.267  0.00  0.00    +0.029 HD
ATOM     30  H   UNL     1      -4.076  13.938  22.354  0.00  0.00    +0.029 HD
ENDBRANCH  15  27
ENDBRANCH   1  21
BRANCH   7  31
ATOM     31  C   UNL     1       2.035   7.950  18.812  0.00  0.00    +0.062 C 
ATOM     32  H   UNL     1       2.846   8.412  18.238  0.00  0.00    +0.053 HD
ATOM     33  H   UNL     1       1.196   7.815  18.120  0.00  0.00    +0.053 HD
BRANCH  31  34
ATOM     34  N   UNL     1       2.470   6.628  19.197  0.00  0.00    -0.250 N 
ATOM     35  C   UNL     1       1.698   5.541  19.480  0.00  0.00    +0.049 A 
ATOM     36  C   UNL     1       2.616   4.563  19.776  0.00  0.00    +0.086 A 
ATOM     37  N   UNL     1       3.880   5.065  19.647  0.00  0.00    -0.134 NA
ATOM     38  N   UNL     1       3.781   6.333  19.269  0.00  0.00    -0.065 NA
ATOM     39  H   UNL     1       0.619   5.562  19.451  0.00  0.00    +0.085 HD
BRANCH  36  40
ATOM     40  C   UNL     1       2.326   3.101  20.192  0.00  0.00    +0.005 C 
ATOM     41  C   UNL     1       2.737   2.602  21.552  0.00  0.00    -0.044 C 
ATOM     42  C   UNL     1       1.282   2.798  21.234  0.00  0.00    -0.044 C 
ATOM     43  H   UNL     1       2.411   2.398  19.369  0.00  0.00    +0.036 HD
ATOM     44  H   UNL     1       3.202   3.287  22.250  0.00  0.00    +0.027 HD
ATOM     45  H   UNL     1       3.111   1.586  21.623  0.00  0.00    +0.027 HD
ATOM     46  H   UNL     1       0.670   1.915  21.089  0.00  0.00    +0.027 HD
ATOM     47  H   UNL     1       0.761   3.618  21.712  0.00  0.00    +0.027 HD
ENDBRANCH  36  40
ENDBRANCH  31  34
ENDBRANCH   7  31
TORSDOF 5
ENDMDL
