MODEL 1
REMARK VINA RESULT:    -8.302      0.000      0.000
REMARK INTER + INTRA:         -11.232
REMARK INTER:                 -10.249
REMARK INTRA:                  -0.983
REMARK UNBOUND:                -0.503
REMARK  Name = 
REMARK  5 active torsions:
REMARK  status: ('A' for Active; 'I' for Inactive)
REMARK    1  A    between atoms: C_2  and  C_4
REMARK    2  A    between atoms: C_7  and  C_8
REMARK    3  A    between atoms: N_10  and  C_11
REMARK    4  A    between atoms: C_11  and  C_12
REMARK    5  A    between atoms: N_16  and  C_17
REMARK                            x       y       z     vdW  Elec       q    Type
REMARK                         _______ _______ _______ _____ _____    ______ ____
ROOT
ATOM      1  C   UNL     1       2.554   3.396  20.395  0.00  0.00    +0.039 C 
ATOM      2  C   UNL     1       1.721   2.106  20.342  0.00  0.00    -0.032 C 
ATOM      3  C   UNL     1       1.236   2.018  18.908  0.00  0.00    -0.035 C 
ATOM      4  C   UNL     1       1.026   3.473  18.508  0.00  0.00    +0.013 C 
ATOM      5  N   UNL     1       1.979   4.235  19.322  0.00  0.00    -0.325 N 
ATOM      6  H   UNL     1       2.401   3.843  21.385  0.00  0.00    +0.051 HD
ATOM      7  H   UNL     1       0.852   2.210  21.006  0.00  0.00    +0.028 HD
ATOM      8  H   UNL     1       2.273   1.217  20.659  0.00  0.00    +0.028 HD
ATOM      9  H   UNL     1       0.319   1.428  18.811  0.00  0.00    +0.028 HD
ATOM     10  H   UNL     1       1.991   1.552  18.268  0.00  0.00    +0.028 HD
ATOM     11  H   UNL     1      -0.001   3.778  18.742  0.00  0.00    +0.046 HD
ATOM     12  H   UNL     1       1.205   3.598  17.435  0.00  0.00    +0.046 HD
ENDROOT
BRANCH   5  13
ATOM     13  C   UNL     1       2.015   5.616  19.301  0.00  0.00    +0.030 A 
ATOM     14  C   UNL     1       2.359   6.344  18.150  0.00  0.00    -0.041 A 
ATOM     15  C   UNL     1       2.382   7.746  18.129  0.00  0.00    -0.060 A 
ATOM     16  C   UNL     1       2.051   8.466  19.269  0.00  0.00    -0.062 A 
ATOM     17  C   UNL     1       1.696   7.782  20.423  0.00  0.00    -0.060 A 
ATOM     18  C   UNL     1       1.679   6.380  20.432  0.00  0.00    -0.041 A 
ATOM     19  H   UNL     1       2.622   5.836  17.228  0.00  0.00    +0.064 HD
ATOM     20  H   UNL     1       2.653   8.267  17.216  0.00  0.00    +0.062 HD
ATOM     21  H   UNL     1       2.062   9.552  19.256  0.00  0.00    +0.062 HD
ATOM     22  H   UNL     1       1.422   8.328  21.322  0.00  0.00    +0.062 HD
ATOM     23  H   UNL     1       1.376   5.895  21.355  0.00  0.00    +0.064 HD
ENDBRANCH   5  13
BRANCH   1  24
ATOM     24  C   UNL     1       4.068   3.159  20.185  0.00  0.00    +0.030 C 
ATOM     25  H   UNL     1       4.333   2.146  20.504  0.00  0.00    +0.048 HD
ATOM     26  H   UNL     1       4.643   3.857  20.803  0.00  0.00    +0.048 HD
BRANCH  24  29
ATOM     27  C   UNL     1       5.316   4.447  18.464  0.00  0.00    +0.247 C 
ATOM     28  O   UNL     1       5.621   5.337  19.255  0.00  0.00    -0.270 OA
ATOM     29  N   UNL     1       4.511   3.390  18.823  0.00  0.00    -0.309 N 
ATOM     30  H   UNL     1       4.370   2.621  18.174  0.00  0.00    +0.149 HD
BRANCH  27  34
ATOM     31  C   UNL     1       6.713   4.550  14.378  0.00  0.00    +0.066 A 
ATOM     32  C   UNL     1       5.355   4.359  14.688  0.00  0.00    -0.047 A 
ATOM     33  C   UNL     1       4.918   4.323  16.015  0.00  0.00    -0.046 A 
ATOM     34  C   UNL     1       5.832   4.473  17.067  0.00  0.00    +0.072 A 
ATOM     35  C   UNL     1       7.183   4.662  16.758  0.00  0.00    +0.136 A 
ATOM     36  F   UNL     1       8.097   4.829  17.729  0.00  0.00    -0.205 F 
ATOM     37  C   UNL     1       7.621   4.700  15.436  0.00  0.00    -0.012 A 
ATOM     38  H   UNL     1       4.638   4.242  13.875  0.00  0.00    +0.063 HD
ATOM     39  H   UNL     1       3.859   4.179  16.220  0.00  0.00    +0.063 HD
ATOM     40  H   UNL     1       8.676   4.851  15.223  0.00  0.00    +0.065 HD
BRANCH  31  42
ATOM     41  O   UNL     1       6.680   3.748  12.143  0.00  0.00    -0.241 OA
ATOM     42  C   UNL     1       7.187   4.597  12.940  0.00  0.00    +0.387 C 
ATOM     43  O   UNL     1       8.054   5.477  12.647  0.00  0.00    -0.241 OA
ENDBRANCH  31  42
ENDBRANCH  27  34
ENDBRANCH  24  29
ENDBRANCH   1  24
TORSDOF 5
ENDMDL
MODEL 2
REMARK VINA RESULT:    -7.891      3.645      7.820
REMARK INTER + INTRA:         -10.701
REMARK INTER:                  -9.775
REMARK INTRA:                  -0.925
REMARK UNBOUND:                -0.503
REMARK  Name = 
REMARK  5 active torsions:
REMARK  status: ('A' for Active; 'I' for Inactive)
REMARK    1  A    between atoms: C_2  and  C_4
REMARK    2  A    between atoms: C_7  and  C_8
REMARK    3  A    between atoms: N_10  and  C_11
REMARK    4  A    between atoms: C_11  and  C_12
REMARK    5  A    between atoms: N_16  and  C_17
REMARK                            x       y       z     vdW  Elec       q    Type
REMARK                         _______ _______ _______ _____ _____    ______ ____
ROOT
ATOM      1  C   UNL     1       5.449   6.095  17.703  0.00  0.00    +0.039 C 
ATOM      2  C   UNL     1       6.919   6.379  17.360  0.00  0.00    -0.032 C 
ATOM      3  C   UNL     1       7.268   5.364  16.288  0.00  0.00    -0.035 C 
ATOM      4  C   UNL     1       6.453   4.137  16.673  0.00  0.00    +0.013 C 
ATOM      5  N   UNL     1       5.278   4.663  17.375  0.00  0.00    -0.325 N 
ATOM      6  H   UNL     1       5.322   6.282  18.777  0.00  0.00    +0.051 HD
ATOM      7  H   UNL     1       7.540   6.189  18.246  0.00  0.00    +0.028 HD
ATOM      8  H   UNL     1       7.102   7.410  17.045  0.00  0.00    +0.028 HD
ATOM      9  H   UNL     1       8.341   5.151  16.247  0.00  0.00    +0.028 HD
ATOM     10  H   UNL     1       6.971   5.724  15.298  0.00  0.00    +0.028 HD
ATOM     11  H   UNL     1       7.039   3.497  17.343  0.00  0.00    +0.046 HD
ATOM     12  H   UNL     1       6.180   3.569  15.777  0.00  0.00    +0.046 HD
ENDROOT
BRANCH   5  13
ATOM     13  C   UNL     1       4.344   3.830  17.961  0.00  0.00    +0.030 A 
ATOM     14  C   UNL     1       4.295   3.608  19.348  0.00  0.00    -0.041 A 
ATOM     15  C   UNL     1       3.338   2.772  19.939  0.00  0.00    -0.060 A 
ATOM     16  C   UNL     1       2.388   2.133  19.153  0.00  0.00    -0.062 A 
ATOM     17  C   UNL     1       2.399   2.335  17.780  0.00  0.00    -0.060 A 
ATOM     18  C   UNL     1       3.362   3.172  17.201  0.00  0.00    -0.041 A 
ATOM     19  H   UNL     1       5.008   4.085  20.013  0.00  0.00    +0.064 HD
ATOM     20  H   UNL     1       3.337   2.631  21.016  0.00  0.00    +0.062 HD
ATOM     21  H   UNL     1       1.641   1.488  19.608  0.00  0.00    +0.062 HD
ATOM     22  H   UNL     1       1.657   1.853  17.150  0.00  0.00    +0.062 HD
ATOM     23  H   UNL     1       3.313   3.310  16.125  0.00  0.00    +0.064 HD
ENDBRANCH   5  13
BRANCH   1  24
ATOM     24  C   UNL     1       4.452   6.983  16.923  0.00  0.00    +0.030 C 
ATOM     25  H   UNL     1       3.856   6.364  16.244  0.00  0.00    +0.048 HD
ATOM     26  H   UNL     1       4.999   7.706  16.309  0.00  0.00    +0.048 HD
BRANCH  24  29
ATOM     27  C   UNL     1       2.429   7.279  18.336  0.00  0.00    +0.247 C 
ATOM     28  O   UNL     1       1.991   6.164  18.059  0.00  0.00    -0.270 OA
ATOM     29  N   UNL     1       3.584   7.773  17.775  0.00  0.00    -0.309 N 
ATOM     30  H   UNL     1       3.970   8.652  18.109  0.00  0.00    +0.149 HD
BRANCH  27  34
ATOM     31  C   UNL     1       0.429   9.733  21.275  0.00  0.00    +0.066 A 
ATOM     32  C   UNL     1       1.000   8.495  21.615  0.00  0.00    -0.047 A 
ATOM     33  C   UNL     1       1.640   7.708  20.652  0.00  0.00    -0.046 A 
ATOM     34  C   UNL     1       1.720   8.142  19.322  0.00  0.00    +0.072 A 
ATOM     35  C   UNL     1       1.151   9.373  18.984  0.00  0.00    +0.136 A 
ATOM     36  F   UNL     1       1.215   9.843  17.727  0.00  0.00    -0.205 F 
ATOM     37  C   UNL     1       0.514  10.159  19.942  0.00  0.00    -0.012 A 
ATOM     38  H   UNL     1       0.943   8.151  22.649  0.00  0.00    +0.063 HD
ATOM     39  H   UNL     1       2.077   6.758  20.950  0.00  0.00    +0.063 HD
ATOM     40  H   UNL     1       0.081  11.115  19.653  0.00  0.00    +0.065 HD
BRANCH  31  42
ATOM     41  O   UNL     1      -0.358  11.830  22.065  0.00  0.00    -0.241 OA
ATOM     42  C   UNL     1      -0.258  10.589  22.319  0.00  0.00    +0.387 C 
ATOM     43  O   UNL     1      -0.675  10.001  23.364  0.00  0.00    -0.241 OA
ENDBRANCH  31  42
ENDBRANCH  27  34
ENDBRANCH  24  29
ENDBRANCH   1  24
TORSDOF 5
ENDMDL
MODEL 3
REMARK VINA RESULT:    -7.886      3.808      7.743
REMARK INTER + INTRA:         -10.694
REMARK INTER:                 -10.488
REMARK INTRA:                  -0.206
REMARK UNBOUND:                -0.503
REMARK  Name = 
REMARK  5 active torsions:
REMARK  status: ('A' for Active; 'I' for Inactive)
REMARK    1  A    between atoms: C_2  and  C_4
REMARK    2  A    between atoms: C_7  and  C_8
REMARK    3  A    between atoms: N_10  and  C_11
REMARK    4  A    between atoms: C_11  and  C_12
REMARK    5  A    between atoms: N_16  and  C_17
REMARK                            x       y       z     vdW  Elec       q    Type
REMARK                         _______ _______ _______ _____ _____    ______ ____
ROOT
ATOM      1  C   UNL     1       2.685   4.493  18.540  0.00  0.00    +0.039 C 
ATOM      2  C   UNL     1       1.379   3.686  18.512  0.00  0.00    -0.032 C 
ATOM      3  C   UNL     1       1.819   2.236  18.573  0.00  0.00    -0.035 C 
ATOM      4  C   UNL     1       3.129   2.224  17.796  0.00  0.00    +0.013 C 
ATOM      5  N   UNL     1       3.686   3.570  17.963  0.00  0.00    -0.325 N 
ATOM      6  H   UNL     1       2.537   5.377  17.907  0.00  0.00    +0.051 HD
ATOM      7  H   UNL     1       0.866   3.862  17.557  0.00  0.00    +0.028 HD
ATOM      8  H   UNL     1       0.683   3.953  19.313  0.00  0.00    +0.028 HD
ATOM      9  H   UNL     1       1.079   1.555  18.142  0.00  0.00    +0.028 HD
ATOM     10  H   UNL     1       1.987   1.922  19.608  0.00  0.00    +0.028 HD
ATOM     11  H   UNL     1       2.931   2.025  16.736  0.00  0.00    +0.046 HD
ATOM     12  H   UNL     1       3.794   1.449  18.191  0.00  0.00    +0.046 HD
ENDROOT
BRANCH   5  13
ATOM     13  C   UNL     1       4.839   3.969  17.315  0.00  0.00    +0.030 A 
ATOM     14  C   UNL     1       4.930   4.047  15.916  0.00  0.00    -0.041 A 
ATOM     15  C   UNL     1       6.098   4.464  15.263  0.00  0.00    -0.060 A 
ATOM     16  C   UNL     1       7.218   4.826  15.999  0.00  0.00    -0.062 A 
ATOM     17  C   UNL     1       7.164   4.771  17.385  0.00  0.00    -0.060 A 
ATOM     18  C   UNL     1       5.991   4.351  18.026  0.00  0.00    -0.041 A 
ATOM     19  H   UNL     1       4.086   3.782  15.288  0.00  0.00    +0.064 HD
ATOM     20  H   UNL     1       6.122   4.510  14.178  0.00  0.00    +0.062 HD
ATOM     21  H   UNL     1       8.124   5.155  15.498  0.00  0.00    +0.062 HD
ATOM     22  H   UNL     1       8.026   5.061  17.979  0.00  0.00    +0.062 HD
ATOM     23  H   UNL     1       5.996   4.344  19.112  0.00  0.00    +0.064 HD
ENDBRANCH   5  13
BRANCH   1  24
ATOM     24  C   UNL     1       3.090   4.960  19.958  0.00  0.00    +0.030 C 
ATOM     25  H   UNL     1       4.172   5.121  20.001  0.00  0.00    +0.048 HD
ATOM     26  H   UNL     1       2.846   4.183  20.690  0.00  0.00    +0.048 HD
BRANCH  24  29
ATOM     27  C   UNL     1       2.328   7.308  19.667  0.00  0.00    +0.247 C 
ATOM     28  O   UNL     1       2.968   7.457  18.628  0.00  0.00    -0.270 OA
ATOM     29  N   UNL     1       2.386   6.148  20.404  0.00  0.00    -0.309 N 
ATOM     30  H   UNL     1       1.762   6.023  21.197  0.00  0.00    +0.149 HD
BRANCH  27  34
ATOM     31  C   UNL     1      -0.211  10.446  21.204  0.00  0.00    +0.066 A 
ATOM     32  C   UNL     1       0.393   9.504  22.054  0.00  0.00    -0.047 A 
ATOM     33  C   UNL     1       1.209   8.491  21.543  0.00  0.00    -0.046 A 
ATOM     34  C   UNL     1       1.436   8.393  20.163  0.00  0.00    +0.072 A 
ATOM     35  C   UNL     1       0.834   9.329  19.317  0.00  0.00    +0.136 A 
ATOM     36  F   UNL     1       1.034   9.291  17.989  0.00  0.00    -0.205 F 
ATOM     37  C   UNL     1       0.022  10.341  19.825  0.00  0.00    -0.012 A 
ATOM     38  H   UNL     1       0.221   9.574  23.130  0.00  0.00    +0.063 HD
ATOM     39  H   UNL     1       1.665   7.781  22.229  0.00  0.00    +0.063 HD
ATOM     40  H   UNL     1      -0.432  11.059  19.146  0.00  0.00    +0.065 HD
BRANCH  31  42
ATOM     41  O   UNL     1      -1.046  11.738  23.013  0.00  0.00    -0.241 OA
ATOM     42  C   UNL     1      -1.089  11.550  21.758  0.00  0.00    +0.387 C 
ATOM     43  O   UNL     1      -1.798  12.194  20.926  0.00  0.00    -0.241 OA
ENDBRANCH  31  42
ENDBRANCH  27  34
ENDBRANCH  24  29
ENDBRANCH   1  24
TORSDOF 5
ENDMDL
MODEL 4
REMARK VINA RESULT:    -7.882      3.796      7.750
REMARK INTER + INTRA:         -10.690
REMARK INTER:                 -10.457
REMARK INTRA:                  -0.233
REMARK UNBOUND:                -0.503
REMARK  Name = 
REMARK  5 active torsions:
REMARK  status: ('A' for Active; 'I' for Inactive)
REMARK    1  A    between atoms: C_2  and  C_4
REMARK    2  A    between atoms: C_7  and  C_8
REMARK    3  A    between atoms: N_10  and  C_11
REMARK    4  A    between atoms: C_11  and  C_12
REMARK    5  A    between atoms: N_16  and  C_17
REMARK                            x       y       z     vdW  Elec       q    Type
REMARK                         _______ _______ _______ _____ _____    ______ ____
ROOT
ATOM      1  C   UNL     1       2.699   4.478  18.528  0.00  0.00    +0.039 C 
ATOM      2  C   UNL     1       1.410   3.642  18.506  0.00  0.00    -0.032 C 
ATOM      3  C   UNL     1       1.882   2.203  18.577  0.00  0.00    -0.035 C 
ATOM      4  C   UNL     1       3.192   2.213  17.800  0.00  0.00    +0.013 C 
ATOM      5  N   UNL     1       3.720   3.573  17.957  0.00  0.00    -0.325 N 
ATOM      6  H   UNL     1       2.532   5.353  17.888  0.00  0.00    +0.051 HD
ATOM      7  H   UNL     1       0.893   3.801  17.549  0.00  0.00    +0.028 HD
ATOM      8  H   UNL     1       0.709   3.900  19.305  0.00  0.00    +0.028 HD
ATOM      9  H   UNL     1       1.156   1.503  18.151  0.00  0.00    +0.028 HD
ATOM     10  H   UNL     1       2.056   1.900  19.614  0.00  0.00    +0.028 HD
ATOM     11  H   UNL     1       2.998   2.002  16.741  0.00  0.00    +0.046 HD
ATOM     12  H   UNL     1       3.873   1.455  18.200  0.00  0.00    +0.046 HD
ENDROOT
BRANCH   5  13
ATOM     13  C   UNL     1       4.864   3.991  17.306  0.00  0.00    +0.030 A 
ATOM     14  C   UNL     1       6.021   4.391  17.995  0.00  0.00    -0.041 A 
ATOM     15  C   UNL     1       7.184   4.802  17.329  0.00  0.00    -0.060 A 
ATOM     16  C   UNL     1       7.227   4.817  15.942  0.00  0.00    -0.062 A 
ATOM     17  C   UNL     1       6.106   4.419  15.226  0.00  0.00    -0.060 A 
ATOM     18  C   UNL     1       4.949   4.012  15.903  0.00  0.00    -0.041 A 
ATOM     19  H   UNL     1       6.049   4.395  19.079  0.00  0.00    +0.064 HD
ATOM     20  H   UNL     1       8.056   5.102  17.904  0.00  0.00    +0.062 HD
ATOM     21  H   UNL     1       8.128   5.130  15.422  0.00  0.00    +0.062 HD
ATOM     22  H   UNL     1       6.124   4.413  14.140  0.00  0.00    +0.062 HD
ATOM     23  H   UNL     1       4.107   3.693  15.295  0.00  0.00    +0.064 HD
ENDBRANCH   5  13
BRANCH   1  24
ATOM     24  C   UNL     1       3.093   4.964  19.942  0.00  0.00    +0.030 C 
ATOM     25  H   UNL     1       4.175   5.125  19.991  0.00  0.00    +0.048 HD
ATOM     26  H   UNL     1       2.845   4.196  20.682  0.00  0.00    +0.048 HD
BRANCH  24  29
ATOM     27  C   UNL     1       2.351   7.314  19.624  0.00  0.00    +0.247 C 
ATOM     28  O   UNL     1       3.015   7.455  18.599  0.00  0.00    -0.270 OA
ATOM     29  N   UNL     1       2.386   6.157  20.367  0.00  0.00    -0.309 N 
ATOM     30  H   UNL     1       1.745   6.039  21.147  0.00  0.00    +0.149 HD
BRANCH  27  34
ATOM     31  C   UNL     1      -0.205  10.471  21.091  0.00  0.00    +0.066 A 
ATOM     32  C   UNL     1       0.365   9.523  21.957  0.00  0.00    -0.047 A 
ATOM     33  C   UNL     1       1.187   8.503  21.468  0.00  0.00    -0.046 A 
ATOM     34  C   UNL     1       1.454   8.406  20.096  0.00  0.00    +0.072 A 
ATOM     35  C   UNL     1       0.887   9.349  19.234  0.00  0.00    +0.136 A 
ATOM     36  F   UNL     1       1.126   9.311  17.913  0.00  0.00    -0.205 F 
ATOM     37  C   UNL     1       0.069  10.367  19.720  0.00  0.00    -0.012 A 
ATOM     38  H   UNL     1       0.162   9.593  23.027  0.00  0.00    +0.063 HD
ATOM     39  H   UNL     1       1.617   7.788  22.166  0.00  0.00    +0.063 HD
ATOM     40  H   UNL     1      -0.359  11.090  19.029  0.00  0.00    +0.065 HD
BRANCH  31  42
ATOM     41  O   UNL     1      -1.728  12.264  20.761  0.00  0.00    -0.241 OA
ATOM     42  C   UNL     1      -1.089  11.582  21.621  0.00  0.00    +0.387 C 
ATOM     43  O   UNL     1      -1.119  11.744  22.880  0.00  0.00    -0.241 OA
ENDBRANCH  31  42
ENDBRANCH  27  34
ENDBRANCH  24  29
ENDBRANCH   1  24
TORSDOF 5
ENDMDL
MODEL 5
REMARK VINA RESULT:    -7.785      3.917      7.589
REMARK INTER + INTRA:         -10.564
REMARK INTER:                 -10.191
REMARK INTRA:                  -0.373
REMARK UNBOUND:                -0.503
REMARK  Name = 
REMARK  5 active torsions:
REMARK  status: ('A' for Active; 'I' for Inactive)
REMARK    1  A    between atoms: C_2  and  C_4
REMARK    2  A    between atoms: C_7  and  C_8
REMARK    3  A    between atoms: N_10  and  C_11
REMARK    4  A    between atoms: C_11  and  C_12
REMARK    5  A    between atoms: N_16  and  C_17
REMARK                            x       y       z     vdW  Elec       q    Type
REMARK                         _______ _______ _______ _____ _____    ______ ____
ROOT
ATOM      1  C   UNL     1       2.749   4.551  18.376  0.00  0.00    +0.039 C 
ATOM      2  C   UNL     1       1.537   3.621  18.529  0.00  0.00    -0.032 C 
ATOM      3  C   UNL     1       2.130   2.263  18.852  0.00  0.00    -0.035 C 
ATOM      4  C   UNL     1       3.431   2.241  18.062  0.00  0.00    +0.013 C 
ATOM      5  N   UNL     1       3.842   3.645  17.960  0.00  0.00    -0.325 N 
ATOM      6  H   UNL     1       2.506   5.278  17.591  0.00  0.00    +0.051 HD
ATOM      7  H   UNL     1       1.005   3.558  17.569  0.00  0.00    +0.028 HD
ATOM      8  H   UNL     1       0.818   3.961  19.281  0.00  0.00    +0.028 HD
ATOM      9  H   UNL     1       1.465   1.439  18.574  0.00  0.00    +0.028 HD
ATOM     10  H   UNL     1       2.332   2.170  19.923  0.00  0.00    +0.028 HD
ATOM     11  H   UNL     1       3.253   1.825  17.063  0.00  0.00    +0.046 HD
ATOM     12  H   UNL     1       4.176   1.628  18.581  0.00  0.00    +0.046 HD
ENDROOT
BRANCH   5  13
ATOM     13  C   UNL     1       4.945   4.032  17.223  0.00  0.00    +0.030 A 
ATOM     14  C   UNL     1       6.163   4.395  17.821  0.00  0.00    -0.041 A 
ATOM     15  C   UNL     1       7.283   4.773  17.068  0.00  0.00    -0.060 A 
ATOM     16  C   UNL     1       7.219   4.793  15.682  0.00  0.00    -0.062 A 
ATOM     17  C   UNL     1       6.035   4.430  15.054  0.00  0.00    -0.060 A 
ATOM     18  C   UNL     1       4.921   4.056  15.818  0.00  0.00    -0.041 A 
ATOM     19  H   UNL     1       6.275   4.393  18.900  0.00  0.00    +0.064 HD
ATOM     20  H   UNL     1       8.205   5.045  17.574  0.00  0.00    +0.062 HD
ATOM     21  H   UNL     1       8.086   5.080  15.094  0.00  0.00    +0.062 HD
ATOM     22  H   UNL     1       5.968   4.428  13.970  0.00  0.00    +0.062 HD
ATOM     23  H   UNL     1       4.026   3.764  15.276  0.00  0.00    +0.064 HD
ENDBRANCH   5  13
BRANCH   1  24
ATOM     24  C   UNL     1       3.104   5.318  19.671  0.00  0.00    +0.030 C 
ATOM     25  H   UNL     1       4.167   5.581  19.667  0.00  0.00    +0.048 HD
ATOM     26  H   UNL     1       2.931   4.678  20.542  0.00  0.00    +0.048 HD
BRANCH  24  29
ATOM     27  C   UNL     1       2.362   7.616  19.086  0.00  0.00    +0.247 C 
ATOM     28  O   UNL     1       3.199   7.732  18.194  0.00  0.00    -0.270 OA
ATOM     29  N   UNL     1       2.294   6.501  19.889  0.00  0.00    -0.309 N 
ATOM     30  H   UNL     1       1.523   6.396  20.543  0.00  0.00    +0.149 HD
BRANCH  27  34
ATOM     31  C   UNL     1      -0.578  10.727  19.665  0.00  0.00    +0.066 A 
ATOM     32  C   UNL     1      -0.105  10.390  18.385  0.00  0.00    -0.047 A 
ATOM     33  C   UNL     1       0.850   9.384  18.213  0.00  0.00    -0.046 A 
ATOM     34  C   UNL     1       1.359   8.693  19.321  0.00  0.00    +0.072 A 
ATOM     35  C   UNL     1       0.889   9.030  20.594  0.00  0.00    +0.136 A 
ATOM     36  F   UNL     1       1.332   8.387  21.688  0.00  0.00    -0.205 F 
ATOM     37  C   UNL     1      -0.064  10.031  20.768  0.00  0.00    -0.012 A 
ATOM     38  H   UNL     1      -0.498  10.922  17.517  0.00  0.00    +0.063 HD
ATOM     39  H   UNL     1       1.191   9.143  17.208  0.00  0.00    +0.063 HD
ATOM     40  H   UNL     1      -0.416  10.272  21.768  0.00  0.00    +0.065 HD
BRANCH  31  42
ATOM     41  O   UNL     1      -1.422  12.638  20.796  0.00  0.00    -0.241 OA
ATOM     42  C   UNL     1      -1.620  11.812  19.852  0.00  0.00    +0.387 C 
ATOM     43  O   UNL     1      -2.607  11.807  19.054  0.00  0.00    -0.241 OA
ENDBRANCH  31  42
ENDBRANCH  27  34
ENDBRANCH  24  29
ENDBRANCH   1  24
TORSDOF 5
ENDMDL
MODEL 6
REMARK VINA RESULT:    -7.766      4.334      7.275
REMARK INTER + INTRA:         -10.539
REMARK INTER:                  -9.879
REMARK INTRA:                  -0.660
REMARK UNBOUND:                -0.503
REMARK  Name = 
REMARK  5 active torsions:
REMARK  status: ('A' for Active; 'I' for Inactive)
REMARK    1  A    between atoms: C_2  and  C_4
REMARK    2  A    between atoms: C_7  and  C_8
REMARK    3  A    between atoms: N_10  and  C_11
REMARK    4  A    between atoms: C_11  and  C_12
REMARK    5  A    between atoms: N_16  and  C_17
REMARK                            x       y       z     vdW  Elec       q    Type
REMARK                         _______ _______ _______ _____ _____    ______ ____
ROOT
ATOM      1  C   UNL     1       0.755  11.314  18.919  0.00  0.00    +0.039 C 
ATOM      2  C   UNL     1       1.312  11.663  20.307  0.00  0.00    -0.032 C 
ATOM      3  C   UNL     1       0.644  10.681  21.250  0.00  0.00    -0.035 C 
ATOM      4  C   UNL     1      -0.740  10.485  20.645  0.00  0.00    +0.013 C 
ATOM      5  N   UNL     1      -0.565  10.712  19.207  0.00  0.00    -0.325 N 
ATOM      6  H   UNL     1       0.658  12.253  18.360  0.00  0.00    +0.051 HD
ATOM      7  H   UNL     1       1.001  12.682  20.576  0.00  0.00    +0.028 HD
ATOM      8  H   UNL     1       2.404  11.628  20.361  0.00  0.00    +0.028 HD
ATOM      9  H   UNL     1       0.595  11.055  22.278  0.00  0.00    +0.028 HD
ATOM     10  H   UNL     1       1.188   9.732  21.275  0.00  0.00    +0.028 HD
ATOM     11  H   UNL     1      -1.437  11.221  21.063  0.00  0.00    +0.046 HD
ATOM     12  H   UNL     1      -1.107   9.476  20.863  0.00  0.00    +0.046 HD
ENDROOT
BRANCH   5  13
ATOM     13  C   UNL     1      -1.634  10.711  18.332  0.00  0.00    +0.030 A 
ATOM     14  C   UNL     1      -1.694   9.865  17.213  0.00  0.00    -0.041 A 
ATOM     15  C   UNL     1      -2.788   9.858  16.336  0.00  0.00    -0.060 A 
ATOM     16  C   UNL     1      -3.867  10.701  16.560  0.00  0.00    -0.062 A 
ATOM     17  C   UNL     1      -3.849  11.546  17.662  0.00  0.00    -0.060 A 
ATOM     18  C   UNL     1      -2.749  11.544  18.530  0.00  0.00    -0.041 A 
ATOM     19  H   UNL     1      -0.882   9.180  16.990  0.00  0.00    +0.064 HD
ATOM     20  H   UNL     1      -2.790   9.185  15.484  0.00  0.00    +0.062 HD
ATOM     21  H   UNL     1      -4.719  10.695  15.886  0.00  0.00    +0.062 HD
ATOM     22  H   UNL     1      -4.690  12.205  17.860  0.00  0.00    +0.062 HD
ATOM     23  H   UNL     1      -2.795  12.211  19.386  0.00  0.00    +0.064 HD
ENDBRANCH   5  13
BRANCH   1  24
ATOM     24  C   UNL     1       1.660  10.349  18.118  0.00  0.00    +0.030 C 
ATOM     25  H   UNL     1       2.709  10.643  18.232  0.00  0.00    +0.048 HD
ATOM     26  H   UNL     1       1.419  10.412  17.052  0.00  0.00    +0.048 HD
BRANCH  24  29
ATOM     27  C   UNL     1       2.463   8.003  18.286  0.00  0.00    +0.247 C 
ATOM     28  O   UNL     1       3.512   8.249  17.694  0.00  0.00    -0.270 OA
ATOM     29  N   UNL     1       1.487   8.954  18.475  0.00  0.00    -0.309 N 
ATOM     30  H   UNL     1       0.684   8.743  19.061  0.00  0.00    +0.149 HD
BRANCH  27  34
ATOM     31  C   UNL     1       1.811   4.024  19.835  0.00  0.00    +0.066 A 
ATOM     32  C   UNL     1       2.178   4.242  18.497  0.00  0.00    -0.047 A 
ATOM     33  C   UNL     1       2.381   5.536  18.007  0.00  0.00    -0.046 A 
ATOM     34  C   UNL     1       2.217   6.645  18.848  0.00  0.00    +0.072 A 
ATOM     35  C   UNL     1       1.851   6.428  20.180  0.00  0.00    +0.136 A 
ATOM     36  F   UNL     1       1.698   7.456  21.032  0.00  0.00    -0.205 F 
ATOM     37  C   UNL     1       1.649   5.139  20.670  0.00  0.00    -0.012 A 
ATOM     38  H   UNL     1       2.309   3.384  17.836  0.00  0.00    +0.063 HD
ATOM     39  H   UNL     1       2.670   5.670  16.967  0.00  0.00    +0.063 HD
ATOM     40  H   UNL     1       1.368   4.997  21.710  0.00  0.00    +0.065 HD
BRANCH  31  42
ATOM     41  O   UNL     1       1.637   1.676  19.522  0.00  0.00    -0.241 OA
ATOM     42  C   UNL     1       1.599   2.622  20.369  0.00  0.00    +0.387 C 
ATOM     43  O   UNL     1       1.396   2.504  21.616  0.00  0.00    -0.241 OA
ENDBRANCH  31  42
ENDBRANCH  27  34
ENDBRANCH  24  29
ENDBRANCH   1  24
TORSDOF 5
ENDMDL
MODEL 7
REMARK VINA RESULT:    -7.751      3.856      7.490
REMARK INTER + INTRA:         -10.520
REMARK INTER:                 -10.310
REMARK INTRA:                  -0.210
REMARK UNBOUND:                -0.503
REMARK  Name = 
REMARK  5 active torsions:
REMARK  status: ('A' for Active; 'I' for Inactive)
REMARK    1  A    between atoms: C_2  and  C_4
REMARK    2  A    between atoms: C_7  and  C_8
REMARK    3  A    between atoms: N_10  and  C_11
REMARK    4  A    between atoms: C_11  and  C_12
REMARK    5  A    between atoms: N_16  and  C_17
REMARK                            x       y       z     vdW  Elec       q    Type
REMARK                         _______ _______ _______ _____ _____    ______ ____
ROOT
ATOM      1  C   UNL     1       2.757   4.480  18.481  0.00  0.00    +0.039 C 
ATOM      2  C   UNL     1       1.532   3.564  18.621  0.00  0.00    -0.032 C 
ATOM      3  C   UNL     1       2.107   2.190  18.904  0.00  0.00    -0.035 C 
ATOM      4  C   UNL     1       3.402   2.168  18.104  0.00  0.00    +0.013 C 
ATOM      5  N   UNL     1       3.833   3.569  18.035  0.00  0.00    -0.325 N 
ATOM      6  H   UNL     1       2.519   5.230  17.717  0.00  0.00    +0.051 HD
ATOM      7  H   UNL     1       0.992   3.534  17.664  0.00  0.00    +0.028 HD
ATOM      8  H   UNL     1       0.824   3.895  19.387  0.00  0.00    +0.028 HD
ATOM      9  H   UNL     1       1.428   1.383  18.611  0.00  0.00    +0.028 HD
ATOM     10  H   UNL     1       2.316   2.066  19.971  0.00  0.00    +0.028 HD
ATOM     11  H   UNL     1       3.210   1.781  17.096  0.00  0.00    +0.046 HD
ATOM     12  H   UNL     1       4.142   1.532  18.600  0.00  0.00    +0.046 HD
ENDROOT
BRANCH   5  13
ATOM     13  C   UNL     1       4.935   3.958  17.299  0.00  0.00    +0.030 A 
ATOM     14  C   UNL     1       4.926   4.009  15.895  0.00  0.00    -0.041 A 
ATOM     15  C   UNL     1       6.043   4.418  15.153  0.00  0.00    -0.060 A 
ATOM     16  C   UNL     1       7.211   4.797  15.801  0.00  0.00    -0.062 A 
ATOM     17  C   UNL     1       7.256   4.768  17.188  0.00  0.00    -0.060 A 
ATOM     18  C   UNL     1       6.133   4.357  17.918  0.00  0.00    -0.041 A 
ATOM     19  H   UNL     1       4.040   3.731  15.334  0.00  0.00    +0.064 HD
ATOM     20  H   UNL     1       5.990   4.443  14.068  0.00  0.00    +0.062 HD
ATOM     21  H   UNL     1       8.077   5.119  15.230  0.00  0.00    +0.062 HD
ATOM     22  H   UNL     1       8.157   5.072  17.713  0.00  0.00    +0.062 HD
ATOM     23  H   UNL     1       6.215   4.371  19.001  0.00  0.00    +0.064 HD
ENDBRANCH   5  13
BRANCH   1  24
ATOM     24  C   UNL     1       3.134   5.208  19.793  0.00  0.00    +0.030 C 
ATOM     25  H   UNL     1       4.208   5.419  19.805  0.00  0.00    +0.048 HD
ATOM     26  H   UNL     1       2.918   4.564  20.651  0.00  0.00    +0.048 HD
BRANCH  24  29
ATOM     27  C   UNL     1       2.407   7.499  19.162  0.00  0.00    +0.247 C 
ATOM     28  O   UNL     1       3.166   7.546  18.196  0.00  0.00    -0.270 OA
ATOM     29  N   UNL     1       2.379   6.426  20.022  0.00  0.00    -0.309 N 
ATOM     30  H   UNL     1       1.666   6.377  20.744  0.00  0.00    +0.149 HD
BRANCH  27  34
ATOM     31  C   UNL     1      -0.371  10.738  19.832  0.00  0.00    +0.066 A 
ATOM     32  C   UNL     1       0.120  10.442  18.548  0.00  0.00    -0.047 A 
ATOM     33  C   UNL     1       1.023   9.394  18.347  0.00  0.00    -0.046 A 
ATOM     34  C   UNL     1       1.460   8.618  19.429  0.00  0.00    +0.072 A 
ATOM     35  C   UNL     1       0.972   8.913  20.705  0.00  0.00    +0.136 A 
ATOM     36  F   UNL     1       1.346   8.188  21.773  0.00  0.00    -0.205 F 
ATOM     37  C   UNL     1       0.072   9.957  20.908  0.00  0.00    -0.012 A 
ATOM     38  H   UNL     1      -0.217  11.042  17.701  0.00  0.00    +0.063 HD
ATOM     39  H   UNL     1       1.379   9.188  17.340  0.00  0.00    +0.063 HD
ATOM     40  H   UNL     1      -0.295  10.164  21.911  0.00  0.00    +0.065 HD
BRANCH  31  42
ATOM     41  O   UNL     1      -1.845  12.409  19.010  0.00  0.00    -0.241 OA
ATOM     42  C   UNL     1      -1.355  11.870  20.050  0.00  0.00    +0.387 C 
ATOM     43  O   UNL     1      -1.608  12.189  21.252  0.00  0.00    -0.241 OA
ENDBRANCH  31  42
ENDBRANCH  27  34
ENDBRANCH  24  29
ENDBRANCH   1  24
TORSDOF 5
ENDMDL
MODEL 8
REMARK VINA RESULT:    -7.696      4.255      8.259
REMARK INTER + INTRA:         -10.448
REMARK INTER:                  -9.575
REMARK INTRA:                  -0.873
REMARK UNBOUND:                -0.503
REMARK  Name = 
REMARK  5 active torsions:
REMARK  status: ('A' for Active; 'I' for Inactive)
REMARK    1  A    between atoms: C_2  and  C_4
REMARK    2  A    between atoms: C_7  and  C_8
REMARK    3  A    between atoms: N_10  and  C_11
REMARK    4  A    between atoms: C_11  and  C_12
REMARK    5  A    between atoms: N_16  and  C_17
REMARK                            x       y       z     vdW  Elec       q    Type
REMARK                         _______ _______ _______ _____ _____    ______ ____
ROOT
ATOM      1  C   UNL     1       4.205   6.411  18.016  0.00  0.00    +0.039 C 
ATOM      2  C   UNL     1       5.586   6.345  17.347  0.00  0.00    -0.032 C 
ATOM      3  C   UNL     1       5.445   5.285  16.272  0.00  0.00    -0.035 C 
ATOM      4  C   UNL     1       4.477   4.280  16.882  0.00  0.00    +0.013 C 
ATOM      5  N   UNL     1       3.640   5.061  17.799  0.00  0.00    -0.325 N 
ATOM      6  H   UNL     1       4.367   6.615  19.082  0.00  0.00    +0.051 HD
ATOM      7  H   UNL     1       6.329   6.009  18.084  0.00  0.00    +0.028 HD
ATOM      8  H   UNL     1       5.926   7.307  16.953  0.00  0.00    +0.028 HD
ATOM      9  H   UNL     1       6.404   4.826  16.009  0.00  0.00    +0.028 HD
ATOM     10  H   UNL     1       5.026   5.711  15.356  0.00  0.00    +0.028 HD
ATOM     11  H   UNL     1       5.035   3.515  17.436  0.00  0.00    +0.046 HD
ATOM     12  H   UNL     1       3.889   3.798  16.094  0.00  0.00    +0.046 HD
ENDROOT
BRANCH   5  13
ATOM     13  C   UNL     1       2.695   4.465  18.611  0.00  0.00    +0.030 A 
ATOM     14  C   UNL     1       1.868   3.421  18.167  0.00  0.00    -0.041 A 
ATOM     15  C   UNL     1       0.920   2.810  18.999  0.00  0.00    -0.060 A 
ATOM     16  C   UNL     1       0.776   3.226  20.315  0.00  0.00    -0.062 A 
ATOM     17  C   UNL     1       1.582   4.249  20.794  0.00  0.00    -0.060 A 
ATOM     18  C   UNL     1       2.525   4.853  19.952  0.00  0.00    -0.041 A 
ATOM     19  H   UNL     1       1.939   3.049  17.149  0.00  0.00    +0.064 HD
ATOM     20  H   UNL     1       0.302   2.005  18.612  0.00  0.00    +0.062 HD
ATOM     21  H   UNL     1       0.046   2.752  20.965  0.00  0.00    +0.062 HD
ATOM     22  H   UNL     1       1.492   4.581  21.825  0.00  0.00    +0.062 HD
ATOM     23  H   UNL     1       3.143   5.636  20.382  0.00  0.00    +0.064 HD
ENDBRANCH   5  13
BRANCH   1  24
ATOM     24  C   UNL     1       3.290   7.513  17.432  0.00  0.00    +0.030 C 
ATOM     25  H   UNL     1       2.532   7.061  16.784  0.00  0.00    +0.048 HD
ATOM     26  H   UNL     1       3.880   8.198  16.815  0.00  0.00    +0.048 HD
BRANCH  24  29
ATOM     27  C   UNL     1       1.438   8.948  18.260  0.00  0.00    +0.247 C 
ATOM     28  O   UNL     1       0.845   8.919  17.184  0.00  0.00    -0.270 OA
ATOM     29  N   UNL     1       2.660   8.343  18.441  0.00  0.00    -0.309 N 
ATOM     30  H   UNL     1       3.067   8.297  19.371  0.00  0.00    +0.149 HD
BRANCH  27  34
ATOM     31  C   UNL     1      -0.372  11.008  21.597  0.00  0.00    +0.066 A 
ATOM     32  C   UNL     1      -0.215  11.629  20.346  0.00  0.00    -0.047 A 
ATOM     33  C   UNL     1       0.377  10.951  19.276  0.00  0.00    -0.046 A 
ATOM     34  C   UNL     1       0.831   9.635  19.435  0.00  0.00    +0.072 A 
ATOM     35  C   UNL     1       0.676   9.019  20.680  0.00  0.00    +0.136 A 
ATOM     36  F   UNL     1       1.078   7.752  20.880  0.00  0.00    -0.205 F 
ATOM     37  C   UNL     1       0.085   9.691  21.747  0.00  0.00    -0.012 A 
ATOM     38  H   UNL     1      -0.567  12.653  20.214  0.00  0.00    +0.063 HD
ATOM     39  H   UNL     1       0.479  11.459  18.319  0.00  0.00    +0.063 HD
ATOM     40  H   UNL     1      -0.027   9.188  22.705  0.00  0.00    +0.065 HD
BRANCH  31  42
ATOM     41  O   UNL     1      -0.679  12.950  22.931  0.00  0.00    -0.241 OA
ATOM     42  C   UNL     1      -1.020  11.739  22.756  0.00  0.00    +0.387 C 
ATOM     43  O   UNL     1      -1.849  11.083  23.459  0.00  0.00    -0.241 OA
ENDBRANCH  31  42
ENDBRANCH  27  34
ENDBRANCH  24  29
ENDBRANCH   1  24
TORSDOF 5
ENDMDL
MODEL 9
REMARK VINA RESULT:    -7.607      4.772      8.796
REMARK INTER + INTRA:         -10.334
REMARK INTER:                  -9.738
REMARK INTRA:                  -0.595
REMARK UNBOUND:                -0.503
REMARK  Name = 
REMARK  5 active torsions:
REMARK  status: ('A' for Active; 'I' for Inactive)
REMARK    1  A    between atoms: C_2  and  C_4
REMARK    2  A    between atoms: C_7  and  C_8
REMARK    3  A    between atoms: N_10  and  C_11
REMARK    4  A    between atoms: C_11  and  C_12
REMARK    5  A    between atoms: N_16  and  C_17
REMARK                            x       y       z     vdW  Elec       q    Type
REMARK                         _______ _______ _______ _____ _____    ______ ____
ROOT
ATOM      1  C   UNL     1       3.600   6.743  18.190  0.00  0.00    +0.039 C 
ATOM      2  C   UNL     1       4.908   6.966  17.417  0.00  0.00    -0.032 C 
ATOM      3  C   UNL     1       4.910   5.895  16.343  0.00  0.00    -0.035 C 
ATOM      4  C   UNL     1       4.224   4.712  17.012  0.00  0.00    +0.013 C 
ATOM      5  N   UNL     1       3.315   5.304  18.000  0.00  0.00    -0.325 N 
ATOM      6  H   UNL     1       3.797   6.980  19.242  0.00  0.00    +0.051 HD
ATOM      7  H   UNL     1       5.759   6.795  18.091  0.00  0.00    +0.028 HD
ATOM      8  H   UNL     1       5.008   7.976  17.010  0.00  0.00    +0.028 HD
ATOM      9  H   UNL     1       5.920   5.646  16.001  0.00  0.00    +0.028 HD
ATOM     10  H   UNL     1       4.342   6.220  15.467  0.00  0.00    +0.028 HD
ATOM     11  H   UNL     1       4.970   4.083  17.513  0.00  0.00    +0.046 HD
ATOM     12  H   UNL     1       3.690   4.114  16.265  0.00  0.00    +0.046 HD
ENDROOT
BRANCH   5  13
ATOM     13  C   UNL     1       2.581   4.527  18.874  0.00  0.00    +0.030 A 
ATOM     14  C   UNL     1       2.657   4.682  20.268  0.00  0.00    -0.041 A 
ATOM     15  C   UNL     1       1.900   3.900  21.152  0.00  0.00    -0.060 A 
ATOM     16  C   UNL     1       1.032   2.935  20.661  0.00  0.00    -0.062 A 
ATOM     17  C   UNL     1       0.922   2.758  19.289  0.00  0.00    -0.060 A 
ATOM     18  C   UNL     1       1.685   3.545  18.416  0.00  0.00    -0.041 A 
ATOM     19  H   UNL     1       3.314   5.424  20.711  0.00  0.00    +0.064 HD
ATOM     20  H   UNL     1       1.991   4.056  22.223  0.00  0.00    +0.062 HD
ATOM     21  H   UNL     1       0.439   2.330  21.342  0.00  0.00    +0.062 HD
ATOM     22  H   UNL     1       0.239   2.016  18.885  0.00  0.00    +0.062 HD
ATOM     23  H   UNL     1       1.547   3.379  17.351  0.00  0.00    +0.064 HD
ENDBRANCH   5  13
BRANCH   1  24
ATOM     24  C   UNL     1       2.432   7.626  17.691  0.00  0.00    +0.030 C 
ATOM     25  H   UNL     1       1.700   7.009  17.161  0.00  0.00    +0.048 HD
ATOM     26  H   UNL     1       2.806   8.371  16.981  0.00  0.00    +0.048 HD
BRANCH  24  29
ATOM     27  C   UNL     1       1.623   9.750  18.695  0.00  0.00    +0.247 C 
ATOM     28  O   UNL     1       2.121  10.438  17.807  0.00  0.00    -0.270 OA
ATOM     29  N   UNL     1       1.784   8.385  18.744  0.00  0.00    -0.309 N 
ATOM     30  H   UNL     1       1.269   7.840  19.430  0.00  0.00    +0.149 HD
BRANCH  27  34
ATOM     31  C   UNL     1      -0.715  11.535  21.859  0.00  0.00    +0.066 A 
ATOM     32  C   UNL     1       0.067  10.388  22.078  0.00  0.00    -0.047 A 
ATOM     33  C   UNL     1       0.815   9.818  21.044  0.00  0.00    -0.046 A 
ATOM     34  C   UNL     1       0.794  10.382  19.761  0.00  0.00    +0.072 A 
ATOM     35  C   UNL     1       0.015  11.522  19.543  0.00  0.00    +0.136 A 
ATOM     36  F   UNL     1      -0.025  12.112  18.336  0.00  0.00    -0.205 F 
ATOM     37  C   UNL     1      -0.729  12.093  20.573  0.00  0.00    -0.012 A 
ATOM     38  H   UNL     1       0.089   9.944  23.075  0.00  0.00    +0.063 HD
ATOM     39  H   UNL     1       1.414   8.934  21.249  0.00  0.00    +0.063 HD
ATOM     40  H   UNL     1      -1.325  12.982  20.378  0.00  0.00    +0.065 HD
BRANCH  31  42
ATOM     41  O   UNL     1      -1.129  13.291  23.404  0.00  0.00    -0.241 OA
ATOM     42  C   UNL     1      -1.519  12.159  22.981  0.00  0.00    +0.387 C 
ATOM     43  O   UNL     1      -2.515  11.499  23.412  0.00  0.00    -0.241 OA
ENDBRANCH  31  42
ENDBRANCH  27  34
ENDBRANCH  24  29
ENDBRANCH   1  24
TORSDOF 5
ENDMDL
MODEL 10
REMARK VINA RESULT:    -7.602      4.538      8.613
REMARK INTER + INTRA:         -10.327
REMARK INTER:                  -9.959
REMARK INTRA:                  -0.369
REMARK UNBOUND:                -0.503
REMARK  Name = 
REMARK  5 active torsions:
REMARK  status: ('A' for Active; 'I' for Inactive)
REMARK    1  A    between atoms: C_2  and  C_4
REMARK    2  A    between atoms: C_7  and  C_8
REMARK    3  A    between atoms: N_10  and  C_11
REMARK    4  A    between atoms: C_11  and  C_12
REMARK    5  A    between atoms: N_16  and  C_17
REMARK                            x       y       z     vdW  Elec       q    Type
REMARK                         _______ _______ _______ _____ _____    ______ ____
ROOT
ATOM      1  C   UNL     1       3.706   6.597  18.208  0.00  0.00    +0.039 C 
ATOM      2  C   UNL     1       4.999   6.757  17.395  0.00  0.00    -0.032 C 
ATOM      3  C   UNL     1       4.917   5.686  16.324  0.00  0.00    -0.035 C 
ATOM      4  C   UNL     1       4.197   4.537  17.018  0.00  0.00    +0.013 C 
ATOM      5  N   UNL     1       3.348   5.174  18.031  0.00  0.00    -0.325 N 
ATOM      6  H   UNL     1       3.946   6.827  19.253  0.00  0.00    +0.051 HD
ATOM      7  H   UNL     1       5.861   6.548  18.042  0.00  0.00    +0.028 HD
ATOM      8  H   UNL     1       5.133   7.761  16.982  0.00  0.00    +0.028 HD
ATOM      9  H   UNL     1       5.902   5.389  15.952  0.00  0.00    +0.028 HD
ATOM     10  H   UNL     1       4.337   6.036  15.465  0.00  0.00    +0.028 HD
ATOM     11  H   UNL     1       4.928   3.875  17.497  0.00  0.00    +0.046 HD
ATOM     12  H   UNL     1       3.613   3.964  16.290  0.00  0.00    +0.046 HD
ENDROOT
BRANCH   5  13
ATOM     13  C   UNL     1       2.606   4.433  18.931  0.00  0.00    +0.030 A 
ATOM     14  C   UNL     1       2.748   4.572  20.322  0.00  0.00    -0.041 A 
ATOM     15  C   UNL     1       1.984   3.827  21.231  0.00  0.00    -0.060 A 
ATOM     16  C   UNL     1       1.040   2.919  20.770  0.00  0.00    -0.062 A 
ATOM     17  C   UNL     1       0.864   2.761  19.403  0.00  0.00    -0.060 A 
ATOM     18  C   UNL     1       1.636   3.510  18.504  0.00  0.00    -0.041 A 
ATOM     19  H   UNL     1       3.466   5.270  20.741  0.00  0.00    +0.064 HD
ATOM     20  H   UNL     1       2.127   3.969  22.298  0.00  0.00    +0.062 HD
ATOM     21  H   UNL     1       0.442   2.344  21.471  0.00  0.00    +0.062 HD
ATOM     22  H   UNL     1       0.122   2.064  19.023  0.00  0.00    +0.062 HD
ATOM     23  H   UNL     1       1.444   3.361  17.445  0.00  0.00    +0.064 HD
ENDBRANCH   5  13
BRANCH   1  24
ATOM     24  C   UNL     1       2.566   7.534  17.743  0.00  0.00    +0.030 C 
ATOM     25  H   UNL     1       1.808   6.957  17.204  0.00  0.00    +0.048 HD
ATOM     26  H   UNL     1       2.960   8.284  17.049  0.00  0.00    +0.048 HD
BRANCH  24  29
ATOM     27  C   UNL     1       1.620   9.617  18.713  0.00  0.00    +0.247 C 
ATOM     28  O   UNL     1       1.926  10.292  17.733  0.00  0.00    -0.270 OA
ATOM     29  N   UNL     1       1.953   8.287  18.821  0.00  0.00    -0.309 N 
ATOM     30  H   UNL     1       1.591   7.738  19.596  0.00  0.00    +0.149 HD
BRANCH  27  34
ATOM     31  C   UNL     1      -0.658  11.453  21.891  0.00  0.00    +0.066 A 
ATOM     32  C   UNL     1      -0.286  12.171  20.741  0.00  0.00    -0.047 A 
ATOM     33  C   UNL     1       0.456  11.566  19.723  0.00  0.00    -0.046 A 
ATOM     34  C   UNL     1       0.847  10.225  19.833  0.00  0.00    +0.072 A 
ATOM     35  C   UNL     1       0.478   9.511  20.977  0.00  0.00    +0.136 A 
ATOM     36  F   UNL     1       0.813   8.218  21.124  0.00  0.00    -0.205 F 
ATOM     37  C   UNL     1      -0.263  10.112  21.993  0.00  0.00    -0.012 A 
ATOM     38  H   UNL     1      -0.588  13.216  20.648  0.00  0.00    +0.063 HD
ATOM     39  H   UNL     1       0.722  12.148  18.844  0.00  0.00    +0.063 HD
ATOM     40  H   UNL     1      -0.540   9.534  22.871  0.00  0.00    +0.065 HD
BRANCH  31  42
ATOM     41  O   UNL     1      -2.447  11.440  23.453  0.00  0.00    -0.241 OA
ATOM     42  C   UNL     1      -1.469  12.107  22.992  0.00  0.00    +0.387 C 
ATOM     43  O   UNL     1      -1.110  13.266  23.362  0.00  0.00    -0.241 OA
ENDBRANCH  31  42
ENDBRANCH  27  34
ENDBRANCH  24  29
ENDBRANCH   1  24
TORSDOF 5
ENDMDL
MODEL 11
REMARK VINA RESULT:    -7.580      2.797      3.748
REMARK INTER + INTRA:         -10.299
REMARK INTER:                  -9.074
REMARK INTRA:                  -1.225
REMARK UNBOUND:                -0.503
REMARK  Name = 
REMARK  5 active torsions:
REMARK  status: ('A' for Active; 'I' for Inactive)
REMARK    1  A    between atoms: C_2  and  C_4
REMARK    2  A    between atoms: C_7  and  C_8
REMARK    3  A    between atoms: N_10  and  C_11
REMARK    4  A    between atoms: C_11  and  C_12
REMARK    5  A    between atoms: N_16  and  C_17
REMARK                            x       y       z     vdW  Elec       q    Type
REMARK                         _______ _______ _______ _____ _____    ______ ____
ROOT
ATOM      1  C   UNL     1       3.185   3.076  19.683  0.00  0.00    +0.039 C 
ATOM      2  C   UNL     1       2.412   1.758  19.834  0.00  0.00    -0.032 C 
ATOM      3  C   UNL     1       1.440   1.744  18.669  0.00  0.00    -0.035 C 
ATOM      4  C   UNL     1       1.075   3.211  18.487  0.00  0.00    +0.013 C 
ATOM      5  N   UNL     1       2.245   3.959  18.959  0.00  0.00    -0.325 N 
ATOM      6  H   UNL     1       3.394   3.451  20.693  0.00  0.00    +0.051 HD
ATOM      7  H   UNL     1       1.841   1.780  20.773  0.00  0.00    +0.028 HD
ATOM      8  H   UNL     1       3.056   0.875  19.861  0.00  0.00    +0.028 HD
ATOM      9  H   UNL     1       0.561   1.122  18.864  0.00  0.00    +0.028 HD
ATOM     10  H   UNL     1       1.920   1.355  17.766  0.00  0.00    +0.028 HD
ATOM     11  H   UNL     1       0.198   3.455  19.098  0.00  0.00    +0.046 HD
ATOM     12  H   UNL     1       0.850   3.415  17.434  0.00  0.00    +0.046 HD
ENDROOT
BRANCH   5  13
ATOM     13  C   UNL     1       2.248   5.339  19.033  0.00  0.00    +0.030 A 
ATOM     14  C   UNL     1       2.526   6.154  17.923  0.00  0.00    -0.041 A 
ATOM     15  C   UNL     1       2.514   7.554  18.000  0.00  0.00    -0.060 A 
ATOM     16  C   UNL     1       2.215   8.184  19.200  0.00  0.00    -0.062 A 
ATOM     17  C   UNL     1       1.925   7.412  20.317  0.00  0.00    -0.060 A 
ATOM     18  C   UNL     1       1.942   6.014  20.228  0.00  0.00    -0.041 A 
ATOM     19  H   UNL     1       2.761   5.718  16.958  0.00  0.00    +0.064 HD
ATOM     20  H   UNL     1       2.734   8.144  17.116  0.00  0.00    +0.062 HD
ATOM     21  H   UNL     1       2.200   9.268  19.263  0.00  0.00    +0.062 HD
ATOM     22  H   UNL     1       1.678   7.888  21.262  0.00  0.00    +0.062 HD
ATOM     23  H   UNL     1       1.690   5.458  21.126  0.00  0.00    +0.064 HD
ENDBRANCH   5  13
BRANCH   1  24
ATOM     24  C   UNL     1       4.523   2.921  18.923  0.00  0.00    +0.030 C 
ATOM     25  H   UNL     1       4.330   2.617  17.889  0.00  0.00    +0.048 HD
ATOM     26  H   UNL     1       5.126   2.134  19.387  0.00  0.00    +0.048 HD
BRANCH  24  29
ATOM     27  C   UNL     1       5.969   4.623  17.833  0.00  0.00    +0.247 C 
ATOM     28  O   UNL     1       5.955   4.040  16.751  0.00  0.00    -0.270 OA
ATOM     29  N   UNL     1       5.352   4.112  18.951  0.00  0.00    -0.309 N 
ATOM     30  H   UNL     1       5.294   4.673  19.796  0.00  0.00    +0.149 HD
BRANCH  27  34
ATOM     31  C   UNL     1       8.037   8.390  18.268  0.00  0.00    +0.066 A 
ATOM     32  C   UNL     1       8.382   7.268  19.039  0.00  0.00    -0.047 A 
ATOM     33  C   UNL     1       7.701   6.056  18.892  0.00  0.00    -0.046 A 
ATOM     34  C   UNL     1       6.653   5.941  17.969  0.00  0.00    +0.072 A 
ATOM     35  C   UNL     1       6.309   7.058  17.202  0.00  0.00    +0.136 A 
ATOM     36  F   UNL     1       5.323   6.995  16.291  0.00  0.00    -0.205 F 
ATOM     37  C   UNL     1       6.988   8.266  17.347  0.00  0.00    -0.012 A 
ATOM     38  H   UNL     1       9.198   7.349  19.759  0.00  0.00    +0.063 HD
ATOM     39  H   UNL     1       7.997   5.204  19.500  0.00  0.00    +0.063 HD
ATOM     40  H   UNL     1       6.703   9.120  16.736  0.00  0.00    +0.065 HD
BRANCH  31  42
ATOM     41  O   UNL     1       9.531   9.818  19.439  0.00  0.00    -0.241 OA
ATOM     42  C   UNL     1       8.780   9.702  18.421  0.00  0.00    +0.387 C 
ATOM     43  O   UNL     1       8.591  10.580  17.524  0.00  0.00    -0.241 OA
ENDBRANCH  31  42
ENDBRANCH  27  34
ENDBRANCH  24  29
ENDBRANCH   1  24
TORSDOF 5
ENDMDL
MODEL 12
REMARK VINA RESULT:    -7.534      3.421      5.475
REMARK INTER + INTRA:         -10.240
REMARK INTER:                  -9.539
REMARK INTRA:                  -0.701
REMARK UNBOUND:                -0.503
REMARK  Name = 
REMARK  5 active torsions:
REMARK  status: ('A' for Active; 'I' for Inactive)
REMARK    1  A    between atoms: C_2  and  C_4
REMARK    2  A    between atoms: C_7  and  C_8
REMARK    3  A    between atoms: N_10  and  C_11
REMARK    4  A    between atoms: C_11  and  C_12
REMARK    5  A    between atoms: N_16  and  C_17
REMARK                            x       y       z     vdW  Elec       q    Type
REMARK                         _______ _______ _______ _____ _____    ______ ____
ROOT
ATOM      1  C   UNL     1       1.042   9.407  21.948  0.00  0.00    +0.039 C 
ATOM      2  C   UNL     1       0.322   9.433  23.305  0.00  0.00    -0.032 C 
ATOM      3  C   UNL     1      -0.986  10.152  23.033  0.00  0.00    -0.035 C 
ATOM      4  C   UNL     1      -0.620  11.178  21.969  0.00  0.00    +0.013 C 
ATOM      5  N   UNL     1       0.504  10.585  21.236  0.00  0.00    -0.325 N 
ATOM      6  H   UNL     1       2.117   9.509  22.146  0.00  0.00    +0.051 HD
ATOM      7  H   UNL     1       0.913  10.027  24.016  0.00  0.00    +0.028 HD
ATOM      8  H   UNL     1       0.179   8.441  23.743  0.00  0.00    +0.028 HD
ATOM      9  H   UNL     1      -1.401  10.620  23.931  0.00  0.00    +0.028 HD
ATOM     10  H   UNL     1      -1.740   9.458  22.650  0.00  0.00    +0.028 HD
ATOM     11  H   UNL     1      -0.309  12.115  22.447  0.00  0.00    +0.046 HD
ATOM     12  H   UNL     1      -1.481  11.372  21.321  0.00  0.00    +0.046 HD
ENDROOT
BRANCH   5  13
ATOM     13  C   UNL     1       1.172  11.275  20.243  0.00  0.00    +0.030 A 
ATOM     14  C   UNL     1       1.386  10.738  18.963  0.00  0.00    -0.041 A 
ATOM     15  C   UNL     1       2.053  11.447  17.954  0.00  0.00    -0.060 A 
ATOM     16  C   UNL     1       2.523  12.730  18.197  0.00  0.00    -0.062 A 
ATOM     17  C   UNL     1       2.322  13.299  19.447  0.00  0.00    -0.060 A 
ATOM     18  C   UNL     1       1.656  12.579  20.448  0.00  0.00    -0.041 A 
ATOM     19  H   UNL     1       1.036   9.741  18.713  0.00  0.00    +0.064 HD
ATOM     20  H   UNL     1       2.194  10.991  16.979  0.00  0.00    +0.062 HD
ATOM     21  H   UNL     1       3.036  13.285  17.417  0.00  0.00    +0.062 HD
ATOM     22  H   UNL     1       2.673  14.307  19.653  0.00  0.00    +0.062 HD
ATOM     23  H   UNL     1       1.509  13.079  21.401  0.00  0.00    +0.064 HD
ENDBRANCH   5  13
BRANCH   1  24
ATOM     24  C   UNL     1       0.806   8.102  21.152  0.00  0.00    +0.030 C 
ATOM     25  H   UNL     1      -0.018   8.243  20.445  0.00  0.00    +0.048 HD
ATOM     26  H   UNL     1       0.516   7.296  21.834  0.00  0.00    +0.048 HD
BRANCH  24  29
ATOM     27  C   UNL     1       2.150   6.307  20.080  0.00  0.00    +0.247 C 
ATOM     28  O   UNL     1       1.355   5.427  20.403  0.00  0.00    -0.270 OA
ATOM     29  N   UNL     1       1.986   7.619  20.460  0.00  0.00    -0.309 N 
ATOM     30  H   UNL     1       2.604   8.333  20.085  0.00  0.00    +0.149 HD
BRANCH  27  34
ATOM     31  C   UNL     1       5.577   5.260  17.669  0.00  0.00    +0.066 A 
ATOM     32  C   UNL     1       5.305   4.608  18.884  0.00  0.00    -0.047 A 
ATOM     33  C   UNL     1       4.194   4.960  19.657  0.00  0.00    -0.046 A 
ATOM     34  C   UNL     1       3.331   5.980  19.232  0.00  0.00    +0.072 A 
ATOM     35  C   UNL     1       3.603   6.629  18.024  0.00  0.00    +0.136 A 
ATOM     36  F   UNL     1       2.797   7.600  17.564  0.00  0.00    -0.205 F 
ATOM     37  C   UNL     1       4.708   6.278  17.252  0.00  0.00    -0.012 A 
ATOM     38  H   UNL     1       5.971   3.813  19.220  0.00  0.00    +0.063 HD
ATOM     39  H   UNL     1       4.009   4.432  20.589  0.00  0.00    +0.063 HD
ATOM     40  H   UNL     1       4.897   6.796  16.315  0.00  0.00    +0.065 HD
BRANCH  31  42
ATOM     41  O   UNL     1       6.683   5.068  15.575  0.00  0.00    -0.241 OA
ATOM     42  C   UNL     1       6.776   4.873  16.827  0.00  0.00    +0.387 C 
ATOM     43  O   UNL     1       7.776   4.383  17.437  0.00  0.00    -0.241 OA
ENDBRANCH  31  42
ENDBRANCH  27  34
ENDBRANCH  24  29
ENDBRANCH   1  24
TORSDOF 5
ENDMDL
MODEL 13
REMARK VINA RESULT:    -7.428      3.217      7.015
REMARK INTER + INTRA:         -10.103
REMARK INTER:                  -9.244
REMARK INTRA:                  -0.858
REMARK UNBOUND:                -0.503
REMARK  Name = 
REMARK  5 active torsions:
REMARK  status: ('A' for Active; 'I' for Inactive)
REMARK    1  A    between atoms: C_2  and  C_4
REMARK    2  A    between atoms: C_7  and  C_8
REMARK    3  A    between atoms: N_10  and  C_11
REMARK    4  A    between atoms: C_11  and  C_12
REMARK    5  A    between atoms: N_16  and  C_17
REMARK                            x       y       z     vdW  Elec       q    Type
REMARK                         _______ _______ _______ _____ _____    ______ ____
ROOT
ATOM      1  C   UNL     1       3.259   3.155  17.769  0.00  0.00    +0.039 C 
ATOM      2  C   UNL     1       2.459   2.064  18.496  0.00  0.00    -0.032 C 
ATOM      3  C   UNL     1       2.465   2.488  19.953  0.00  0.00    -0.035 C 
ATOM      4  C   UNL     1       3.825   3.148  20.131  0.00  0.00    +0.013 C 
ATOM      5  N   UNL     1       4.167   3.684  18.809  0.00  0.00    -0.325 N 
ATOM      6  H   UNL     1       3.813   2.668  16.957  0.00  0.00    +0.051 HD
ATOM      7  H   UNL     1       2.987   1.106  18.402  0.00  0.00    +0.028 HD
ATOM      8  H   UNL     1       1.450   1.925  18.098  0.00  0.00    +0.028 HD
ATOM      9  H   UNL     1       2.324   1.643  20.635  0.00  0.00    +0.028 HD
ATOM     10  H   UNL     1       1.663   3.205  20.154  0.00  0.00    +0.028 HD
ATOM     11  H   UNL     1       4.565   2.400  20.439  0.00  0.00    +0.046 HD
ATOM     12  H   UNL     1       3.766   3.933  20.893  0.00  0.00    +0.046 HD
ENDROOT
BRANCH   5  13
ATOM     13  C   UNL     1       5.388   4.279  18.556  0.00  0.00    +0.030 A 
ATOM     14  C   UNL     1       6.055   4.142  17.328  0.00  0.00    -0.041 A 
ATOM     15  C   UNL     1       7.287   4.759  17.071  0.00  0.00    -0.060 A 
ATOM     16  C   UNL     1       7.890   5.545  18.044  0.00  0.00    -0.062 A 
ATOM     17  C   UNL     1       7.257   5.713  19.268  0.00  0.00    -0.060 A 
ATOM     18  C   UNL     1       6.026   5.089  19.512  0.00  0.00    -0.041 A 
ATOM     19  H   UNL     1       5.630   3.545  16.528  0.00  0.00    +0.064 HD
ATOM     20  H   UNL     1       7.766   4.626  16.106  0.00  0.00    +0.062 HD
ATOM     21  H   UNL     1       8.843   6.030  17.848  0.00  0.00    +0.062 HD
ATOM     22  H   UNL     1       7.707   6.333  20.037  0.00  0.00    +0.062 HD
ATOM     23  H   UNL     1       5.565   5.268  20.479  0.00  0.00    +0.064 HD
ENDBRANCH   5  13
BRANCH   1  24
ATOM     24  C   UNL     1       2.372   4.270  17.165  0.00  0.00    +0.030 C 
ATOM     25  H   UNL     1       1.482   3.828  16.705  0.00  0.00    +0.048 HD
ATOM     26  H   UNL     1       2.920   4.795  16.376  0.00  0.00    +0.048 HD
BRANCH  24  29
ATOM     27  C   UNL     1       2.564   6.543  18.151  0.00  0.00    +0.247 C 
ATOM     28  O   UNL     1       3.524   6.841  17.444  0.00  0.00    -0.270 OA
ATOM     29  N   UNL     1       1.990   5.293  18.120  0.00  0.00    -0.309 N 
ATOM     30  H   UNL     1       1.134   5.118  18.639  0.00  0.00    +0.149 HD
BRANCH  27  34
ATOM     31  C   UNL     1       0.875   9.413  20.901  0.00  0.00    +0.066 A 
ATOM     32  C   UNL     1       1.275   8.134  21.325  0.00  0.00    -0.047 A 
ATOM     33  C   UNL     1       1.816   7.213  20.423  0.00  0.00    -0.046 A 
ATOM     34  C   UNL     1       1.965   7.550  19.071  0.00  0.00    +0.072 A 
ATOM     35  C   UNL     1       1.566   8.822  18.649  0.00  0.00    +0.136 A 
ATOM     36  F   UNL     1       1.704   9.201  17.368  0.00  0.00    -0.205 F 
ATOM     37  C   UNL     1       1.028   9.742  19.547  0.00  0.00    -0.012 A 
ATOM     38  H   UNL     1       1.163   7.865  22.376  0.00  0.00    +0.063 HD
ATOM     39  H   UNL     1       2.120   6.234  20.785  0.00  0.00    +0.063 HD
ATOM     40  H   UNL     1       0.728  10.726  19.195  0.00  0.00    +0.065 HD
BRANCH  31  42
ATOM     41  O   UNL     1       0.214  11.619  21.484  0.00  0.00    -0.241 OA
ATOM     42  C   UNL     1       0.296  10.415  21.880  0.00  0.00    +0.387 C 
ATOM     43  O   UNL     1      -0.057   9.973  23.016  0.00  0.00    -0.241 OA
ENDBRANCH  31  42
ENDBRANCH  27  34
ENDBRANCH  24  29
ENDBRANCH   1  24
TORSDOF 5
ENDMDL
MODEL 14
REMARK VINA RESULT:    -7.401      4.134      6.101
REMARK INTER + INTRA:         -10.068
REMARK INTER:                  -9.612
REMARK INTRA:                  -0.456
REMARK UNBOUND:                -0.503
REMARK  Name = 
REMARK  5 active torsions:
REMARK  status: ('A' for Active; 'I' for Inactive)
REMARK    1  A    between atoms: C_2  and  C_4
REMARK    2  A    between atoms: C_7  and  C_8
REMARK    3  A    between atoms: N_10  and  C_11
REMARK    4  A    between atoms: C_11  and  C_12
REMARK    5  A    between atoms: N_16  and  C_17
REMARK                            x       y       z     vdW  Elec       q    Type
REMARK                         _______ _______ _______ _____ _____    ______ ____
ROOT
ATOM      1  C   UNL     1       0.724  10.714  18.855  0.00  0.00    +0.039 C 
ATOM      2  C   UNL     1       1.610  11.749  19.563  0.00  0.00    -0.032 C 
ATOM      3  C   UNL     1       0.735  12.318  20.664  0.00  0.00    -0.035 C 
ATOM      4  C   UNL     1      -0.661  12.308  20.056  0.00  0.00    +0.013 C 
ATOM      5  N   UNL     1      -0.652  11.200  19.094  0.00  0.00    -0.325 N 
ATOM      6  H   UNL     1       0.981  10.738  17.788  0.00  0.00    +0.051 HD
ATOM      7  H   UNL     1       1.862  12.553  18.858  0.00  0.00    +0.028 HD
ATOM      8  H   UNL     1       2.550  11.334  19.939  0.00  0.00    +0.028 HD
ATOM      9  H   UNL     1       1.045  13.323  20.968  0.00  0.00    +0.028 HD
ATOM     10  H   UNL     1       0.768  11.684  21.555  0.00  0.00    +0.028 HD
ATOM     11  H   UNL     1      -0.849  13.257  19.540  0.00  0.00    +0.046 HD
ATOM     12  H   UNL     1      -1.412  12.168  20.841  0.00  0.00    +0.046 HD
ENDROOT
BRANCH   5  13
ATOM     13  C   UNL     1      -1.732  10.939  18.273  0.00  0.00    +0.030 A 
ATOM     14  C   UNL     1      -2.981  11.557  18.448  0.00  0.00    -0.041 A 
ATOM     15  C   UNL     1      -4.070  11.299  17.603  0.00  0.00    -0.060 A 
ATOM     16  C   UNL     1      -3.936  10.412  16.544  0.00  0.00    -0.062 A 
ATOM     17  C   UNL     1      -2.714   9.789  16.332  0.00  0.00    -0.060 A 
ATOM     18  C   UNL     1      -1.634  10.054  17.185  0.00  0.00    -0.041 A 
ATOM     19  H   UNL     1      -3.144  12.264  19.255  0.00  0.00    +0.064 HD
ATOM     20  H   UNL     1      -5.017  11.801  17.777  0.00  0.00    +0.062 HD
ATOM     21  H   UNL     1      -4.776  10.213  15.884  0.00  0.00    +0.062 HD
ATOM     22  H   UNL     1      -2.587   9.100  15.502  0.00  0.00    +0.062 HD
ATOM     23  H   UNL     1      -0.695   9.554  16.963  0.00  0.00    +0.064 HD
ENDBRANCH   5  13
BRANCH   1  24
ATOM     24  C   UNL     1       0.919   9.273  19.380  0.00  0.00    +0.030 C 
ATOM     25  H   UNL     1      -0.040   8.746  19.384  0.00  0.00    +0.048 HD
ATOM     26  H   UNL     1       1.281   9.299  20.413  0.00  0.00    +0.048 HD
BRANCH  24  29
ATOM     27  C   UNL     1       2.349   7.270  19.037  0.00  0.00    +0.247 C 
ATOM     28  O   UNL     1       2.020   6.768  20.109  0.00  0.00    -0.270 OA
ATOM     29  N   UNL     1       1.908   8.511  18.641  0.00  0.00    -0.309 N 
ATOM     30  H   UNL     1       2.116   8.845  17.704  0.00  0.00    +0.149 HD
BRANCH  27  34
ATOM     31  C   UNL     1       5.006   5.199  16.333  0.00  0.00    +0.066 A 
ATOM     32  C   UNL     1       5.091   6.587  16.529  0.00  0.00    -0.047 A 
ATOM     33  C   UNL     1       4.221   7.246  17.403  0.00  0.00    -0.046 A 
ATOM     34  C   UNL     1       3.241   6.527  18.101  0.00  0.00    +0.072 A 
ATOM     35  C   UNL     1       3.156   5.146  17.906  0.00  0.00    +0.136 A 
ATOM     36  F   UNL     1       2.246   4.408  18.564  0.00  0.00    -0.205 F 
ATOM     37  C   UNL     1       4.023   4.488  17.036  0.00  0.00    -0.012 A 
ATOM     38  H   UNL     1       5.852   7.153  15.990  0.00  0.00    +0.063 HD
ATOM     39  H   UNL     1       4.317   8.321  17.536  0.00  0.00    +0.063 HD
ATOM     40  H   UNL     1       3.938   3.412  16.904  0.00  0.00    +0.065 HD
BRANCH  31  42
ATOM     41  O   UNL     1       7.153   4.343  15.785  0.00  0.00    -0.241 OA
ATOM     42  C   UNL     1       5.953   4.483  15.392  0.00  0.00    +0.387 C 
ATOM     43  O   UNL     1       5.475   4.084  14.286  0.00  0.00    -0.241 OA
ENDBRANCH  31  42
ENDBRANCH  27  34
ENDBRANCH  24  29
ENDBRANCH   1  24
TORSDOF 5
ENDMDL
MODEL 15
REMARK VINA RESULT:    -7.396      4.244      7.853
REMARK INTER + INTRA:         -10.061
REMARK INTER:                  -9.915
REMARK INTRA:                  -0.146
REMARK UNBOUND:                -0.503
REMARK  Name = 
REMARK  5 active torsions:
REMARK  status: ('A' for Active; 'I' for Inactive)
REMARK    1  A    between atoms: C_2  and  C_4
REMARK    2  A    between atoms: C_7  and  C_8
REMARK    3  A    between atoms: N_10  and  C_11
REMARK    4  A    between atoms: C_11  and  C_12
REMARK    5  A    between atoms: N_16  and  C_17
REMARK                            x       y       z     vdW  Elec       q    Type
REMARK                         _______ _______ _______ _____ _____    ______ ____
ROOT
ATOM      1  C   UNL     1       2.698   5.194  18.520  0.00  0.00    +0.039 C 
ATOM      2  C   UNL     1       1.698   4.228  17.868  0.00  0.00    -0.032 C 
ATOM      3  C   UNL     1       2.416   2.893  17.834  0.00  0.00    -0.035 C 
ATOM      4  C   UNL     1       3.873   3.273  17.611  0.00  0.00    +0.013 C 
ATOM      5  N   UNL     1       4.017   4.606  18.206  0.00  0.00    -0.325 N 
ATOM      6  H   UNL     1       2.567   6.173  18.042  0.00  0.00    +0.051 HD
ATOM      7  H   UNL     1       1.502   4.553  16.836  0.00  0.00    +0.028 HD
ATOM      8  H   UNL     1       0.735   4.181  18.385  0.00  0.00    +0.028 HD
ATOM      9  H   UNL     1       2.037   2.233  17.048  0.00  0.00    +0.028 HD
ATOM     10  H   UNL     1       2.301   2.364  18.785  0.00  0.00    +0.028 HD
ATOM     11  H   UNL     1       4.087   3.312  16.536  0.00  0.00    +0.046 HD
ATOM     12  H   UNL     1       4.531   2.535  18.083  0.00  0.00    +0.046 HD
ENDROOT
BRANCH   5  13
ATOM     13  C   UNL     1       5.195   5.323  18.113  0.00  0.00    +0.030 A 
ATOM     14  C   UNL     1       5.396   6.322  17.147  0.00  0.00    -0.041 A 
ATOM     15  C   UNL     1       6.588   7.056  17.065  0.00  0.00    -0.060 A 
ATOM     16  C   UNL     1       7.619   6.814  17.963  0.00  0.00    -0.062 A 
ATOM     17  C   UNL     1       7.454   5.841  18.939  0.00  0.00    -0.060 A 
ATOM     18  C   UNL     1       6.259   5.113  19.008  0.00  0.00    -0.041 A 
ATOM     19  H   UNL     1       4.624   6.559  16.422  0.00  0.00    +0.064 HD
ATOM     20  H   UNL     1       6.699   7.820  16.302  0.00  0.00    +0.062 HD
ATOM     21  H   UNL     1       8.542   7.384  17.907  0.00  0.00    +0.062 HD
ATOM     22  H   UNL     1       8.245   5.646  19.657  0.00  0.00    +0.062 HD
ATOM     23  H   UNL     1       6.174   4.377  19.802  0.00  0.00    +0.064 HD
ENDBRANCH   5  13
BRANCH   1  24
ATOM     24  C   UNL     1       2.493   5.355  20.045  0.00  0.00    +0.030 C 
ATOM     25  H   UNL     1       3.458   5.295  20.557  0.00  0.00    +0.048 HD
ATOM     26  H   UNL     1       1.870   4.539  20.425  0.00  0.00    +0.048 HD
BRANCH  24  29
ATOM     27  C   UNL     1       1.956   7.762  19.734  0.00  0.00    +0.247 C 
ATOM     28  O   UNL     1       2.780   7.898  18.833  0.00  0.00    -0.270 OA
ATOM     29  N   UNL     1       1.802   6.576  20.415  0.00  0.00    -0.309 N 
ATOM     30  H   UNL     1       1.040   6.471  21.078  0.00  0.00    +0.149 HD
BRANCH  27  34
ATOM     31  C   UNL     1      -0.682  11.029  20.746  0.00  0.00    +0.066 A 
ATOM     32  C   UNL     1      -0.475  10.635  19.413  0.00  0.00    -0.047 A 
ATOM     33  C   UNL     1       0.385   9.579  19.099  0.00  0.00    -0.046 A 
ATOM     34  C   UNL     1       1.064   8.893  20.116  0.00  0.00    +0.072 A 
ATOM     35  C   UNL     1       0.860   9.286  21.442  0.00  0.00    +0.136 A 
ATOM     36  F   UNL     1       1.473   8.650  22.454  0.00  0.00    -0.205 F 
ATOM     37  C   UNL     1       0.001  10.337  21.756  0.00  0.00    -0.012 A 
ATOM     38  H   UNL     1      -1.001  11.163  18.617  0.00  0.00    +0.063 HD
ATOM     39  H   UNL     1       0.518   9.295  18.058  0.00  0.00    +0.063 HD
ATOM     40  H   UNL     1      -0.143  10.622  22.796  0.00  0.00    +0.065 HD
BRANCH  31  42
ATOM     41  O   UNL     1      -2.005  12.900  20.123  0.00  0.00    -0.241 OA
ATOM     42  C   UNL     1      -1.620  12.169  21.087  0.00  0.00    +0.387 C 
ATOM     43  O   UNL     1      -1.943  12.304  22.308  0.00  0.00    -0.241 OA
ENDBRANCH  31  42
ENDBRANCH  27  34
ENDBRANCH  24  29
ENDBRANCH   1  24
TORSDOF 5
ENDMDL
MODEL 16
REMARK VINA RESULT:    -7.325      3.181      6.992
REMARK INTER + INTRA:          -9.970
REMARK INTER:                  -9.220
REMARK INTRA:                  -0.750
REMARK UNBOUND:                -0.503
REMARK  Name = 
REMARK  5 active torsions:
REMARK  status: ('A' for Active; 'I' for Inactive)
REMARK    1  A    between atoms: C_2  and  C_4
REMARK    2  A    between atoms: C_7  and  C_8
REMARK    3  A    between atoms: N_10  and  C_11
REMARK    4  A    between atoms: C_11  and  C_12
REMARK    5  A    between atoms: N_16  and  C_17
REMARK                            x       y       z     vdW  Elec       q    Type
REMARK                         _______ _______ _______ _____ _____    ______ ____
ROOT
ATOM      1  C   UNL     1       2.932   3.137  17.932  0.00  0.00    +0.039 C 
ATOM      2  C   UNL     1       2.148   2.085  18.731  0.00  0.00    -0.032 C 
ATOM      3  C   UNL     1       2.225   2.556  20.170  0.00  0.00    -0.035 C 
ATOM      4  C   UNL     1       3.602   3.200  20.266  0.00  0.00    +0.013 C 
ATOM      5  N   UNL     1       3.893   3.685  18.913  0.00  0.00    -0.325 N 
ATOM      6  H   UNL     1       3.442   2.614  17.114  0.00  0.00    +0.051 HD
ATOM      7  H   UNL     1       2.657   1.115  18.646  0.00  0.00    +0.028 HD
ATOM      8  H   UNL     1       1.120   1.949  18.383  0.00  0.00    +0.028 HD
ATOM      9  H   UNL     1       2.102   1.738  20.886  0.00  0.00    +0.028 HD
ATOM     10  H   UNL     1       1.444   3.293  20.382  0.00  0.00    +0.028 HD
ATOM     11  H   UNL     1       4.343   2.449  20.567  0.00  0.00    +0.046 HD
ATOM     12  H   UNL     1       3.589   4.010  21.003  0.00  0.00    +0.046 HD
ENDROOT
BRANCH   5  13
ATOM     13  C   UNL     1       5.111   4.251  18.587  0.00  0.00    +0.030 A 
ATOM     14  C   UNL     1       5.839   5.045  19.488  0.00  0.00    -0.041 A 
ATOM     15  C   UNL     1       7.081   5.606  19.158  0.00  0.00    -0.060 A 
ATOM     16  C   UNL     1       7.638   5.380  17.906  0.00  0.00    -0.062 A 
ATOM     17  C   UNL     1       6.952   4.593  16.992  0.00  0.00    -0.060 A 
ATOM     18  C   UNL     1       5.711   4.039  17.334  0.00  0.00    -0.041 A 
ATOM     19  H   UNL     1       5.458   5.251  20.483  0.00  0.00    +0.064 HD
ATOM     20  H   UNL     1       7.609   6.212  19.887  0.00  0.00    +0.062 HD
ATOM     21  H   UNL     1       8.602   5.809  17.648  0.00  0.00    +0.062 HD
ATOM     22  H   UNL     1       7.377   4.396  16.012  0.00  0.00    +0.062 HD
ATOM     23  H   UNL     1       5.226   3.416  16.588  0.00  0.00    +0.064 HD
ENDBRANCH   5  13
BRANCH   1  24
ATOM     24  C   UNL     1       2.036   4.246  17.330  0.00  0.00    +0.030 C 
ATOM     25  H   UNL     1       1.105   3.808  16.955  0.00  0.00    +0.048 HD
ATOM     26  H   UNL     1       2.543   4.712  16.479  0.00  0.00    +0.048 HD
BRANCH  24  29
ATOM     27  C   UNL     1       2.396   6.541  18.212  0.00  0.00    +0.247 C 
ATOM     28  O   UNL     1       3.347   6.752  17.463  0.00  0.00    -0.270 OA
ATOM     29  N   UNL     1       1.748   5.328  18.252  0.00  0.00    -0.309 N 
ATOM     30  H   UNL     1       0.902   5.226  18.805  0.00  0.00    +0.149 HD
BRANCH  27  34
ATOM     31  C   UNL     1       0.886   9.719  20.718  0.00  0.00    +0.066 A 
ATOM     32  C   UNL     1       1.121   9.911  19.346  0.00  0.00    -0.047 A 
ATOM     33  C   UNL     1       1.615   8.875  18.548  0.00  0.00    -0.046 A 
ATOM     34  C   UNL     1       1.889   7.620  19.107  0.00  0.00    +0.072 A 
ATOM     35  C   UNL     1       1.656   7.428  20.472  0.00  0.00    +0.136 A 
ATOM     36  F   UNL     1       1.886   6.239  21.053  0.00  0.00    -0.205 F 
ATOM     37  C   UNL     1       1.163   8.459  21.269  0.00  0.00    -0.012 A 
ATOM     38  H   UNL     1       0.909  10.886  18.904  0.00  0.00    +0.063 HD
ATOM     39  H   UNL     1       1.780   9.056  17.488  0.00  0.00    +0.063 HD
ATOM     40  H   UNL     1       0.987   8.284  22.328  0.00  0.00    +0.065 HD
BRANCH  31  42
ATOM     41  O   UNL     1      -0.282  10.497  22.634  0.00  0.00    -0.241 OA
ATOM     42  C   UNL     1       0.343  10.839  21.583  0.00  0.00    +0.387 C 
ATOM     43  O   UNL     1       0.553  12.026  21.187  0.00  0.00    -0.241 OA
ENDBRANCH  31  42
ENDBRANCH  27  34
ENDBRANCH  24  29
ENDBRANCH   1  24
TORSDOF 5
ENDMDL
MODEL 17
REMARK VINA RESULT:    -7.322      3.463      5.329
REMARK INTER + INTRA:          -9.965
REMARK INTER:                  -9.436
REMARK INTRA:                  -0.529
REMARK UNBOUND:                -0.503
REMARK  Name = 
REMARK  5 active torsions:
REMARK  status: ('A' for Active; 'I' for Inactive)
REMARK    1  A    between atoms: C_2  and  C_4
REMARK    2  A    between atoms: C_7  and  C_8
REMARK    3  A    between atoms: N_10  and  C_11
REMARK    4  A    between atoms: C_11  and  C_12
REMARK    5  A    between atoms: N_16  and  C_17
REMARK                            x       y       z     vdW  Elec       q    Type
REMARK                         _______ _______ _______ _____ _____    ______ ____
ROOT
ATOM      1  C   UNL     1       1.073   9.106  21.401  0.00  0.00    +0.039 C 
ATOM      2  C   UNL     1       1.510   9.276  22.863  0.00  0.00    -0.032 C 
ATOM      3  C   UNL     1       0.219   9.489  23.630  0.00  0.00    -0.035 C 
ATOM      4  C   UNL     1      -0.656  10.264  22.653  0.00  0.00    +0.013 C 
ATOM      5  N   UNL     1      -0.201   9.852  21.321  0.00  0.00    -0.325 N 
ATOM      6  H   UNL     1       1.849   9.563  20.773  0.00  0.00    +0.051 HD
ATOM      7  H   UNL     1       2.130  10.178  22.953  0.00  0.00    +0.028 HD
ATOM      8  H   UNL     1       2.096   8.435  23.244  0.00  0.00    +0.028 HD
ATOM      9  H   UNL     1       0.373  10.035  24.566  0.00  0.00    +0.028 HD
ATOM     10  H   UNL     1      -0.247   8.533  23.884  0.00  0.00    +0.028 HD
ATOM     11  H   UNL     1      -0.503  11.341  22.790  0.00  0.00    +0.046 HD
ATOM     12  H   UNL     1      -1.712  10.025  22.823  0.00  0.00    +0.046 HD
ENDROOT
BRANCH   5  13
ATOM     13  C   UNL     1      -0.707  10.422  20.169  0.00  0.00    +0.030 A 
ATOM     14  C   UNL     1      -1.379  11.655  20.169  0.00  0.00    -0.041 A 
ATOM     15  C   UNL     1      -1.878  12.236  18.995  0.00  0.00    -0.060 A 
ATOM     16  C   UNL     1      -1.712  11.597  17.774  0.00  0.00    -0.062 A 
ATOM     17  C   UNL     1      -1.044  10.381  17.732  0.00  0.00    -0.060 A 
ATOM     18  C   UNL     1      -0.551   9.809  18.913  0.00  0.00    -0.041 A 
ATOM     19  H   UNL     1      -1.534  12.205  21.092  0.00  0.00    +0.064 HD
ATOM     20  H   UNL     1      -2.390  13.193  19.043  0.00  0.00    +0.062 HD
ATOM     21  H   UNL     1      -2.093  12.046  16.861  0.00  0.00    +0.062 HD
ATOM     22  H   UNL     1      -0.895   9.871  16.785  0.00  0.00    +0.062 HD
ATOM     23  H   UNL     1      -0.021   8.866  18.822  0.00  0.00    +0.064 HD
ENDBRANCH   5  13
BRANCH   1  24
ATOM     24  C   UNL     1       0.898   7.629  20.978  0.00  0.00    +0.030 C 
ATOM     25  H   UNL     1      -0.056   7.503  20.455  0.00  0.00    +0.048 HD
ATOM     26  H   UNL     1       0.869   6.989  21.866  0.00  0.00    +0.048 HD
BRANCH  24  29
ATOM     27  C   UNL     1       2.287   5.781  20.066  0.00  0.00    +0.247 C 
ATOM     28  O   UNL     1       1.723   4.930  20.750  0.00  0.00    -0.270 OA
ATOM     29  N   UNL     1       1.988   7.120  20.167  0.00  0.00    -0.309 N 
ATOM     30  H   UNL     1       2.398   7.780  19.512  0.00  0.00    +0.149 HD
BRANCH  27  34
ATOM     31  C   UNL     1       5.361   4.614  17.265  0.00  0.00    +0.066 A 
ATOM     32  C   UNL     1       5.678   5.135  18.531  0.00  0.00    -0.047 A 
ATOM     33  C   UNL     1       4.673   5.514  19.426  0.00  0.00    -0.046 A 
ATOM     34  C   UNL     1       3.323   5.383  19.072  0.00  0.00    +0.072 A 
ATOM     35  C   UNL     1       3.008   4.865  17.812  0.00  0.00    +0.136 A 
ATOM     36  F   UNL     1       1.730   4.703  17.430  0.00  0.00    -0.205 F 
ATOM     37  C   UNL     1       4.008   4.486  16.919  0.00  0.00    -0.012 A 
ATOM     38  H   UNL     1       6.726   5.239  18.815  0.00  0.00    +0.063 HD
ATOM     39  H   UNL     1       4.952   5.908  20.400  0.00  0.00    +0.063 HD
ATOM     40  H   UNL     1       3.737   4.083  15.946  0.00  0.00    +0.065 HD
BRANCH  31  42
ATOM     41  O   UNL     1       6.073   3.663  15.208  0.00  0.00    -0.241 OA
ATOM     42  C   UNL     1       6.450   4.196  16.297  0.00  0.00    +0.387 C 
ATOM     43  O   UNL     1       7.650   4.408  16.653  0.00  0.00    -0.241 OA
ENDBRANCH  31  42
ENDBRANCH  27  34
ENDBRANCH  24  29
ENDBRANCH   1  24
TORSDOF 5
ENDMDL
MODEL 18
REMARK VINA RESULT:    -7.318      5.036      8.465
REMARK INTER + INTRA:          -9.960
REMARK INTER:                  -9.230
REMARK INTRA:                  -0.730
REMARK UNBOUND:                -0.503
REMARK  Name = 
REMARK  5 active torsions:
REMARK  status: ('A' for Active; 'I' for Inactive)
REMARK    1  A    between atoms: C_2  and  C_4
REMARK    2  A    between atoms: C_7  and  C_8
REMARK    3  A    between atoms: N_10  and  C_11
REMARK    4  A    between atoms: C_11  and  C_12
REMARK    5  A    between atoms: N_16  and  C_17
REMARK                            x       y       z     vdW  Elec       q    Type
REMARK                         _______ _______ _______ _____ _____    ______ ____
ROOT
ATOM      1  C   UNL     1       2.715   6.065  18.115  0.00  0.00    +0.039 C 
ATOM      2  C   UNL     1       1.703   5.491  19.117  0.00  0.00    -0.032 C 
ATOM      3  C   UNL     1       2.540   5.061  20.307  0.00  0.00    -0.035 C 
ATOM      4  C   UNL     1       3.845   4.590  19.680  0.00  0.00    +0.013 C 
ATOM      5  N   UNL     1       3.976   5.365  18.441  0.00  0.00    -0.325 N 
ATOM      6  H   UNL     1       2.360   5.810  17.109  0.00  0.00    +0.051 HD
ATOM      7  H   UNL     1       1.225   4.604  18.680  0.00  0.00    +0.028 HD
ATOM      8  H   UNL     1       0.909   6.193  19.387  0.00  0.00    +0.028 HD
ATOM      9  H   UNL     1       2.058   4.274  20.896  0.00  0.00    +0.028 HD
ATOM     10  H   UNL     1       2.723   5.904  20.980  0.00  0.00    +0.028 HD
ATOM     11  H   UNL     1       3.783   3.519  19.452  0.00  0.00    +0.046 HD
ATOM     12  H   UNL     1       4.679   4.765  20.368  0.00  0.00    +0.046 HD
ENDROOT
BRANCH   5  13
ATOM     13  C   UNL     1       5.004   5.142  17.546  0.00  0.00    +0.030 A 
ATOM     14  C   UNL     1       4.812   5.160  16.155  0.00  0.00    -0.041 A 
ATOM     15  C   UNL     1       5.861   4.946  15.251  0.00  0.00    -0.060 A 
ATOM     16  C   UNL     1       7.148   4.713  15.717  0.00  0.00    -0.062 A 
ATOM     17  C   UNL     1       7.380   4.698  17.085  0.00  0.00    -0.060 A 
ATOM     18  C   UNL     1       6.322   4.911  17.979  0.00  0.00    -0.041 A 
ATOM     19  H   UNL     1       3.829   5.342  15.732  0.00  0.00    +0.064 HD
ATOM     20  H   UNL     1       5.665   4.970  14.183  0.00  0.00    +0.062 HD
ATOM     21  H   UNL     1       7.965   4.552  15.019  0.00  0.00    +0.062 HD
ATOM     22  H   UNL     1       8.382   4.529  17.469  0.00  0.00    +0.062 HD
ATOM     23  H   UNL     1       6.562   4.907  19.038  0.00  0.00    +0.064 HD
ENDBRANCH   5  13
BRANCH   1  24
ATOM     24  C   UNL     1       2.873   7.601  18.211  0.00  0.00    +0.030 C 
ATOM     25  H   UNL     1       3.368   7.980  17.311  0.00  0.00    +0.048 HD
ATOM     26  H   UNL     1       3.509   7.856  19.065  0.00  0.00    +0.048 HD
BRANCH  24  29
ATOM     27  C   UNL     1       1.452   9.638  18.146  0.00  0.00    +0.247 C 
ATOM     28  O   UNL     1       2.383  10.357  17.790  0.00  0.00    -0.270 OA
ATOM     29  N   UNL     1       1.623   8.303  18.432  0.00  0.00    -0.309 N 
ATOM     30  H   UNL     1       0.813   7.719  18.619  0.00  0.00    +0.149 HD
BRANCH  27  34
ATOM     31  C   UNL     1      -2.580  11.158  18.443  0.00  0.00    +0.066 A 
ATOM     32  C   UNL     1      -2.234  10.166  17.510  0.00  0.00    -0.047 A 
ATOM     33  C   UNL     1      -0.924   9.686  17.421  0.00  0.00    -0.046 A 
ATOM     34  C   UNL     1       0.074  10.194  18.265  0.00  0.00    +0.072 A 
ATOM     35  C   UNL     1      -0.270  11.182  19.192  0.00  0.00    +0.136 A 
ATOM     36  F   UNL     1       0.645  11.688  20.035  0.00  0.00    -0.205 F 
ATOM     37  C   UNL     1      -1.576  11.660  19.283  0.00  0.00    -0.012 A 
ATOM     38  H   UNL     1      -3.006   9.766  16.851  0.00  0.00    +0.063 HD
ATOM     39  H   UNL     1      -0.691   8.914  16.692  0.00  0.00    +0.063 HD
ATOM     40  H   UNL     1      -1.819  12.426  20.015  0.00  0.00    +0.065 HD
BRANCH  31  42
ATOM     41  O   UNL     1      -4.775  11.415  17.571  0.00  0.00    -0.241 OA
ATOM     42  C   UNL     1      -4.002  11.673  18.545  0.00  0.00    +0.387 C 
ATOM     43  O   UNL     1      -4.306  12.323  19.592  0.00  0.00    -0.241 OA
ENDBRANCH  31  42
ENDBRANCH  27  34
ENDBRANCH  24  29
ENDBRANCH   1  24
TORSDOF 5
ENDMDL
MODEL 19
REMARK VINA RESULT:    -7.287      3.248      5.142
REMARK INTER + INTRA:          -9.920
REMARK INTER:                  -9.582
REMARK INTRA:                  -0.338
REMARK UNBOUND:                -0.503
REMARK  Name = 
REMARK  5 active torsions:
REMARK  status: ('A' for Active; 'I' for Inactive)
REMARK    1  A    between atoms: C_2  and  C_4
REMARK    2  A    between atoms: C_7  and  C_8
REMARK    3  A    between atoms: N_10  and  C_11
REMARK    4  A    between atoms: C_11  and  C_12
REMARK    5  A    between atoms: N_16  and  C_17
REMARK                            x       y       z     vdW  Elec       q    Type
REMARK                         _______ _______ _______ _____ _____    ______ ____
ROOT
ATOM      1  C   UNL     1       0.843   9.250  19.121  0.00  0.00    +0.039 C 
ATOM      2  C   UNL     1       1.313   9.713  17.734  0.00  0.00    -0.032 C 
ATOM      3  C   UNL     1       2.145  10.952  18.002  0.00  0.00    -0.035 C 
ATOM      4  C   UNL     1       1.455  11.600  19.195  0.00  0.00    +0.013 C 
ATOM      5  N   UNL     1       0.833  10.490  19.926  0.00  0.00    -0.325 N 
ATOM      6  H   UNL     1      -0.166   8.835  19.004  0.00  0.00    +0.051 HD
ATOM      7  H   UNL     1       0.438   9.995  17.133  0.00  0.00    +0.028 HD
ATOM      8  H   UNL     1       1.860   8.945  17.180  0.00  0.00    +0.028 HD
ATOM      9  H   UNL     1       2.188  11.623  17.138  0.00  0.00    +0.028 HD
ATOM     10  H   UNL     1       3.174  10.684  18.257  0.00  0.00    +0.028 HD
ATOM     11  H   UNL     1       0.687  12.301  18.846  0.00  0.00    +0.046 HD
ATOM     12  H   UNL     1       2.186  12.139  19.807  0.00  0.00    +0.046 HD
ENDROOT
BRANCH   5  13
ATOM     13  C   UNL     1       0.030  10.703  21.030  0.00  0.00    +0.030 A 
ATOM     14  C   UNL     1       0.057   9.863  22.156  0.00  0.00    -0.041 A 
ATOM     15  C   UNL     1      -0.750  10.091  23.280  0.00  0.00    -0.060 A 
ATOM     16  C   UNL     1      -1.610  11.180  23.313  0.00  0.00    -0.062 A 
ATOM     17  C   UNL     1      -1.657  12.038  22.223  0.00  0.00    -0.060 A 
ATOM     18  C   UNL     1      -0.847  11.799  21.105  0.00  0.00    -0.041 A 
ATOM     19  H   UNL     1       0.713   9.000  22.191  0.00  0.00    +0.064 HD
ATOM     20  H   UNL     1      -0.695   9.416  24.129  0.00  0.00    +0.062 HD
ATOM     21  H   UNL     1      -2.233  11.363  24.184  0.00  0.00    +0.062 HD
ATOM     22  H   UNL     1      -2.316  12.902  22.235  0.00  0.00    +0.062 HD
ATOM     23  H   UNL     1      -0.910  12.511  20.287  0.00  0.00    +0.064 HD
ENDBRANCH   5  13
BRANCH   1  24
ATOM     24  C   UNL     1       1.754   8.169  19.750  0.00  0.00    +0.030 C 
ATOM     25  H   UNL     1       1.140   7.390  20.213  0.00  0.00    +0.048 HD
ATOM     26  H   UNL     1       2.367   8.613  20.541  0.00  0.00    +0.048 HD
BRANCH  24  29
ATOM     27  C   UNL     1       2.999   6.239  18.801  0.00  0.00    +0.247 C 
ATOM     28  O   UNL     1       2.583   5.463  19.659  0.00  0.00    -0.270 OA
ATOM     29  N   UNL     1       2.693   7.581  18.814  0.00  0.00    -0.309 N 
ATOM     30  H   UNL     1       2.966   8.168  18.032  0.00  0.00    +0.149 HD
BRANCH  27  34
ATOM     31  C   UNL     1       5.524   4.886  15.569  0.00  0.00    +0.066 A 
ATOM     32  C   UNL     1       5.393   6.250  15.878  0.00  0.00    -0.047 A 
ATOM     33  C   UNL     1       4.568   6.675  16.924  0.00  0.00    -0.046 A 
ATOM     34  C   UNL     1       3.850   5.741  17.684  0.00  0.00    +0.072 A 
ATOM     35  C   UNL     1       3.981   4.383  17.375  0.00  0.00    +0.136 A 
ATOM     36  F   UNL     1       3.328   3.447  18.084  0.00  0.00    -0.205 F 
ATOM     37  C   UNL     1       4.803   3.958  16.334  0.00  0.00    -0.012 A 
ATOM     38  H   UNL     1       5.949   6.983  15.292  0.00  0.00    +0.063 HD
ATOM     39  H   UNL     1       4.492   7.738  17.141  0.00  0.00    +0.063 HD
ATOM     40  H   UNL     1       4.890   2.896  16.116  0.00  0.00    +0.065 HD
BRANCH  31  42
ATOM     41  O   UNL     1       7.552   4.999  14.337  0.00  0.00    -0.241 OA
ATOM     42  C   UNL     1       6.424   4.424  14.441  0.00  0.00    +0.387 C 
ATOM     43  O   UNL     1       5.979   3.503  13.688  0.00  0.00    -0.241 OA
ENDBRANCH  31  42
ENDBRANCH  27  34
ENDBRANCH  24  29
ENDBRANCH   1  24
TORSDOF 5
ENDMDL
MODEL 20
REMARK VINA RESULT:    -7.284      3.397      5.501
REMARK INTER + INTRA:          -9.917
REMARK INTER:                  -9.385
REMARK INTRA:                  -0.531
REMARK UNBOUND:                -0.503
REMARK  Name = 
REMARK  5 active torsions:
REMARK  status: ('A' for Active; 'I' for Inactive)
REMARK    1  A    between atoms: C_2  and  C_4
REMARK    2  A    between atoms: C_7  and  C_8
REMARK    3  A    between atoms: N_10  and  C_11
REMARK    4  A    between atoms: C_11  and  C_12
REMARK    5  A    between atoms: N_16  and  C_17
REMARK                            x       y       z     vdW  Elec       q    Type
REMARK                         _______ _______ _______ _____ _____    ______ ____
ROOT
ATOM      1  C   UNL     1       0.981   9.433  21.986  0.00  0.00    +0.039 C 
ATOM      2  C   UNL     1       0.302   9.488  23.363  0.00  0.00    -0.032 C 
ATOM      3  C   UNL     1      -0.989  10.247  23.128  0.00  0.00    -0.035 C 
ATOM      4  C   UNL     1      -0.622  11.258  22.049  0.00  0.00    +0.013 C 
ATOM      5  N   UNL     1       0.460  10.627  21.286  0.00  0.00    -0.325 N 
ATOM      6  H   UNL     1       2.063   9.502  22.152  0.00  0.00    +0.051 HD
ATOM      7  H   UNL     1       0.933  10.064  24.054  0.00  0.00    +0.028 HD
ATOM      8  H   UNL     1       0.141   8.502  23.809  0.00  0.00    +0.028 HD
ATOM      9  H   UNL     1      -1.362  10.731  24.036  0.00  0.00    +0.028 HD
ATOM     10  H   UNL     1      -1.777   9.577  22.770  0.00  0.00    +0.028 HD
ATOM     11  H   UNL     1      -0.267  12.185  22.514  0.00  0.00    +0.046 HD
ATOM     12  H   UNL     1      -1.496  11.477  21.426  0.00  0.00    +0.046 HD
ENDROOT
BRANCH   5  13
ATOM     13  C   UNL     1       1.120  11.292  20.270  0.00  0.00    +0.030 A 
ATOM     14  C   UNL     1       1.660  12.577  20.436  0.00  0.00    -0.041 A 
ATOM     15  C   UNL     1       2.341  13.243  19.407  0.00  0.00    -0.060 A 
ATOM     16  C   UNL     1       2.508  12.631  18.172  0.00  0.00    -0.062 A 
ATOM     17  C   UNL     1       1.997  11.356  17.973  0.00  0.00    -0.060 A 
ATOM     18  C   UNL     1       1.317  10.703  19.009  0.00  0.00    -0.041 A 
ATOM     19  H   UNL     1       1.566  13.103  21.381  0.00  0.00    +0.064 HD
ATOM     20  H   UNL     1       2.743  14.236  19.581  0.00  0.00    +0.062 HD
ATOM     21  H   UNL     1       3.040  13.141  17.373  0.00  0.00    +0.062 HD
ATOM     22  H   UNL     1       2.128  10.857  17.017  0.00  0.00    +0.062 HD
ATOM     23  H   UNL     1       0.953   9.700  18.806  0.00  0.00    +0.064 HD
ENDBRANCH   5  13
BRANCH   1  24
ATOM     24  C   UNL     1       0.679   8.134  21.202  0.00  0.00    +0.030 C 
ATOM     25  H   UNL     1      -0.179   8.291  20.541  0.00  0.00    +0.048 HD
ATOM     26  H   UNL     1       0.412   7.333  21.899  0.00  0.00    +0.048 HD
BRANCH  24  29
ATOM     27  C   UNL     1       2.002   6.297  20.179  0.00  0.00    +0.247 C 
ATOM     28  O   UNL     1       1.285   5.422  20.661  0.00  0.00    -0.270 OA
ATOM     29  N   UNL     1       1.811   7.632  20.447  0.00  0.00    -0.309 N 
ATOM     30  H   UNL     1       2.356   8.330  19.948  0.00  0.00    +0.149 HD
BRANCH  27  34
ATOM     31  C   UNL     1       5.233   5.350  17.472  0.00  0.00    +0.066 A 
ATOM     32  C   UNL     1       4.468   6.520  17.326  0.00  0.00    -0.047 A 
ATOM     33  C   UNL     1       3.422   6.812  18.207  0.00  0.00    -0.046 A 
ATOM     34  C   UNL     1       3.113   5.934  19.255  0.00  0.00    +0.072 A 
ATOM     35  C   UNL     1       3.873   4.769  19.399  0.00  0.00    +0.136 A 
ATOM     36  F   UNL     1       3.629   3.904  20.397  0.00  0.00    -0.205 F 
ATOM     37  C   UNL     1       4.917   4.478  18.524  0.00  0.00    -0.012 A 
ATOM     38  H   UNL     1       4.704   7.209  16.514  0.00  0.00    +0.063 HD
ATOM     39  H   UNL     1       2.854   7.729  18.069  0.00  0.00    +0.063 HD
ATOM     40  H   UNL     1       5.495   3.567  18.660  0.00  0.00    +0.065 HD
BRANCH  31  42
ATOM     41  O   UNL     1       7.364   4.410  17.009  0.00  0.00    -0.241 OA
ATOM     42  C   UNL     1       6.372   5.037  16.523  0.00  0.00    +0.387 C 
ATOM     43  O   UNL     1       6.245   5.428  15.322  0.00  0.00    -0.241 OA
ENDBRANCH  31  42
ENDBRANCH  27  34
ENDBRANCH  24  29
ENDBRANCH   1  24
TORSDOF 5
ENDMDL
MODEL 21
REMARK VINA RESULT:    -7.275      4.300      7.393
REMARK INTER + INTRA:          -9.905
REMARK INTER:                  -9.249
REMARK INTRA:                  -0.656
REMARK UNBOUND:                -0.503
REMARK  Name = 
REMARK  5 active torsions:
REMARK  status: ('A' for Active; 'I' for Inactive)
REMARK    1  A    between atoms: C_2  and  C_4
REMARK    2  A    between atoms: C_7  and  C_8
REMARK    3  A    between atoms: N_10  and  C_11
REMARK    4  A    between atoms: C_11  and  C_12
REMARK    5  A    between atoms: N_16  and  C_17
REMARK                            x       y       z     vdW  Elec       q    Type
REMARK                         _______ _______ _______ _____ _____    ______ ____
ROOT
ATOM      1  C   UNL     1       1.916   4.820  19.865  0.00  0.00    +0.039 C 
ATOM      2  C   UNL     1       0.829   3.856  20.363  0.00  0.00    -0.032 C 
ATOM      3  C   UNL     1       1.591   2.717  21.012  0.00  0.00    -0.035 C 
ATOM      4  C   UNL     1       2.852   2.599  20.167  0.00  0.00    +0.013 C 
ATOM      5  N   UNL     1       3.089   3.948  19.643  0.00  0.00    -0.325 N 
ATOM      6  H   UNL     1       1.556   5.261  18.926  0.00  0.00    +0.051 HD
ATOM      7  H   UNL     1       0.269   3.466  19.502  0.00  0.00    +0.028 HD
ATOM      8  H   UNL     1       0.107   4.324  21.040  0.00  0.00    +0.028 HD
ATOM      9  H   UNL     1       1.017   1.785  21.028  0.00  0.00    +0.028 HD
ATOM     10  H   UNL     1       1.847   2.958  22.048  0.00  0.00    +0.028 HD
ATOM     11  H   UNL     1       2.683   1.897  19.342  0.00  0.00    +0.046 HD
ATOM     12  H   UNL     1       3.685   2.241  20.781  0.00  0.00    +0.046 HD
ENDROOT
BRANCH   5  13
ATOM     13  C   UNL     1       4.107   4.215  18.747  0.00  0.00    +0.030 A 
ATOM     14  C   UNL     1       5.318   4.811  19.136  0.00  0.00    -0.041 A 
ATOM     15  C   UNL     1       6.353   5.067  18.226  0.00  0.00    -0.060 A 
ATOM     16  C   UNL     1       6.208   4.724  16.889  0.00  0.00    -0.062 A 
ATOM     17  C   UNL     1       5.030   4.123  16.468  0.00  0.00    -0.060 A 
ATOM     18  C   UNL     1       4.001   3.875  17.387  0.00  0.00    -0.041 A 
ATOM     19  H   UNL     1       5.491   5.096  20.169  0.00  0.00    +0.064 HD
ATOM     20  H   UNL     1       7.273   5.529  18.573  0.00  0.00    +0.062 HD
ATOM     21  H   UNL     1       7.010   4.916  16.182  0.00  0.00    +0.062 HD
ATOM     22  H   UNL     1       4.902   3.837  15.428  0.00  0.00    +0.062 HD
ATOM     23  H   UNL     1       3.108   3.386  17.009  0.00  0.00    +0.064 HD
ENDBRANCH   5  13
BRANCH   1  24
ATOM     24  C   UNL     1       2.232   5.960  20.861  0.00  0.00    +0.030 C 
ATOM     25  H   UNL     1       3.258   5.859  21.227  0.00  0.00    +0.048 HD
ATOM     26  H   UNL     1       1.567   5.891  21.728  0.00  0.00    +0.048 HD
BRANCH  24  29
ATOM     27  C   UNL     1       1.004   8.117  20.727  0.00  0.00    +0.247 C 
ATOM     28  O   UNL     1       0.131   7.745  21.508  0.00  0.00    -0.270 OA
ATOM     29  N   UNL     1       2.021   7.287  20.314  0.00  0.00    -0.309 N 
ATOM     30  H   UNL     1       2.781   7.663  19.754  0.00  0.00    +0.149 HD
BRANCH  27  34
ATOM     31  C   UNL     1       1.025  12.198  19.312  0.00  0.00    +0.066 A 
ATOM     32  C   UNL     1       0.886  11.892  20.676  0.00  0.00    -0.047 A 
ATOM     33  C   UNL     1       0.876  10.566  21.120  0.00  0.00    -0.046 A 
ATOM     34  C   UNL     1       1.001   9.512  20.205  0.00  0.00    +0.072 A 
ATOM     35  C   UNL     1       1.139   9.816  18.847  0.00  0.00    +0.136 A 
ATOM     36  F   UNL     1       1.280   8.844  17.931  0.00  0.00    -0.205 F 
ATOM     37  C   UNL     1       1.150  11.137  18.403  0.00  0.00    -0.012 A 
ATOM     38  H   UNL     1       0.789  12.707  21.395  0.00  0.00    +0.063 HD
ATOM     39  H   UNL     1       0.772  10.365  22.184  0.00  0.00    +0.063 HD
ATOM     40  H   UNL     1       1.262  11.347  17.342  0.00  0.00    +0.065 HD
BRANCH  31  42
ATOM     41  O   UNL     1       2.181  14.197  18.757  0.00  0.00    -0.241 OA
ATOM     42  C   UNL     1       1.045  13.634  18.831  0.00  0.00    +0.387 C 
ATOM     43  O   UNL     1      -0.074  14.161  18.544  0.00  0.00    -0.241 OA
ENDBRANCH  31  42
ENDBRANCH  27  34
ENDBRANCH  24  29
ENDBRANCH   1  24
TORSDOF 5
ENDMDL
MODEL 22
REMARK VINA RESULT:    -7.243      3.298      7.276
REMARK INTER + INTRA:          -9.864
REMARK INTER:                  -8.969
REMARK INTRA:                  -0.895
REMARK UNBOUND:                -0.503
REMARK  Name = 
REMARK  5 active torsions:
REMARK  status: ('A' for Active; 'I' for Inactive)
REMARK    1  A    between atoms: C_2  and  C_4
REMARK    2  A    between atoms: C_7  and  C_8
REMARK    3  A    between atoms: N_10  and  C_11
REMARK    4  A    between atoms: C_11  and  C_12
REMARK    5  A    between atoms: N_16  and  C_17
REMARK                            x       y       z     vdW  Elec       q    Type
REMARK                         _______ _______ _______ _____ _____    ______ ____
ROOT
ATOM      1  C   UNL     1       5.025   5.242  15.789  0.00  0.00    +0.039 C 
ATOM      2  C   UNL     1       4.968   4.606  14.392  0.00  0.00    -0.032 C 
ATOM      3  C   UNL     1       6.127   3.628  14.365  0.00  0.00    -0.035 C 
ATOM      4  C   UNL     1       7.192   4.308  15.214  0.00  0.00    +0.013 C 
ATOM      5  N   UNL     1       6.449   5.136  16.170  0.00  0.00    -0.325 N 
ATOM      6  H   UNL     1       4.710   6.287  15.685  0.00  0.00    +0.051 HD
ATOM      7  H   UNL     1       5.140   5.382  13.634  0.00  0.00    +0.028 HD
ATOM      8  H   UNL     1       4.007   4.133  14.166  0.00  0.00    +0.028 HD
ATOM      9  H   UNL     1       6.478   3.423  13.349  0.00  0.00    +0.028 HD
ATOM     10  H   UNL     1       5.839   2.670  14.809  0.00  0.00    +0.028 HD
ATOM     11  H   UNL     1       7.827   4.938  14.580  0.00  0.00    +0.046 HD
ATOM     12  H   UNL     1       7.813   3.556  15.713  0.00  0.00    +0.046 HD
ENDROOT
BRANCH   5  13
ATOM     13  C   UNL     1       7.090   5.983  17.054  0.00  0.00    +0.030 A 
ATOM     14  C   UNL     1       7.237   7.358  16.810  0.00  0.00    -0.041 A 
ATOM     15  C   UNL     1       7.877   8.216  17.717  0.00  0.00    -0.060 A 
ATOM     16  C   UNL     1       8.386   7.717  18.908  0.00  0.00    -0.062 A 
ATOM     17  C   UNL     1       8.251   6.365  19.189  0.00  0.00    -0.060 A 
ATOM     18  C   UNL     1       7.612   5.518  18.274  0.00  0.00    -0.041 A 
ATOM     19  H   UNL     1       6.855   7.806  15.899  0.00  0.00    +0.064 HD
ATOM     20  H   UNL     1       7.966   9.273  17.486  0.00  0.00    +0.062 HD
ATOM     21  H   UNL     1       8.877   8.379  19.616  0.00  0.00    +0.062 HD
ATOM     22  H   UNL     1       8.633   5.959  20.122  0.00  0.00    +0.062 HD
ATOM     23  H   UNL     1       7.517   4.472  18.552  0.00  0.00    +0.064 HD
ENDBRANCH   5  13
BRANCH   1  24
ATOM     24  C   UNL     1       4.105   4.546  16.820  0.00  0.00    +0.030 C 
ATOM     25  H   UNL     1       4.712   3.995  17.546  0.00  0.00    +0.048 HD
ATOM     26  H   UNL     1       3.462   3.818  16.314  0.00  0.00    +0.048 HD
BRANCH  24  29
ATOM     27  C   UNL     1       3.463   5.974  18.749  0.00  0.00    +0.247 C 
ATOM     28  O   UNL     1       4.428   5.615  19.422  0.00  0.00    -0.270 OA
ATOM     29  N   UNL     1       3.203   5.453  17.503  0.00  0.00    -0.309 N 
ATOM     30  H   UNL     1       2.460   5.852  16.935  0.00  0.00    +0.149 HD
BRANCH  27  34
ATOM     31  C   UNL     1       0.795   8.975  20.342  0.00  0.00    +0.066 A 
ATOM     32  C   UNL     1       1.126   7.821  21.072  0.00  0.00    -0.047 A 
ATOM     33  C   UNL     1       1.987   6.855  20.543  0.00  0.00    -0.046 A 
ATOM     34  C   UNL     1       2.536   7.021  19.264  0.00  0.00    +0.072 A 
ATOM     35  C   UNL     1       2.206   8.169  18.537  0.00  0.00    +0.136 A 
ATOM     36  F   UNL     1       2.719   8.384  17.314  0.00  0.00    -0.205 F 
ATOM     37  C   UNL     1       1.349   9.133  19.064  0.00  0.00    -0.012 A 
ATOM     38  H   UNL     1       0.703   7.685  22.069  0.00  0.00    +0.063 HD
ATOM     39  H   UNL     1       2.226   5.976  21.136  0.00  0.00    +0.063 HD
ATOM     40  H   UNL     1       1.111  10.018  18.479  0.00  0.00    +0.065 HD
BRANCH  31  42
ATOM     41  O   UNL     1      -0.204  10.091  22.185  0.00  0.00    -0.241 OA
ATOM     42  C   UNL     1      -0.132  10.026  20.919  0.00  0.00    +0.387 C 
ATOM     43  O   UNL     1      -0.763  10.753  20.092  0.00  0.00    -0.241 OA
ENDBRANCH  31  42
ENDBRANCH  27  34
ENDBRANCH  24  29
ENDBRANCH   1  24
TORSDOF 5
ENDMDL
MODEL 23
REMARK VINA RESULT:    -7.225      4.859      7.531
REMARK INTER + INTRA:          -9.840
REMARK INTER:                  -9.167
REMARK INTRA:                  -0.673
REMARK UNBOUND:                -0.503
REMARK  Name = 
REMARK  5 active torsions:
REMARK  status: ('A' for Active; 'I' for Inactive)
REMARK    1  A    between atoms: C_2  and  C_4
REMARK    2  A    between atoms: C_7  and  C_8
REMARK    3  A    between atoms: N_10  and  C_11
REMARK    4  A    between atoms: C_11  and  C_12
REMARK    5  A    between atoms: N_16  and  C_17
REMARK                            x       y       z     vdW  Elec       q    Type
REMARK                         _______ _______ _______ _____ _____    ______ ____
ROOT
ATOM      1  C   UNL     1      -0.680  11.685  20.327  0.00  0.00    +0.039 C 
ATOM      2  C   UNL     1      -0.439  12.922  21.205  0.00  0.00    -0.032 C 
ATOM      3  C   UNL     1      -1.826  13.374  21.623  0.00  0.00    -0.035 C 
ATOM      4  C   UNL     1      -2.693  13.041  20.417  0.00  0.00    +0.013 C 
ATOM      5  N   UNL     1      -2.035  11.898  19.775  0.00  0.00    -0.325 N 
ATOM      6  H   UNL     1       0.083  11.691  19.538  0.00  0.00    +0.051 HD
ATOM      7  H   UNL     1       0.024  13.712  20.597  0.00  0.00    +0.028 HD
ATOM      8  H   UNL     1       0.221  12.732  22.056  0.00  0.00    +0.028 HD
ATOM      9  H   UNL     1      -1.861  14.438  21.876  0.00  0.00    +0.028 HD
ATOM     10  H   UNL     1      -2.167  12.820  22.503  0.00  0.00    +0.028 HD
ATOM     11  H   UNL     1      -2.720  13.897  19.731  0.00  0.00    +0.046 HD
ATOM     12  H   UNL     1      -3.712  12.804  20.740  0.00  0.00    +0.046 HD
ENDROOT
BRANCH   5  13
ATOM     13  C   UNL     1      -2.489  11.370  18.582  0.00  0.00    +0.030 A 
ATOM     14  C   UNL     1      -1.685  10.565  17.758  0.00  0.00    -0.041 A 
ATOM     15  C   UNL     1      -2.155  10.021  16.555  0.00  0.00    -0.060 A 
ATOM     16  C   UNL     1      -3.457  10.263  16.140  0.00  0.00    -0.062 A 
ATOM     17  C   UNL     1      -4.285  11.046  16.932  0.00  0.00    -0.060 A 
ATOM     18  C   UNL     1      -3.804  11.586  18.132  0.00  0.00    -0.041 A 
ATOM     19  H   UNL     1      -0.661  10.336  18.033  0.00  0.00    +0.064 HD
ATOM     20  H   UNL     1      -1.497   9.403  15.950  0.00  0.00    +0.062 HD
ATOM     21  H   UNL     1      -3.827   9.839  15.211  0.00  0.00    +0.062 HD
ATOM     22  H   UNL     1      -5.311  11.237  16.630  0.00  0.00    +0.062 HD
ATOM     23  H   UNL     1      -4.498  12.176  18.723  0.00  0.00    +0.064 HD
ENDBRANCH   5  13
BRANCH   1  24
ATOM     24  C   UNL     1      -0.582  10.351  21.103  0.00  0.00    +0.030 C 
ATOM     25  H   UNL     1      -1.586   9.995  21.356  0.00  0.00    +0.048 HD
ATOM     26  H   UNL     1      -0.044  10.506  22.044  0.00  0.00    +0.048 HD
BRANCH  24  29
ATOM     27  C   UNL     1       1.180   8.603  20.975  0.00  0.00    +0.247 C 
ATOM     28  O   UNL     1       1.619   8.869  22.092  0.00  0.00    -0.270 OA
ATOM     29  N   UNL     1       0.156   9.319  20.399  0.00  0.00    -0.309 N 
ATOM     30  H   UNL     1      -0.249   9.003  19.522  0.00  0.00    +0.149 HD
BRANCH  27  34
ATOM     31  C   UNL     1       2.741   5.228  18.777  0.00  0.00    +0.066 A 
ATOM     32  C   UNL     1       2.118   5.069  20.026  0.00  0.00    -0.047 A 
ATOM     33  C   UNL     1       1.622   6.171  20.729  0.00  0.00    -0.046 A 
ATOM     34  C   UNL     1       1.742   7.462  20.198  0.00  0.00    +0.072 A 
ATOM     35  C   UNL     1       2.363   7.621  18.955  0.00  0.00    +0.136 A 
ATOM     36  F   UNL     1       2.487   8.835  18.394  0.00  0.00    -0.205 F 
ATOM     37  C   UNL     1       2.857   6.524  18.253  0.00  0.00    -0.012 A 
ATOM     38  H   UNL     1       2.020   4.067  20.446  0.00  0.00    +0.063 HD
ATOM     39  H   UNL     1       1.140   6.012  21.691  0.00  0.00    +0.063 HD
ATOM     40  H   UNL     1       3.333   6.673  17.287  0.00  0.00    +0.065 HD
BRANCH  31  42
ATOM     41  O   UNL     1       2.453   3.433  17.249  0.00  0.00    -0.241 OA
ATOM     42  C   UNL     1       3.272   4.034  18.011  0.00  0.00    +0.387 C 
ATOM     43  O   UNL     1       4.491   3.727  18.194  0.00  0.00    -0.241 OA
ENDBRANCH  31  42
ENDBRANCH  27  34
ENDBRANCH  24  29
ENDBRANCH   1  24
TORSDOF 5
ENDMDL
MODEL 24
REMARK VINA RESULT:    -7.154      3.732      5.686
REMARK INTER + INTRA:          -9.749
REMARK INTER:                  -9.287
REMARK INTRA:                  -0.462
REMARK UNBOUND:                -0.503
REMARK  Name = 
REMARK  5 active torsions:
REMARK  status: ('A' for Active; 'I' for Inactive)
REMARK    1  A    between atoms: C_2  and  C_4
REMARK    2  A    between atoms: C_7  and  C_8
REMARK    3  A    between atoms: N_10  and  C_11
REMARK    4  A    between atoms: C_11  and  C_12
REMARK    5  A    between atoms: N_16  and  C_17
REMARK                            x       y       z     vdW  Elec       q    Type
REMARK                         _______ _______ _______ _____ _____    ______ ____
ROOT
ATOM      1  C   UNL     1       0.497   9.573  19.700  0.00  0.00    +0.039 C 
ATOM      2  C   UNL     1       0.941   9.554  18.230  0.00  0.00    -0.032 C 
ATOM      3  C   UNL     1       1.978  10.656  18.125  0.00  0.00    -0.035 C 
ATOM      4  C   UNL     1       1.482  11.712  19.104  0.00  0.00    +0.013 C 
ATOM      5  N   UNL     1       0.740  10.968  20.127  0.00  0.00    -0.325 N 
ATOM      6  H   UNL     1      -0.571   9.323  19.723  0.00  0.00    +0.051 HD
ATOM      7  H   UNL     1       0.084   9.809  17.591  0.00  0.00    +0.028 HD
ATOM      8  H   UNL     1       1.319   8.582  17.901  0.00  0.00    +0.028 HD
ATOM      9  H   UNL     1       2.070  11.048  17.108  0.00  0.00    +0.028 HD
ATOM     10  H   UNL     1       2.965  10.292  18.424  0.00  0.00    +0.028 HD
ATOM     11  H   UNL     1       0.816  12.414  18.588  0.00  0.00    +0.046 HD
ATOM     12  H   UNL     1       2.330  12.262  19.526  0.00  0.00    +0.046 HD
ENDROOT
BRANCH   5  13
ATOM     13  C   UNL     1       0.058  11.608  21.144  0.00  0.00    +0.030 A 
ATOM     14  C   UNL     1       0.149  12.993  21.359  0.00  0.00    -0.041 A 
ATOM     15  C   UNL     1      -0.556  13.640  22.384  0.00  0.00    -0.060 A 
ATOM     16  C   UNL     1      -1.386  12.914  23.226  0.00  0.00    -0.062 A 
ATOM     17  C   UNL     1      -1.510  11.544  23.039  0.00  0.00    -0.060 A 
ATOM     18  C   UNL     1      -0.799  10.908  22.012  0.00  0.00    -0.041 A 
ATOM     19  H   UNL     1       0.778  13.614  20.729  0.00  0.00    +0.064 HD
ATOM     20  H   UNL     1      -0.455  14.714  22.512  0.00  0.00    +0.062 HD
ATOM     21  H   UNL     1      -1.938  13.412  24.018  0.00  0.00    +0.062 HD
ATOM     22  H   UNL     1      -2.164  10.961  23.681  0.00  0.00    +0.062 HD
ATOM     23  H   UNL     1      -0.947   9.839  21.898  0.00  0.00    +0.064 HD
ENDBRANCH   5  13
BRANCH   1  24
ATOM     24  C   UNL     1       1.262   8.563  20.587  0.00  0.00    +0.030 C 
ATOM     25  H   UNL     1       0.556   7.862  21.045  0.00  0.00    +0.048 HD
ATOM     26  H   UNL     1       1.770   9.092  21.400  0.00  0.00    +0.048 HD
BRANCH  24  29
ATOM     27  C   UNL     1       2.348   6.466  19.813  0.00  0.00    +0.247 C 
ATOM     28  O   UNL     1       1.570   5.752  20.442  0.00  0.00    -0.270 OA
ATOM     29  N   UNL     1       2.303   7.839  19.883  0.00  0.00    -0.309 N 
ATOM     30  H   UNL     1       2.891   8.395  19.268  0.00  0.00    +0.149 HD
BRANCH  27  34
ATOM     31  C   UNL     1       5.348   4.800  17.190  0.00  0.00    +0.066 A 
ATOM     32  C   UNL     1       4.756   6.048  16.932  0.00  0.00    -0.047 A 
ATOM     33  C   UNL     1       3.782   6.573  17.787  0.00  0.00    -0.046 A 
ATOM     34  C   UNL     1       3.375   5.857  18.921  0.00  0.00    +0.072 A 
ATOM     35  C   UNL     1       3.963   4.615  19.177  0.00  0.00    +0.136 A 
ATOM     36  F   UNL     1       3.621   3.897  20.259  0.00  0.00    -0.205 F 
ATOM     37  C   UNL     1       4.934   4.090  18.327  0.00  0.00    -0.012 A 
ATOM     38  H   UNL     1       5.068   6.612  16.052  0.00  0.00    +0.063 HD
ATOM     39  H   UNL     1       3.348   7.544  17.562  0.00  0.00    +0.063 HD
ATOM     40  H   UNL     1       5.379   3.123  18.549  0.00  0.00    +0.065 HD
BRANCH  31  42
ATOM     41  O   UNL     1       7.617   4.373  16.634  0.00  0.00    -0.241 OA
ATOM     42  C   UNL     1       6.409   4.233  16.268  0.00  0.00    +0.387 C 
ATOM     43  O   UNL     1       6.006   3.669  15.205  0.00  0.00    -0.241 OA
ENDBRANCH  31  42
ENDBRANCH  27  34
ENDBRANCH  24  29
ENDBRANCH   1  24
TORSDOF 5
ENDMDL
MODEL 25
REMARK VINA RESULT:    -7.144      3.272      7.729
REMARK INTER + INTRA:          -9.736
REMARK INTER:                  -9.187
REMARK INTRA:                  -0.549
REMARK UNBOUND:                -0.503
REMARK  Name = 
REMARK  5 active torsions:
REMARK  status: ('A' for Active; 'I' for Inactive)
REMARK    1  A    between atoms: C_2  and  C_4
REMARK    2  A    between atoms: C_7  and  C_8
REMARK    3  A    between atoms: N_10  and  C_11
REMARK    4  A    between atoms: C_11  and  C_12
REMARK    5  A    between atoms: N_16  and  C_17
REMARK                            x       y       z     vdW  Elec       q    Type
REMARK                         _______ _______ _______ _____ _____    ______ ____
ROOT
ATOM      1  C   UNL     1       4.483   3.979  17.579  0.00  0.00    +0.039 C 
ATOM      2  C   UNL     1       4.799   4.012  19.082  0.00  0.00    -0.032 C 
ATOM      3  C   UNL     1       5.584   5.294  19.283  0.00  0.00    -0.035 C 
ATOM      4  C   UNL     1       6.383   5.435  17.994  0.00  0.00    +0.013 C 
ATOM      5  N   UNL     1       5.575   4.767  16.968  0.00  0.00    -0.325 N 
ATOM      6  H   UNL     1       4.514   2.929  17.261  0.00  0.00    +0.051 HD
ATOM      7  H   UNL     1       5.442   3.158  19.334  0.00  0.00    +0.028 HD
ATOM      8  H   UNL     1       3.910   3.954  19.716  0.00  0.00    +0.028 HD
ATOM      9  H   UNL     1       6.229   5.256  20.166  0.00  0.00    +0.028 HD
ATOM     10  H   UNL     1       4.911   6.148  19.409  0.00  0.00    +0.028 HD
ATOM     11  H   UNL     1       7.351   4.932  18.100  0.00  0.00    +0.046 HD
ATOM     12  H   UNL     1       6.548   6.493  17.766  0.00  0.00    +0.046 HD
ENDROOT
BRANCH   5  13
ATOM     13  C   UNL     1       6.026   4.609  15.672  0.00  0.00    +0.030 A 
ATOM     14  C   UNL     1       5.358   3.807  14.732  0.00  0.00    -0.041 A 
ATOM     15  C   UNL     1       5.813   3.661  13.414  0.00  0.00    -0.060 A 
ATOM     16  C   UNL     1       6.957   4.324  12.992  0.00  0.00    -0.062 A 
ATOM     17  C   UNL     1       7.640   5.134  13.890  0.00  0.00    -0.060 A 
ATOM     18  C   UNL     1       7.176   5.270  15.205  0.00  0.00    -0.041 A 
ATOM     19  H   UNL     1       4.455   3.269  15.001  0.00  0.00    +0.064 HD
ATOM     20  H   UNL     1       5.263   3.031  12.721  0.00  0.00    +0.062 HD
ATOM     21  H   UNL     1       7.310   4.218  11.971  0.00  0.00    +0.062 HD
ATOM     22  H   UNL     1       8.530   5.670  13.576  0.00  0.00    +0.062 HD
ATOM     23  H   UNL     1       7.737   5.930  15.861  0.00  0.00    +0.064 HD
ENDBRANCH   5  13
BRANCH   1  24
ATOM     24  C   UNL     1       3.093   4.562  17.229  0.00  0.00    +0.030 C 
ATOM     25  H   UNL     1       2.374   3.748  17.088  0.00  0.00    +0.048 HD
ATOM     26  H   UNL     1       3.149   5.115  16.286  0.00  0.00    +0.048 HD
BRANCH  24  29
ATOM     27  C   UNL     1       2.781   6.869  18.099  0.00  0.00    +0.247 C 
ATOM     28  O   UNL     1       3.484   7.366  17.222  0.00  0.00    -0.270 OA
ATOM     29  N   UNL     1       2.595   5.510  18.208  0.00  0.00    -0.309 N 
ATOM     30  H   UNL     1       1.924   5.145  18.877  0.00  0.00    +0.149 HD
BRANCH  27  34
ATOM     31  C   UNL     1       0.794   9.341  21.031  0.00  0.00    +0.066 A 
ATOM     32  C   UNL     1       1.342   8.092  21.371  0.00  0.00    -0.047 A 
ATOM     33  C   UNL     1       1.978   7.299  20.410  0.00  0.00    -0.046 A 
ATOM     34  C   UNL     1       2.077   7.739  19.083  0.00  0.00    +0.072 A 
ATOM     35  C   UNL     1       1.532   8.981  18.745  0.00  0.00    +0.136 A 
ATOM     36  F   UNL     1       1.616   9.456  17.491  0.00  0.00    -0.205 F 
ATOM     37  C   UNL     1       0.898   9.772  19.701  0.00  0.00    -0.012 A 
ATOM     38  H   UNL     1       1.269   7.744  22.402  0.00  0.00    +0.063 HD
ATOM     39  H   UNL     1       2.396   6.340  20.707  0.00  0.00    +0.063 HD
ATOM     40  H   UNL     1       0.485  10.736  19.414  0.00  0.00    +0.065 HD
BRANCH  31  42
ATOM     41  O   UNL     1      -0.207  11.381  21.720  0.00  0.00    -0.241 OA
ATOM     42  C   UNL     1       0.111  10.203  22.073  0.00  0.00    +0.387 C 
ATOM     43  O   UNL     1      -0.085   9.683  23.214  0.00  0.00    -0.241 OA
ENDBRANCH  31  42
ENDBRANCH  27  34
ENDBRANCH  24  29
ENDBRANCH   1  24
TORSDOF 5
ENDMDL
MODEL 26
REMARK VINA RESULT:    -7.088      3.430      6.659
REMARK INTER + INTRA:          -9.663
REMARK INTER:                  -9.074
REMARK INTRA:                  -0.589
REMARK UNBOUND:                -0.503
REMARK  Name = 
REMARK  5 active torsions:
REMARK  status: ('A' for Active; 'I' for Inactive)
REMARK    1  A    between atoms: C_2  and  C_4
REMARK    2  A    between atoms: C_7  and  C_8
REMARK    3  A    between atoms: N_10  and  C_11
REMARK    4  A    between atoms: C_11  and  C_12
REMARK    5  A    between atoms: N_16  and  C_17
REMARK                            x       y       z     vdW  Elec       q    Type
REMARK                         _______ _______ _______ _____ _____    ______ ____
ROOT
ATOM      1  C   UNL     1       5.678   4.234  18.124  0.00  0.00    +0.039 C 
ATOM      2  C   UNL     1       6.765   4.383  17.049  0.00  0.00    -0.032 C 
ATOM      3  C   UNL     1       6.053   5.005  15.863  0.00  0.00    -0.035 C 
ATOM      4  C   UNL     1       4.654   4.407  15.928  0.00  0.00    +0.013 C 
ATOM      5  N   UNL     1       4.424   4.124  17.348  0.00  0.00    -0.325 N 
ATOM      6  H   UNL     1       5.891   3.313  18.680  0.00  0.00    +0.051 HD
ATOM      7  H   UNL     1       7.129   3.387  16.763  0.00  0.00    +0.028 HD
ATOM      8  H   UNL     1       7.629   4.966  17.380  0.00  0.00    +0.028 HD
ATOM      9  H   UNL     1       6.551   4.786  14.914  0.00  0.00    +0.028 HD
ATOM     10  H   UNL     1       6.008   6.094  15.963  0.00  0.00    +0.028 HD
ATOM     11  H   UNL     1       4.619   3.478  15.346  0.00  0.00    +0.046 HD
ATOM     12  H   UNL     1       3.923   5.115  15.523  0.00  0.00    +0.046 HD
ENDROOT
BRANCH   5  13
ATOM     13  C   UNL     1       3.282   3.483  17.789  0.00  0.00    +0.030 A 
ATOM     14  C   UNL     1       3.322   2.269  18.494  0.00  0.00    -0.041 A 
ATOM     15  C   UNL     1       2.162   1.628  18.950  0.00  0.00    -0.060 A 
ATOM     16  C   UNL     1       0.915   2.194  18.718  0.00  0.00    -0.062 A 
ATOM     17  C   UNL     1       0.835   3.398  18.034  0.00  0.00    -0.060 A 
ATOM     18  C   UNL     1       2.003   4.028  17.581  0.00  0.00    -0.041 A 
ATOM     19  H   UNL     1       4.268   1.782  18.709  0.00  0.00    +0.064 HD
ATOM     20  H   UNL     1       2.242   0.690  19.492  0.00  0.00    +0.062 HD
ATOM     21  H   UNL     1       0.014   1.704  19.075  0.00  0.00    +0.062 HD
ATOM     22  H   UNL     1      -0.130   3.862  17.853  0.00  0.00    +0.062 HD
ATOM     23  H   UNL     1       1.885   4.977  17.067  0.00  0.00    +0.064 HD
ENDBRANCH   5  13
BRANCH   1  24
ATOM     24  C   UNL     1       5.631   5.416  19.120  0.00  0.00    +0.030 C 
ATOM     25  H   UNL     1       6.598   5.930  19.132  0.00  0.00    +0.048 HD
ATOM     26  H   UNL     1       5.449   5.042  20.133  0.00  0.00    +0.048 HD
BRANCH  24  29
ATOM     27  C   UNL     1       3.388   6.385  19.572  0.00  0.00    +0.247 C 
ATOM     28  O   UNL     1       3.115   5.531  20.413  0.00  0.00    -0.270 OA
ATOM     29  N   UNL     1       4.562   6.361  18.856  0.00  0.00    -0.309 N 
ATOM     30  H   UNL     1       4.799   7.140  18.249  0.00  0.00    +0.149 HD
BRANCH  27  34
ATOM     31  C   UNL     1       0.657   9.617  18.701  0.00  0.00    +0.066 A 
ATOM     32  C   UNL     1       1.484   9.064  17.709  0.00  0.00    -0.047 A 
ATOM     33  C   UNL     1       2.367   8.021  18.006  0.00  0.00    -0.046 A 
ATOM     34  C   UNL     1       2.446   7.509  19.308  0.00  0.00    +0.072 A 
ATOM     35  C   UNL     1       1.624   8.060  20.296  0.00  0.00    +0.136 A 
ATOM     36  F   UNL     1       1.648   7.594  21.555  0.00  0.00    -0.205 F 
ATOM     37  C   UNL     1       0.742   9.098  20.001  0.00  0.00    -0.012 A 
ATOM     38  H   UNL     1       1.428   9.456  16.692  0.00  0.00    +0.063 HD
ATOM     39  H   UNL     1       2.990   7.612  17.213  0.00  0.00    +0.063 HD
ATOM     40  H   UNL     1       0.111   9.507  20.787  0.00  0.00    +0.065 HD
BRANCH  31  42
ATOM     41  O   UNL     1       0.003  11.898  18.803  0.00  0.00    -0.241 OA
ATOM     42  C   UNL     1      -0.306  10.741  18.378  0.00  0.00    +0.387 C 
ATOM     43  O   UNL     1      -1.344  10.438  17.714  0.00  0.00    -0.241 OA
ENDBRANCH  31  42
ENDBRANCH  27  34
ENDBRANCH  24  29
ENDBRANCH   1  24
TORSDOF 5
ENDMDL
MODEL 27
REMARK VINA RESULT:    -7.088      4.522      7.331
REMARK INTER + INTRA:          -9.663
REMARK INTER:                  -9.162
REMARK INTRA:                  -0.500
REMARK UNBOUND:                -0.503
REMARK  Name = 
REMARK  5 active torsions:
REMARK  status: ('A' for Active; 'I' for Inactive)
REMARK    1  A    between atoms: C_2  and  C_4
REMARK    2  A    between atoms: C_7  and  C_8
REMARK    3  A    between atoms: N_10  and  C_11
REMARK    4  A    between atoms: C_11  and  C_12
REMARK    5  A    between atoms: N_16  and  C_17
REMARK                            x       y       z     vdW  Elec       q    Type
REMARK                         _______ _______ _______ _____ _____    ______ ____
ROOT
ATOM      1  C   UNL     1       0.600  11.335  18.866  0.00  0.00    +0.039 C 
ATOM      2  C   UNL     1       1.587  12.507  18.982  0.00  0.00    -0.032 C 
ATOM      3  C   UNL     1       0.800  13.608  19.668  0.00  0.00    -0.035 C 
ATOM      4  C   UNL     1      -0.617  13.419  19.142  0.00  0.00    +0.013 C 
ATOM      5  N   UNL     1      -0.726  11.988  18.840  0.00  0.00    -0.325 N 
ATOM      6  H   UNL     1       0.816  10.818  17.923  0.00  0.00    +0.051 HD
ATOM      7  H   UNL     1       1.867  12.844  17.975  0.00  0.00    +0.028 HD
ATOM      8  H   UNL     1       2.509  12.250  19.512  0.00  0.00    +0.028 HD
ATOM      9  H   UNL     1       1.193  14.604  19.444  0.00  0.00    +0.028 HD
ATOM     10  H   UNL     1       0.824  13.485  20.755  0.00  0.00    +0.028 HD
ATOM     11  H   UNL     1      -0.757  14.011  18.230  0.00  0.00    +0.046 HD
ATOM     12  H   UNL     1      -1.344  13.740  19.896  0.00  0.00    +0.046 HD
ENDROOT
BRANCH   5  13
ATOM     13  C   UNL     1      -1.854  11.451  18.249  0.00  0.00    +0.030 A 
ATOM     14  C   UNL     1      -3.153  11.863  18.590  0.00  0.00    -0.041 A 
ATOM     15  C   UNL     1      -4.294  11.325  17.978  0.00  0.00    -0.060 A 
ATOM     16  C   UNL     1      -4.166  10.355  16.994  0.00  0.00    -0.062 A 
ATOM     17  C   UNL     1      -2.898   9.930  16.623  0.00  0.00    -0.060 A 
ATOM     18  C   UNL     1      -1.765  10.474  17.243  0.00  0.00    -0.041 A 
ATOM     19  H   UNL     1      -3.315  12.622  19.349  0.00  0.00    +0.064 HD
ATOM     20  H   UNL     1      -5.279  11.675  18.273  0.00  0.00    +0.062 HD
ATOM     21  H   UNL     1      -5.047   9.939  16.513  0.00  0.00    +0.062 HD
ATOM     22  H   UNL     1      -2.778   9.180  15.846  0.00  0.00    +0.062 HD
ATOM     23  H   UNL     1      -0.797  10.119  16.902  0.00  0.00    +0.064 HD
ENDBRANCH   5  13
BRANCH   1  24
ATOM     24  C   UNL     1       0.713  10.318  20.027  0.00  0.00    +0.030 C 
ATOM     25  H   UNL     1      -0.268  10.175  20.491  0.00  0.00    +0.048 HD
ATOM     26  H   UNL     1       1.385  10.708  20.798  0.00  0.00    +0.048 HD
BRANCH  24  29
ATOM     27  C   UNL     1       1.642   8.070  20.533  0.00  0.00    +0.247 C 
ATOM     28  O   UNL     1       1.629   8.264  21.747  0.00  0.00    -0.270 OA
ATOM     29  N   UNL     1       1.274   9.041  19.630  0.00  0.00    -0.309 N 
ATOM     30  H   UNL     1       1.197   8.809  18.644  0.00  0.00    +0.149 HD
BRANCH  27  34
ATOM     31  C   UNL     1       2.739   4.180  19.010  0.00  0.00    +0.066 A 
ATOM     32  C   UNL     1       2.015   4.325  20.205  0.00  0.00    -0.047 A 
ATOM     33  C   UNL     1       1.671   5.591  20.690  0.00  0.00    -0.046 A 
ATOM     34  C   UNL     1       2.049   6.744  19.988  0.00  0.00    +0.072 A 
ATOM     35  C   UNL     1       2.770   6.599  18.799  0.00  0.00    +0.136 A 
ATOM     36  F   UNL     1       3.140   7.672  18.080  0.00  0.00    -0.205 F 
ATOM     37  C   UNL     1       3.112   5.339  18.314  0.00  0.00    -0.012 A 
ATOM     38  H   UNL     1       1.717   3.432  20.757  0.00  0.00    +0.063 HD
ATOM     39  H   UNL     1       1.106   5.668  21.615  0.00  0.00    +0.063 HD
ATOM     40  H   UNL     1       3.671   5.253  17.385  0.00  0.00    +0.065 HD
BRANCH  31  42
ATOM     41  O   UNL     1       2.502   2.420  17.433  0.00  0.00    -0.241 OA
ATOM     42  C   UNL     1       3.106   2.808  18.480  0.00  0.00    +0.387 C 
ATOM     43  O   UNL     1       3.983   2.156  19.126  0.00  0.00    -0.241 OA
ENDBRANCH  31  42
ENDBRANCH  27  34
ENDBRANCH  24  29
ENDBRANCH   1  24
TORSDOF 5
ENDMDL
MODEL 28
REMARK VINA RESULT:    -7.054      5.064      8.715
REMARK INTER + INTRA:          -9.619
REMARK INTER:                  -8.888
REMARK INTRA:                  -0.731
REMARK UNBOUND:                -0.503
REMARK  Name = 
REMARK  5 active torsions:
REMARK  status: ('A' for Active; 'I' for Inactive)
REMARK    1  A    between atoms: C_2  and  C_4
REMARK    2  A    between atoms: C_7  and  C_8
REMARK    3  A    between atoms: N_10  and  C_11
REMARK    4  A    between atoms: C_11  and  C_12
REMARK    5  A    between atoms: N_16  and  C_17
REMARK                            x       y       z     vdW  Elec       q    Type
REMARK                         _______ _______ _______ _____ _____    ______ ____
ROOT
ATOM      1  C   UNL     1       2.633   6.232  18.108  0.00  0.00    +0.039 C 
ATOM      2  C   UNL     1       1.661   5.699  19.170  0.00  0.00    -0.032 C 
ATOM      3  C   UNL     1       2.547   5.278  20.327  0.00  0.00    -0.035 C 
ATOM      4  C   UNL     1       3.811   4.768  19.647  0.00  0.00    +0.013 C 
ATOM      5  N   UNL     1       3.895   5.515  18.387  0.00  0.00    -0.325 N 
ATOM      6  H   UNL     1       2.224   5.963  17.126  0.00  0.00    +0.051 HD
ATOM      7  H   UNL     1       1.146   4.812  18.776  0.00  0.00    +0.028 HD
ATOM      8  H   UNL     1       0.895   6.422  19.463  0.00  0.00    +0.028 HD
ATOM      9  H   UNL     1       2.081   4.512  20.955  0.00  0.00    +0.028 HD
ATOM     10  H   UNL     1       2.779   6.131  20.972  0.00  0.00    +0.028 HD
ATOM     11  H   UNL     1       3.718   3.694  19.445  0.00  0.00    +0.046 HD
ATOM     12  H   UNL     1       4.681   4.941  20.290  0.00  0.00    +0.046 HD
ENDROOT
BRANCH   5  13
ATOM     13  C   UNL     1       4.874   5.253  17.448  0.00  0.00    +0.030 A 
ATOM     14  C   UNL     1       4.707   4.301  16.429  0.00  0.00    -0.041 A 
ATOM     15  C   UNL     1       5.699   4.048  15.470  0.00  0.00    -0.060 A 
ATOM     16  C   UNL     1       6.894   4.753  15.500  0.00  0.00    -0.062 A 
ATOM     17  C   UNL     1       7.092   5.709  16.486  0.00  0.00    -0.060 A 
ATOM     18  C   UNL     1       6.094   5.951  17.440  0.00  0.00    -0.041 A 
ATOM     19  H   UNL     1       3.792   3.723  16.352  0.00  0.00    +0.064 HD
ATOM     20  H   UNL     1       5.525   3.303  14.699  0.00  0.00    +0.062 HD
ATOM     21  H   UNL     1       7.663   4.564  14.755  0.00  0.00    +0.062 HD
ATOM     22  H   UNL     1       8.016   6.279  16.518  0.00  0.00    +0.062 HD
ATOM     23  H   UNL     1       6.293   6.723  18.178  0.00  0.00    +0.064 HD
ENDBRANCH   5  13
BRANCH   1  24
ATOM     24  C   UNL     1       2.824   7.766  18.163  0.00  0.00    +0.030 C 
ATOM     25  H   UNL     1       3.199   8.128  17.200  0.00  0.00    +0.048 HD
ATOM     26  H   UNL     1       3.572   8.021  18.920  0.00  0.00    +0.048 HD
BRANCH  24  29
ATOM     27  C   UNL     1       1.436   9.825  18.264  0.00  0.00    +0.247 C 
ATOM     28  O   UNL     1       2.320  10.526  17.778  0.00  0.00    -0.270 OA
ATOM     29  N   UNL     1       1.625   8.490  18.541  0.00  0.00    -0.309 N 
ATOM     30  H   UNL     1       0.839   7.921  18.841  0.00  0.00    +0.149 HD
BRANCH  27  34
ATOM     31  C   UNL     1      -2.404  11.584  19.171  0.00  0.00    +0.066 A 
ATOM     32  C   UNL     1      -1.258  11.886  19.926  0.00  0.00    -0.047 A 
ATOM     33  C   UNL     1      -0.022  11.306  19.625  0.00  0.00    -0.046 A 
ATOM     34  C   UNL     1       0.094  10.403  18.559  0.00  0.00    +0.072 A 
ATOM     35  C   UNL     1      -1.046  10.101  17.808  0.00  0.00    +0.136 A 
ATOM     36  F   UNL     1      -0.984   9.256  16.766  0.00  0.00    -0.205 F 
ATOM     37  C   UNL     1      -2.278  10.680  18.106  0.00  0.00    -0.012 A 
ATOM     38  H   UNL     1      -1.341  12.589  20.757  0.00  0.00    +0.063 HD
ATOM     39  H   UNL     1       0.846  11.566  20.226  0.00  0.00    +0.063 HD
ATOM     40  H   UNL     1      -3.149  10.431  17.505  0.00  0.00    +0.065 HD
BRANCH  31  42
ATOM     41  O   UNL     1      -3.740  13.149  20.356  0.00  0.00    -0.241 OA
ATOM     42  C   UNL     1      -3.742  12.219  19.492  0.00  0.00    +0.387 C 
ATOM     43  O   UNL     1      -4.756  11.769  18.876  0.00  0.00    -0.241 OA
ENDBRANCH  31  42
ENDBRANCH  27  34
ENDBRANCH  24  29
ENDBRANCH   1  24
TORSDOF 5
ENDMDL
MODEL 29
REMARK VINA RESULT:    -6.958      4.731      7.029
REMARK INTER + INTRA:          -9.495
REMARK INTER:                  -9.116
REMARK INTRA:                  -0.379
REMARK UNBOUND:                -0.503
REMARK  Name = 
REMARK  5 active torsions:
REMARK  status: ('A' for Active; 'I' for Inactive)
REMARK    1  A    between atoms: C_2  and  C_4
REMARK    2  A    between atoms: C_7  and  C_8
REMARK    3  A    between atoms: N_10  and  C_11
REMARK    4  A    between atoms: C_11  and  C_12
REMARK    5  A    between atoms: N_16  and  C_17
REMARK                            x       y       z     vdW  Elec       q    Type
REMARK                         _______ _______ _______ _____ _____    ______ ____
ROOT
ATOM      1  C   UNL     1      -1.101  10.354  18.734  0.00  0.00    +0.039 C 
ATOM      2  C   UNL     1      -1.791   9.907  17.437  0.00  0.00    -0.032 C 
ATOM      3  C   UNL     1      -2.460  11.159  16.904  0.00  0.00    -0.035 C 
ATOM      4  C   UNL     1      -2.877  11.909  18.162  0.00  0.00    +0.013 C 
ATOM      5  N   UNL     1      -1.906  11.508  19.186  0.00  0.00    -0.325 N 
ATOM      6  H   UNL     1      -1.160   9.517  19.441  0.00  0.00    +0.051 HD
ATOM      7  H   UNL     1      -2.565   9.164  17.676  0.00  0.00    +0.028 HD
ATOM      8  H   UNL     1      -1.109   9.449  16.714  0.00  0.00    +0.028 HD
ATOM      9  H   UNL     1      -3.313  10.935  16.256  0.00  0.00    +0.028 HD
ATOM     10  H   UNL     1      -1.756  11.758  16.318  0.00  0.00    +0.028 HD
ATOM     11  H   UNL     1      -3.888  11.604  18.458  0.00  0.00    +0.046 HD
ATOM     12  H   UNL     1      -2.864  12.988  17.979  0.00  0.00    +0.046 HD
ENDROOT
BRANCH   5  13
ATOM     13  C   UNL     1      -2.020  11.920  20.500  0.00  0.00    +0.030 A 
ATOM     14  C   UNL     1      -3.069  12.741  20.945  0.00  0.00    -0.041 A 
ATOM     15  C   UNL     1      -3.188  13.145  22.282  0.00  0.00    -0.060 A 
ATOM     16  C   UNL     1      -2.255  12.729  23.223  0.00  0.00    -0.062 A 
ATOM     17  C   UNL     1      -1.210  11.909  22.823  0.00  0.00    -0.060 A 
ATOM     18  C   UNL     1      -1.101  11.513  21.483  0.00  0.00    -0.041 A 
ATOM     19  H   UNL     1      -3.831  13.093  20.257  0.00  0.00    +0.064 HD
ATOM     20  H   UNL     1      -4.017  13.780  22.582  0.00  0.00    +0.062 HD
ATOM     21  H   UNL     1      -2.347  13.036  24.261  0.00  0.00    +0.062 HD
ATOM     22  H   UNL     1      -0.477  11.564  23.546  0.00  0.00    +0.062 HD
ATOM     23  H   UNL     1      -0.275  10.856  21.227  0.00  0.00    +0.064 HD
ENDBRANCH   5  13
BRANCH   1  24
ATOM     24  C   UNL     1       0.386  10.735  18.540  0.00  0.00    +0.030 C 
ATOM     25  H   UNL     1       0.729  11.334  19.390  0.00  0.00    +0.048 HD
ATOM     26  H   UNL     1       0.497  11.351  17.642  0.00  0.00    +0.048 HD
BRANCH  24  29
ATOM     27  C   UNL     1       1.590   8.718  19.348  0.00  0.00    +0.247 C 
ATOM     28  O   UNL     1       1.258   8.906  20.517  0.00  0.00    -0.270 OA
ATOM     29  N   UNL     1       1.260   9.595  18.341  0.00  0.00    -0.309 N 
ATOM     30  H   UNL     1       1.459   9.352  17.375  0.00  0.00    +0.149 HD
BRANCH  27  34
ATOM     31  C   UNL     1       3.894   5.248  18.202  0.00  0.00    +0.066 A 
ATOM     32  C   UNL     1       3.951   6.445  17.468  0.00  0.00    -0.047 A 
ATOM     33  C   UNL     1       3.196   7.559  17.848  0.00  0.00    -0.046 A 
ATOM     34  C   UNL     1       2.361   7.499  18.972  0.00  0.00    +0.072 A 
ATOM     35  C   UNL     1       2.303   6.308  19.701  0.00  0.00    +0.136 A 
ATOM     36  F   UNL     1       1.532   6.203  20.796  0.00  0.00    -0.205 F 
ATOM     37  C   UNL     1       3.056   5.197  19.325  0.00  0.00    -0.012 A 
ATOM     38  H   UNL     1       4.600   6.500  16.593  0.00  0.00    +0.063 HD
ATOM     39  H   UNL     1       3.267   8.472  17.261  0.00  0.00    +0.063 HD
ATOM     40  H   UNL     1       2.996   4.283  19.911  0.00  0.00    +0.065 HD
BRANCH  31  42
ATOM     41  O   UNL     1       5.924   4.261  17.463  0.00  0.00    -0.241 OA
ATOM     42  C   UNL     1       4.718   4.043  17.796  0.00  0.00    +0.387 C 
ATOM     43  O   UNL     1       4.137   2.914  17.817  0.00  0.00    -0.241 OA
ENDBRANCH  31  42
ENDBRANCH  27  34
ENDBRANCH  24  29
ENDBRANCH   1  24
TORSDOF 5
ENDMDL
MODEL 30
REMARK VINA RESULT:    -6.903      3.848      6.549
REMARK INTER + INTRA:          -9.424
REMARK INTER:                  -8.729
REMARK INTRA:                  -0.696
REMARK UNBOUND:                -0.503
REMARK  Name = 
REMARK  5 active torsions:
REMARK  status: ('A' for Active; 'I' for Inactive)
REMARK    1  A    between atoms: C_2  and  C_4
REMARK    2  A    between atoms: C_7  and  C_8
REMARK    3  A    between atoms: N_10  and  C_11
REMARK    4  A    between atoms: C_11  and  C_12
REMARK    5  A    between atoms: N_16  and  C_17
REMARK                            x       y       z     vdW  Elec       q    Type
REMARK                         _______ _______ _______ _____ _____    ______ ____
ROOT
ATOM      1  C   UNL     1      -0.782   9.780  18.228  0.00  0.00    +0.039 C 
ATOM      2  C   UNL     1      -1.684  10.391  17.146  0.00  0.00    -0.032 C 
ATOM      3  C   UNL     1      -1.642  11.885  17.406  0.00  0.00    -0.035 C 
ATOM      4  C   UNL     1      -1.532  11.984  18.922  0.00  0.00    +0.013 C 
ATOM      5  N   UNL     1      -0.845  10.756  19.337  0.00  0.00    -0.325 N 
ATOM      6  H   UNL     1      -1.221   8.815  18.513  0.00  0.00    +0.051 HD
ATOM      7  H   UNL     1      -2.713  10.034  17.290  0.00  0.00    +0.028 HD
ATOM      8  H   UNL     1      -1.384  10.128  16.128  0.00  0.00    +0.028 HD
ATOM      9  H   UNL     1      -2.527  12.402  17.023  0.00  0.00    +0.028 HD
ATOM     10  H   UNL     1      -0.768  12.339  16.930  0.00  0.00    +0.028 HD
ATOM     11  H   UNL     1      -2.533  12.026  19.366  0.00  0.00    +0.046 HD
ATOM     12  H   UNL     1      -0.974  12.884  19.201  0.00  0.00    +0.046 HD
ENDROOT
BRANCH   5  13
ATOM     13  C   UNL     1      -0.647  10.446  20.669  0.00  0.00    +0.030 A 
ATOM     14  C   UNL     1      -1.100  11.270  21.712  0.00  0.00    -0.041 A 
ATOM     15  C   UNL     1      -0.909  10.944  23.062  0.00  0.00    -0.060 A 
ATOM     16  C   UNL     1      -0.257   9.769  23.410  0.00  0.00    -0.062 A 
ATOM     17  C   UNL     1       0.197   8.923  22.408  0.00  0.00    -0.060 A 
ATOM     18  C   UNL     1       0.001   9.261  21.062  0.00  0.00    -0.041 A 
ATOM     19  H   UNL     1      -1.621  12.198  21.501  0.00  0.00    +0.064 HD
ATOM     20  H   UNL     1      -1.277  11.612  23.835  0.00  0.00    +0.062 HD
ATOM     21  H   UNL     1      -0.111   9.510  24.455  0.00  0.00    +0.062 HD
ATOM     22  H   UNL     1       0.699   7.994  22.661  0.00  0.00    +0.062 HD
ATOM     23  H   UNL     1       0.359   8.556  20.318  0.00  0.00    +0.064 HD
ENDBRANCH   5  13
BRANCH   1  24
ATOM     24  C   UNL     1       0.672   9.544  17.757  0.00  0.00    +0.030 C 
ATOM     25  H   UNL     1       1.345  10.243  18.265  0.00  0.00    +0.048 HD
ATOM     26  H   UNL     1       0.751   9.739  16.682  0.00  0.00    +0.048 HD
BRANCH  24  29
ATOM     27  C   UNL     1       2.463   7.839  18.003  0.00  0.00    +0.247 C 
ATOM     28  O   UNL     1       3.359   8.653  17.792  0.00  0.00    -0.270 OA
ATOM     29  N   UNL     1       1.131   8.181  17.940  0.00  0.00    -0.309 N 
ATOM     30  H   UNL     1       0.424   7.509  18.225  0.00  0.00    +0.149 HD
BRANCH  27  34
ATOM     31  C   UNL     1       3.508   3.760  18.968  0.00  0.00    +0.066 A 
ATOM     32  C   UNL     1       3.924   4.363  17.769  0.00  0.00    -0.047 A 
ATOM     33  C   UNL     1       3.574   5.683  17.467  0.00  0.00    -0.046 A 
ATOM     34  C   UNL     1       2.794   6.430  18.359  0.00  0.00    +0.072 A 
ATOM     35  C   UNL     1       2.378   5.830  19.551  0.00  0.00    +0.136 A 
ATOM     36  F   UNL     1       1.643   6.509  20.448  0.00  0.00    -0.205 F 
ATOM     37  C   UNL     1       2.727   4.516  19.855  0.00  0.00    -0.012 A 
ATOM     38  H   UNL     1       4.533   3.788  17.070  0.00  0.00    +0.063 HD
ATOM     39  H   UNL     1       3.918   6.121  16.533  0.00  0.00    +0.063 HD
ATOM     40  H   UNL     1       2.394   4.073  20.790  0.00  0.00    +0.065 HD
BRANCH  31  42
ATOM     41  O   UNL     1       3.472   1.430  18.512  0.00  0.00    -0.241 OA
ATOM     42  C   UNL     1       3.893   2.333  19.300  0.00  0.00    +0.387 C 
ATOM     43  O   UNL     1       4.600   2.153  20.338  0.00  0.00    -0.241 OA
ENDBRANCH  31  42
ENDBRANCH  27  34
ENDBRANCH  24  29
ENDBRANCH   1  24
TORSDOF 5
ENDMDL
MODEL 31
REMARK VINA RESULT:    -6.891      4.675      7.789
REMARK INTER + INTRA:          -9.409
REMARK INTER:                  -8.811
REMARK INTRA:                  -0.597
REMARK UNBOUND:                -0.503
REMARK  Name = 
REMARK  5 active torsions:
REMARK  status: ('A' for Active; 'I' for Inactive)
REMARK    1  A    between atoms: C_2  and  C_4
REMARK    2  A    between atoms: C_7  and  C_8
REMARK    3  A    between atoms: N_10  and  C_11
REMARK    4  A    between atoms: C_11  and  C_12
REMARK    5  A    between atoms: N_16  and  C_17
REMARK                            x       y       z     vdW  Elec       q    Type
REMARK                         _______ _______ _______ _____ _____    ______ ____
ROOT
ATOM      1  C   UNL     1       0.896  11.322  19.271  0.00  0.00    +0.039 C 
ATOM      2  C   UNL     1      -0.627  11.154  19.381  0.00  0.00    -0.032 C 
ATOM      3  C   UNL     1      -1.199  12.201  18.444  0.00  0.00    -0.035 C 
ATOM      4  C   UNL     1      -0.216  13.359  18.552  0.00  0.00    +0.013 C 
ATOM      5  N   UNL     1       1.071  12.738  18.884  0.00  0.00    -0.325 N 
ATOM      6  H   UNL     1       1.320  11.118  20.262  0.00  0.00    +0.051 HD
ATOM      7  H   UNL     1      -0.942  11.386  20.408  0.00  0.00    +0.028 HD
ATOM      8  H   UNL     1      -0.972  10.143  19.151  0.00  0.00    +0.028 HD
ATOM      9  H   UNL     1      -2.217  12.497  18.719  0.00  0.00    +0.028 HD
ATOM     10  H   UNL     1      -1.236  11.826  17.417  0.00  0.00    +0.028 HD
ATOM     11  H   UNL     1      -0.528  14.038  19.355  0.00  0.00    +0.046 HD
ATOM     12  H   UNL     1      -0.179  13.910  17.607  0.00  0.00    +0.046 HD
ENDROOT
BRANCH   5  13
ATOM     13  C   UNL     1       2.196  13.493  19.155  0.00  0.00    +0.030 A 
ATOM     14  C   UNL     1       2.645  13.736  20.463  0.00  0.00    -0.041 A 
ATOM     15  C   UNL     1       3.795  14.491  20.733  0.00  0.00    -0.060 A 
ATOM     16  C   UNL     1       4.540  15.024  19.690  0.00  0.00    -0.062 A 
ATOM     17  C   UNL     1       4.134  14.797  18.382  0.00  0.00    -0.060 A 
ATOM     18  C   UNL     1       2.982  14.042  18.126  0.00  0.00    -0.041 A 
ATOM     19  H   UNL     1       2.107  13.341  21.319  0.00  0.00    +0.064 HD
ATOM     20  H   UNL     1       4.105  14.653  21.761  0.00  0.00    +0.062 HD
ATOM     21  H   UNL     1       5.435  15.606  19.894  0.00  0.00    +0.062 HD
ATOM     22  H   UNL     1       4.711  15.196  17.552  0.00  0.00    +0.062 HD
ATOM     23  H   UNL     1       2.719  13.879  17.085  0.00  0.00    +0.064 HD
ENDBRANCH   5  13
BRANCH   1  24
ATOM     24  C   UNL     1       1.548  10.365  18.245  0.00  0.00    +0.030 C 
ATOM     25  H   UNL     1       2.605  10.620  18.120  0.00  0.00    +0.048 HD
ATOM     26  H   UNL     1       1.067  10.483  17.268  0.00  0.00    +0.048 HD
BRANCH  24  29
ATOM     27  C   UNL     1       2.384   8.027  18.339  0.00  0.00    +0.247 C 
ATOM     28  O   UNL     1       3.406   8.297  17.712  0.00  0.00    -0.270 OA
ATOM     29  N   UNL     1       1.404   8.962  18.583  0.00  0.00    -0.309 N 
ATOM     30  H   UNL     1       0.627   8.730  19.195  0.00  0.00    +0.149 HD
BRANCH  27  34
ATOM     31  C   UNL     1       1.843   4.014  19.841  0.00  0.00    +0.066 A 
ATOM     32  C   UNL     1       2.207   4.257  18.506  0.00  0.00    -0.047 A 
ATOM     33  C   UNL     1       2.374   5.562  18.032  0.00  0.00    -0.046 A 
ATOM     34  C   UNL     1       2.176   6.656  18.885  0.00  0.00    +0.072 A 
ATOM     35  C   UNL     1       1.813   6.414  20.213  0.00  0.00    +0.136 A 
ATOM     36  F   UNL     1       1.628   7.427  21.076  0.00  0.00    -0.205 F 
ATOM     37  C   UNL     1       1.647   5.114  20.688  0.00  0.00    -0.012 A 
ATOM     38  H   UNL     1       2.364   3.411  17.836  0.00  0.00    +0.063 HD
ATOM     39  H   UNL     1       2.661   5.716  16.994  0.00  0.00    +0.063 HD
ATOM     40  H   UNL     1       1.368   4.952  21.726  0.00  0.00    +0.065 HD
BRANCH  31  42
ATOM     41  O   UNL     1       1.416   2.471  21.596  0.00  0.00    -0.241 OA
ATOM     42  C   UNL     1       1.670   2.600  20.358  0.00  0.00    +0.387 C 
ATOM     43  O   UNL     1       1.795   1.659  19.516  0.00  0.00    -0.241 OA
ENDBRANCH  31  42
ENDBRANCH  27  34
ENDBRANCH  24  29
ENDBRANCH   1  24
TORSDOF 5
ENDMDL
MODEL 32
REMARK VINA RESULT:    -6.839      4.431      7.013
REMARK INTER + INTRA:          -9.341
REMARK INTER:                  -8.875
REMARK INTRA:                  -0.466
REMARK UNBOUND:                -0.503
REMARK  Name = 
REMARK  5 active torsions:
REMARK  status: ('A' for Active; 'I' for Inactive)
REMARK    1  A    between atoms: C_2  and  C_4
REMARK    2  A    between atoms: C_7  and  C_8
REMARK    3  A    between atoms: N_10  and  C_11
REMARK    4  A    between atoms: C_11  and  C_12
REMARK    5  A    between atoms: N_16  and  C_17
REMARK                            x       y       z     vdW  Elec       q    Type
REMARK                         _______ _______ _______ _____ _____    ______ ____
ROOT
ATOM      1  C   UNL     1      -0.797  10.149  18.860  0.00  0.00    +0.039 C 
ATOM      2  C   UNL     1      -1.556   9.746  17.587  0.00  0.00    -0.032 C 
ATOM      3  C   UNL     1      -2.026  11.057  16.986  0.00  0.00    -0.035 C 
ATOM      4  C   UNL     1      -2.315  11.928  18.202  0.00  0.00    +0.013 C 
ATOM      5  N   UNL     1      -1.412  11.437  19.248  0.00  0.00    -0.325 N 
ATOM      6  H   UNL     1      -0.982   9.370  19.611  0.00  0.00    +0.051 HD
ATOM      7  H   UNL     1      -2.434   9.147  17.864  0.00  0.00    +0.028 HD
ATOM      8  H   UNL     1      -0.957   9.151  16.892  0.00  0.00    +0.028 HD
ATOM      9  H   UNL     1      -2.907  10.934  16.349  0.00  0.00    +0.028 HD
ATOM     10  H   UNL     1      -1.241  11.509  16.372  0.00  0.00    +0.028 HD
ATOM     11  H   UNL     1      -3.359  11.800  18.511  0.00  0.00    +0.046 HD
ATOM     12  H   UNL     1      -2.136  12.981  17.962  0.00  0.00    +0.046 HD
ENDROOT
BRANCH   5  13
ATOM     13  C   UNL     1      -1.453  11.930  20.538  0.00  0.00    +0.030 A 
ATOM     14  C   UNL     1      -1.073  11.163  21.652  0.00  0.00    -0.041 A 
ATOM     15  C   UNL     1      -1.104  11.673  22.958  0.00  0.00    -0.060 A 
ATOM     16  C   UNL     1      -1.513  12.979  23.188  0.00  0.00    -0.062 A 
ATOM     17  C   UNL     1      -1.887  13.771  22.111  0.00  0.00    -0.060 A 
ATOM     18  C   UNL     1      -1.854  13.250  20.811  0.00  0.00    -0.041 A 
ATOM     19  H   UNL     1      -0.739  10.138  21.534  0.00  0.00    +0.064 HD
ATOM     20  H   UNL     1      -0.800  11.043  23.789  0.00  0.00    +0.062 HD
ATOM     21  H   UNL     1      -1.533  13.380  24.197  0.00  0.00    +0.062 HD
ATOM     22  H   UNL     1      -2.199  14.800  22.270  0.00  0.00    +0.062 HD
ATOM     23  H   UNL     1      -2.138  13.918  20.003  0.00  0.00    +0.064 HD
ENDBRANCH   5  13
BRANCH   1  24
ATOM     24  C   UNL     1       0.729  10.285  18.650  0.00  0.00    +0.030 C 
ATOM     25  H   UNL     1       1.156  10.919  19.434  0.00  0.00    +0.048 HD
ATOM     26  H   UNL     1       0.931  10.773  17.691  0.00  0.00    +0.048 HD
BRANCH  24  29
ATOM     27  C   UNL     1       1.734   8.277  19.715  0.00  0.00    +0.247 C 
ATOM     28  O   UNL     1       1.541   8.701  20.852  0.00  0.00    -0.270 OA
ATOM     29  N   UNL     1       1.426   9.014  18.594  0.00  0.00    -0.309 N 
ATOM     30  H   UNL     1       1.500   8.589  17.675  0.00  0.00    +0.149 HD
BRANCH  27  34
ATOM     31  C   UNL     1       3.296   4.288  19.166  0.00  0.00    +0.066 A 
ATOM     32  C   UNL     1       2.424   4.598  20.222  0.00  0.00    -0.047 A 
ATOM     33  C   UNL     1       1.929   5.895  20.391  0.00  0.00    -0.046 A 
ATOM     34  C   UNL     1       2.301   6.915  19.506  0.00  0.00    +0.072 A 
ATOM     35  C   UNL     1       3.170   6.607  18.455  0.00  0.00    +0.136 A 
ATOM     36  F   UNL     1       3.544   7.544  17.568  0.00  0.00    -0.205 F 
ATOM     37  C   UNL     1       3.663   5.315  18.284  0.00  0.00    -0.012 A 
ATOM     38  H   UNL     1       2.129   3.808  20.915  0.00  0.00    +0.063 HD
ATOM     39  H   UNL     1       1.251   6.100  21.217  0.00  0.00    +0.063 HD
ATOM     40  H   UNL     1       4.335   5.100  17.457  0.00  0.00    +0.065 HD
BRANCH  31  42
ATOM     41  O   UNL     1       3.631   2.343  17.843  0.00  0.00    -0.241 OA
ATOM     42  C   UNL     1       3.827   2.881  18.977  0.00  0.00    +0.387 C 
ATOM     43  O   UNL     1       4.420   2.351  19.966  0.00  0.00    -0.241 OA
ENDBRANCH  31  42
ENDBRANCH  27  34
ENDBRANCH  24  29
ENDBRANCH   1  24
TORSDOF 5
ENDMDL
MODEL 33
REMARK VINA RESULT:    -6.778      4.619      8.286
REMARK INTER + INTRA:          -9.262
REMARK INTER:                  -8.759
REMARK INTRA:                  -0.503
REMARK UNBOUND:                -0.503
REMARK  Name = 
REMARK  5 active torsions:
REMARK  status: ('A' for Active; 'I' for Inactive)
REMARK    1  A    between atoms: C_2  and  C_4
REMARK    2  A    between atoms: C_7  and  C_8
REMARK    3  A    between atoms: N_10  and  C_11
REMARK    4  A    between atoms: C_11  and  C_12
REMARK    5  A    between atoms: N_16  and  C_17
REMARK                            x       y       z     vdW  Elec       q    Type
REMARK                         _______ _______ _______ _____ _____    ______ ____
ROOT
ATOM      1  C   UNL     1       1.919   5.065  19.841  0.00  0.00    +0.039 C 
ATOM      2  C   UNL     1       0.847   4.123  20.408  0.00  0.00    -0.032 C 
ATOM      3  C   UNL     1       1.627   3.045  21.137  0.00  0.00    -0.035 C 
ATOM      4  C   UNL     1       2.890   2.887  20.302  0.00  0.00    +0.013 C 
ATOM      5  N   UNL     1       3.107   4.199  19.682  0.00  0.00    -0.325 N 
ATOM      6  H   UNL     1       1.554   5.432  18.874  0.00  0.00    +0.051 HD
ATOM      7  H   UNL     1       0.295   3.663  19.578  0.00  0.00    +0.028 HD
ATOM      8  H   UNL     1       0.118   4.627  21.049  0.00  0.00    +0.028 HD
ATOM      9  H   UNL     1       1.068   2.108  21.220  0.00  0.00    +0.028 HD
ATOM     10  H   UNL     1       1.878   3.364  22.153  0.00  0.00    +0.028 HD
ATOM     11  H   UNL     1       2.733   2.124  19.530  0.00  0.00    +0.046 HD
ATOM     12  H   UNL     1       3.728   2.587  20.940  0.00  0.00    +0.046 HD
ENDROOT
BRANCH   5  13
ATOM     13  C   UNL     1       4.121   4.416  18.770  0.00  0.00    +0.030 A 
ATOM     14  C   UNL     1       5.357   4.976  19.134  0.00  0.00    -0.041 A 
ATOM     15  C   UNL     1       6.388   5.182  18.207  0.00  0.00    -0.060 A 
ATOM     16  C   UNL     1       6.213   4.824  16.877  0.00  0.00    -0.062 A 
ATOM     17  C   UNL     1       5.009   4.258  16.481  0.00  0.00    -0.060 A 
ATOM     18  C   UNL     1       3.985   4.059  17.417  0.00  0.00    -0.041 A 
ATOM     19  H   UNL     1       5.553   5.271  20.159  0.00  0.00    +0.064 HD
ATOM     20  H   UNL     1       7.327   5.618  18.534  0.00  0.00    +0.062 HD
ATOM     21  H   UNL     1       7.011   4.977  16.157  0.00  0.00    +0.062 HD
ATOM     22  H   UNL     1       4.858   3.960  15.447  0.00  0.00    +0.062 HD
ATOM     23  H   UNL     1       3.071   3.595  17.058  0.00  0.00    +0.064 HD
ENDBRANCH   5  13
BRANCH   1  24
ATOM     24  C   UNL     1       2.216   6.279  20.753  0.00  0.00    +0.030 C 
ATOM     25  H   UNL     1       3.231   6.645  20.565  0.00  0.00    +0.048 HD
ATOM     26  H   UNL     1       2.168   5.976  21.804  0.00  0.00    +0.048 HD
BRANCH  24  29
ATOM     27  C   UNL     1       1.289   8.493  21.395  0.00  0.00    +0.247 C 
ATOM     28  O   UNL     1       2.062   8.617  22.343  0.00  0.00    -0.270 OA
ATOM     29  N   UNL     1       1.259   7.360  20.616  0.00  0.00    -0.309 N 
ATOM     30  H   UNL     1       0.682   7.339  19.779  0.00  0.00    +0.149 HD
BRANCH  27  34
ATOM     31  C   UNL     1      -1.416  11.730  20.467  0.00  0.00    +0.066 A 
ATOM     32  C   UNL     1      -1.180  11.325  21.792  0.00  0.00    -0.047 A 
ATOM     33  C   UNL     1      -0.305  10.272  22.078  0.00  0.00    -0.046 A 
ATOM     34  C   UNL     1       0.351   9.596  21.040  0.00  0.00    +0.072 A 
ATOM     35  C   UNL     1       0.115   9.998  19.723  0.00  0.00    +0.136 A 
ATOM     36  F   UNL     1       0.733   9.395  18.694  0.00  0.00    -0.205 F 
ATOM     37  C   UNL     1      -0.755  11.048  19.436  0.00  0.00    -0.012 A 
ATOM     38  H   UNL     1      -1.687  11.847  22.604  0.00  0.00    +0.063 HD
ATOM     39  H   UNL     1      -0.140   9.987  23.114  0.00  0.00    +0.063 HD
ATOM     40  H   UNL     1      -0.919  11.344  18.402  0.00  0.00    +0.065 HD
BRANCH  31  42
ATOM     41  O   UNL     1      -3.559  12.570  19.877  0.00  0.00    -0.241 OA
ATOM     42  C   UNL     1      -2.358  12.876  20.157  0.00  0.00    +0.387 C 
ATOM     43  O   UNL     1      -1.872  14.048  20.197  0.00  0.00    -0.241 OA
ENDBRANCH  31  42
ENDBRANCH  27  34
ENDBRANCH  24  29
ENDBRANCH   1  24
TORSDOF 5
ENDMDL
