MODEL 1
REMARK VINA RESULT:    -9.614      0.000      0.000
REMARK INTER + INTRA:         -12.328
REMARK INTER:                 -11.327
REMARK INTRA:                  -1.002
REMARK UNBOUND:                 0.377
REMARK  Name = 
REMARK  6 active torsions:
REMARK  status: ('A' for Active; 'I' for Inactive)
REMARK    1  A    between atoms: C_1  and  C_2
REMARK    2  A    between atoms: C_8  and  C_9
REMARK    3  A    between atoms: C_12  and  C_13
REMARK    4  A    between atoms: C_13  and  N_14
REMARK    5  A    between atoms: N_17  and  C_18
REMARK    6  A    between atoms: C_27  and  C_28
REMARK                            x       y       z     vdW  Elec       q    Type
REMARK                         _______ _______ _______ _____ _____    ______ ____
ROOT
ATOM      1  C   UNL     1      -1.251  12.003  21.849  0.00  0.00    -0.017 A 
ATOM      2  C   UNL     1      -0.117  11.242  22.158  0.00  0.00    -0.054 A 
ATOM      3  C   UNL     1       0.618  10.603  21.153  0.00  0.00    -0.056 A 
ATOM      4  C   UNL     1       0.247  10.711  19.801  0.00  0.00    -0.018 A 
ATOM      5  C   UNL     1      -0.927  11.425  19.500  0.00  0.00    +0.042 A 
ATOM      6  C   UNL     1      -1.651  12.081  20.508  0.00  0.00    -0.042 A 
ATOM      7  H   UNL     1       0.212  11.150  23.193  0.00  0.00    +0.062 HD
ATOM      8  H   UNL     1       1.496  10.025  21.437  0.00  0.00    +0.062 HD
ATOM      9  H   UNL     1      -2.543  12.648  20.243  0.00  0.00    +0.063 HD
ENDROOT
BRANCH   1  16
ATOM     10  C   UNL     1      -1.681  13.975  23.375  0.00  0.00    -0.043 A 
ATOM     11  C   UNL     1      -2.465  14.577  24.376  0.00  0.00    -0.056 A 
ATOM     12  C   UNL     1      -3.555  13.905  24.927  0.00  0.00    -0.026 A 
ATOM     13  C   UNL     1      -3.868  12.633  24.476  0.00  0.00    +0.124 A 
ATOM     14  F   UNL     1      -4.915  11.985  25.003  0.00  0.00    -0.205 F 
ATOM     15  C   UNL     1      -3.116  12.021  23.479  0.00  0.00    -0.018 A 
ATOM     16  C   UNL     1      -2.014  12.681  22.907  0.00  0.00    -0.012 A 
ATOM     17  H   UNL     1      -2.226  15.577  24.735  0.00  0.00    +0.062 HD
ATOM     18  H   UNL     1      -4.158  14.366  25.702  0.00  0.00    +0.065 HD
ATOM     19  H   UNL     1      -3.403  11.027  23.148  0.00  0.00    +0.065 HD
BRANCH  10  20
ATOM     20  C   UNL     1      -0.515  14.746  22.810  0.00  0.00    -0.039 C 
ATOM     21  H   UNL     1      -0.809  15.316  21.921  0.00  0.00    +0.028 HD
ATOM     22  H   UNL     1       0.287  14.061  22.521  0.00  0.00    +0.028 HD
ATOM     23  H   UNL     1      -0.135  15.470  23.539  0.00  0.00    +0.028 HD
ENDBRANCH  10  20
ENDBRANCH   1  16
BRANCH   5  24
ATOM     24  C   UNL     1      -1.471  11.536  18.128  0.00  0.00    +0.242 C 
ATOM     25  N   UNL     1      -1.134  12.664  17.436  0.00  0.00    -0.325 N 
ATOM     26  O   UNL     1      -2.137  10.639  17.630  0.00  0.00    -0.270 OA
ATOM     27  H   UNL     1      -1.392  12.690  16.457  0.00  0.00    +0.145 HD
ATOM     28  H   UNL     1      -0.400  13.287  17.744  0.00  0.00    +0.145 HD
ENDBRANCH   5  24
BRANCH   4  29
ATOM     29  C   UNL     1       1.081  10.048  18.731  0.00  0.00    +0.039 C 
ATOM     30  H   UNL     1       1.967  10.641  18.485  0.00  0.00    +0.051 HD
ATOM     31  H   UNL     1       0.479   9.928  17.823  0.00  0.00    +0.051 HD
BRANCH  29  32
ATOM     32  N   UNL     1       1.585   8.755  19.148  0.00  0.00    -0.295 N 
ATOM     33  C   UNL     1       2.244   7.972  18.235  0.00  0.00    +0.300 C 
ATOM     34  O   UNL     1       2.351   8.240  17.047  0.00  0.00    -0.253 OA
ATOM     35  N   UNL     1       2.759   6.852  18.825  0.00  0.00    -0.293 N 
ATOM     36  H   UNL     1       1.987   8.721  20.073  0.00  0.00    +0.151 HD
ATOM     37  H   UNL     1       2.301   6.540  19.668  0.00  0.00    +0.151 HD
BRANCH  35  38
ATOM     38  C   UNL     1       3.428   5.843  18.033  0.00  0.00    +0.050 C 
ATOM     39  C   UNL     1       3.383   4.442  18.679  0.00  0.00    -0.026 C 
ATOM     40  C   UNL     1       4.618   4.331  19.586  0.00  0.00    -0.025 C 
ATOM     41  C   UNL     1       5.581   5.238  18.886  0.00  0.00    -0.042 A 
ATOM     42  C   UNL     1       6.952   5.320  19.058  0.00  0.00    -0.058 A 
ATOM     43  C   UNL     1       7.654   6.275  18.320  0.00  0.00    -0.061 A 
ATOM     44  C   UNL     1       6.983   7.135  17.436  0.00  0.00    -0.061 A 
ATOM     45  C   UNL     1       5.598   7.052  17.279  0.00  0.00    -0.057 A 
ATOM     46  C   UNL     1       4.909   6.096  18.008  0.00  0.00    -0.024 A 
ATOM     47  H   UNL     1       2.996   5.815  17.026  0.00  0.00    +0.055 HD
ATOM     48  H   UNL     1       2.455   4.234  19.224  0.00  0.00    +0.029 HD
ATOM     49  H   UNL     1       3.467   3.685  17.885  0.00  0.00    +0.029 HD
ATOM     50  H   UNL     1       4.406   4.711  20.592  0.00  0.00    +0.031 HD
ATOM     51  H   UNL     1       4.979   3.300  19.643  0.00  0.00    +0.031 HD
ATOM     52  H   UNL     1       7.472   4.662  19.745  0.00  0.00    +0.062 HD
ATOM     53  H   UNL     1       8.733   6.357  18.431  0.00  0.00    +0.062 HD
ATOM     54  H   UNL     1       7.547   7.874  16.873  0.00  0.00    +0.062 HD
ATOM     55  H   UNL     1       5.076   7.724  16.604  0.00  0.00    +0.062 HD
ENDBRANCH  35  38
ENDBRANCH  29  32
ENDBRANCH   4  29
TORSDOF 6
ENDMDL
MODEL 2
REMARK VINA RESULT:    -9.464      3.843     10.507
REMARK INTER + INTRA:         -12.130
REMARK INTER:                 -11.073
REMARK INTRA:                  -1.057
REMARK UNBOUND:                 0.377
REMARK  Name = 
REMARK  6 active torsions:
REMARK  status: ('A' for Active; 'I' for Inactive)
REMARK    1  A    between atoms: C_1  and  C_2
REMARK    2  A    between atoms: C_8  and  C_9
REMARK    3  A    between atoms: C_12  and  C_13
REMARK    4  A    between atoms: C_13  and  N_14
REMARK    5  A    between atoms: N_17  and  C_18
REMARK    6  A    between atoms: C_27  and  C_28
REMARK                            x       y       z     vdW  Elec       q    Type
REMARK                         _______ _______ _______ _____ _____    ______ ____
ROOT
ATOM      1  C   UNL     1       4.000   5.754  18.106  0.00  0.00    -0.017 A 
ATOM      2  C   UNL     1       3.598   7.096  18.078  0.00  0.00    -0.054 A 
ATOM      3  C   UNL     1       2.634   7.578  18.971  0.00  0.00    -0.056 A 
ATOM      4  C   UNL     1       2.045   6.735  19.929  0.00  0.00    -0.018 A 
ATOM      5  C   UNL     1       2.406   5.375  19.914  0.00  0.00    +0.042 A 
ATOM      6  C   UNL     1       3.387   4.899  19.030  0.00  0.00    -0.042 A 
ATOM      7  H   UNL     1       4.045   7.783  17.361  0.00  0.00    +0.062 HD
ATOM      8  H   UNL     1       2.354   8.629  18.918  0.00  0.00    +0.062 HD
ATOM      9  H   UNL     1       3.665   3.846  19.059  0.00  0.00    +0.063 HD
ENDROOT
BRANCH   1  16
ATOM     10  C   UNL     1       6.382   5.118  17.536  0.00  0.00    -0.043 A 
ATOM     11  C   UNL     1       7.304   4.613  16.602  0.00  0.00    -0.056 A 
ATOM     12  C   UNL     1       6.897   4.265  15.316  0.00  0.00    -0.026 A 
ATOM     13  C   UNL     1       5.566   4.414  14.960  0.00  0.00    +0.124 A 
ATOM     14  F   UNL     1       5.172   4.081  13.724  0.00  0.00    -0.205 F 
ATOM     15  C   UNL     1       4.632   4.900  15.868  0.00  0.00    -0.018 A 
ATOM     16  C   UNL     1       5.020   5.255  17.173  0.00  0.00    -0.012 A 
ATOM     17  H   UNL     1       8.352   4.492  16.874  0.00  0.00    +0.062 HD
ATOM     18  H   UNL     1       7.608   3.880  14.592  0.00  0.00    +0.065 HD
ATOM     19  H   UNL     1       3.597   4.991  15.551  0.00  0.00    +0.065 HD
BRANCH  10  20
ATOM     20  C   UNL     1       6.873   5.476  18.915  0.00  0.00    -0.039 C 
ATOM     21  H   UNL     1       7.956   5.643  18.920  0.00  0.00    +0.028 HD
ATOM     22  H   UNL     1       6.655   4.665  19.618  0.00  0.00    +0.028 HD
ATOM     23  H   UNL     1       6.409   6.403  19.268  0.00  0.00    +0.028 HD
ENDBRANCH  10  20
ENDBRANCH   1  16
BRANCH   5  24
ATOM     24  C   UNL     1       1.792   4.370  20.811  0.00  0.00    +0.242 C 
ATOM     25  N   UNL     1       0.642   3.785  20.364  0.00  0.00    -0.325 N 
ATOM     26  O   UNL     1       2.320   4.048  21.866  0.00  0.00    -0.270 OA
ATOM     27  H   UNL     1       0.287   3.008  20.906  0.00  0.00    +0.145 HD
ATOM     28  H   UNL     1       0.334   3.866  19.403  0.00  0.00    +0.145 HD
ENDBRANCH   5  24
BRANCH   4  29
ATOM     29  C   UNL     1       1.038   7.289  20.910  0.00  0.00    +0.039 C 
ATOM     30  H   UNL     1       1.108   6.791  21.882  0.00  0.00    +0.051 HD
ATOM     31  H   UNL     1       0.027   7.142  20.515  0.00  0.00    +0.051 HD
BRANCH  29  32
ATOM     32  N   UNL     1       1.251   8.697  21.180  0.00  0.00    -0.295 N 
ATOM     33  C   UNL     1       0.353   9.610  20.689  0.00  0.00    +0.300 C 
ATOM     34  O   UNL     1      -0.573   9.333  19.941  0.00  0.00    -0.253 OA
ATOM     35  N   UNL     1       0.634  10.869  21.141  0.00  0.00    -0.293 N 
ATOM     36  H   UNL     1       1.586   8.918  22.106  0.00  0.00    +0.151 HD
ATOM     37  H   UNL     1       1.590  11.046  21.407  0.00  0.00    +0.151 HD
BRANCH  35  38
ATOM     38  C   UNL     1      -0.140  12.004  20.687  0.00  0.00    +0.050 C 
ATOM     39  C   UNL     1       0.732  13.236  20.361  0.00  0.00    -0.026 C 
ATOM     40  C   UNL     1       0.866  14.042  21.662  0.00  0.00    -0.025 C 
ATOM     41  C   UNL     1      -0.415  13.698  22.355  0.00  0.00    -0.042 A 
ATOM     42  C   UNL     1      -1.002  14.344  23.430  0.00  0.00    -0.058 A 
ATOM     43  C   UNL     1      -2.191  13.822  23.945  0.00  0.00    -0.061 A 
ATOM     44  C   UNL     1      -2.766  12.666  23.394  0.00  0.00    -0.061 A 
ATOM     45  C   UNL     1      -2.159  12.014  22.318  0.00  0.00    -0.057 A 
ATOM     46  C   UNL     1      -0.985  12.543  21.805  0.00  0.00    -0.024 A 
ATOM     47  H   UNL     1      -0.740  11.719  19.816  0.00  0.00    +0.055 HD
ATOM     48  H   UNL     1       1.709  12.987  19.932  0.00  0.00    +0.029 HD
ATOM     49  H   UNL     1       0.205  13.856  19.621  0.00  0.00    +0.029 HD
ATOM     50  H   UNL     1       1.720  13.697  22.256  0.00  0.00    +0.031 HD
ATOM     51  H   UNL     1       0.958  15.112  21.459  0.00  0.00    +0.031 HD
ATOM     52  H   UNL     1      -0.557  15.233  23.862  0.00  0.00    +0.062 HD
ATOM     53  H   UNL     1      -2.676  14.314  24.785  0.00  0.00    +0.062 HD
ATOM     54  H   UNL     1      -3.689  12.273  23.812  0.00  0.00    +0.062 HD
ATOM     55  H   UNL     1      -2.597  11.114  21.898  0.00  0.00    +0.062 HD
ENDBRANCH  35  38
ENDBRANCH  29  32
ENDBRANCH   4  29
TORSDOF 6
ENDMDL
MODEL 3
REMARK VINA RESULT:    -9.308      4.131     10.171
REMARK INTER + INTRA:         -11.924
REMARK INTER:                 -10.809
REMARK INTRA:                  -1.115
REMARK UNBOUND:                 0.377
REMARK  Name = 
REMARK  6 active torsions:
REMARK  status: ('A' for Active; 'I' for Inactive)
REMARK    1  A    between atoms: C_1  and  C_2
REMARK    2  A    between atoms: C_8  and  C_9
REMARK    3  A    between atoms: C_12  and  C_13
REMARK    4  A    between atoms: C_13  and  N_14
REMARK    5  A    between atoms: N_17  and  C_18
REMARK    6  A    between atoms: C_27  and  C_28
REMARK                            x       y       z     vdW  Elec       q    Type
REMARK                         _______ _______ _______ _____ _____    ______ ____
ROOT
ATOM      1  C   UNL     1       3.982   5.616  18.214  0.00  0.00    -0.017 A 
ATOM      2  C   UNL     1       3.565   6.953  18.251  0.00  0.00    -0.054 A 
ATOM      3  C   UNL     1       2.603   7.382  19.172  0.00  0.00    -0.056 A 
ATOM      4  C   UNL     1       2.030   6.489  20.094  0.00  0.00    -0.018 A 
ATOM      5  C   UNL     1       2.407   5.135  20.014  0.00  0.00    +0.042 A 
ATOM      6  C   UNL     1       3.386   4.712  19.102  0.00  0.00    -0.042 A 
ATOM      7  H   UNL     1       3.999   7.678  17.563  0.00  0.00    +0.062 HD
ATOM      8  H   UNL     1       2.310   8.431  19.169  0.00  0.00    +0.062 HD
ATOM      9  H   UNL     1       3.677   3.662  19.080  0.00  0.00    +0.063 HD
ENDROOT
BRANCH   1  16
ATOM     10  C   UNL     1       6.376   5.094  17.581  0.00  0.00    -0.043 A 
ATOM     11  C   UNL     1       7.298   4.641  16.620  0.00  0.00    -0.056 A 
ATOM     12  C   UNL     1       6.875   4.286  15.340  0.00  0.00    -0.026 A 
ATOM     13  C   UNL     1       5.531   4.378  15.018  0.00  0.00    +0.124 A 
ATOM     14  F   UNL     1       5.121   4.038  13.788  0.00  0.00    -0.205 F 
ATOM     15  C   UNL     1       4.598   4.812  15.953  0.00  0.00    -0.018 A 
ATOM     16  C   UNL     1       5.001   5.173  17.251  0.00  0.00    -0.012 A 
ATOM     17  H   UNL     1       8.356   4.565  16.865  0.00  0.00    +0.062 HD
ATOM     18  H   UNL     1       7.585   3.940  14.596  0.00  0.00    +0.065 HD
ATOM     19  H   UNL     1       3.552   4.859  15.662  0.00  0.00    +0.065 HD
BRANCH  10  20
ATOM     20  C   UNL     1       6.885   5.462  18.951  0.00  0.00    -0.039 C 
ATOM     21  H   UNL     1       6.438   6.398  19.303  0.00  0.00    +0.028 HD
ATOM     22  H   UNL     1       7.971   5.594  18.929  0.00  0.00    +0.028 HD
ATOM     23  H   UNL     1       6.624   4.691  19.685  0.00  0.00    +0.028 HD
ENDBRANCH  10  20
ENDBRANCH   1  16
BRANCH   5  24
ATOM     24  C   UNL     1       1.811   4.083  20.868  0.00  0.00    +0.242 C 
ATOM     25  N   UNL     1       0.671   3.499  20.398  0.00  0.00    -0.325 N 
ATOM     26  O   UNL     1       2.347   3.725  21.908  0.00  0.00    -0.270 OA
ATOM     27  H   UNL     1       0.329   2.694  20.907  0.00  0.00    +0.145 HD
ATOM     28  H   UNL     1       0.359   3.616  19.442  0.00  0.00    +0.145 HD
ENDBRANCH   5  24
BRANCH   4  29
ATOM     29  C   UNL     1       1.025   6.985  21.107  0.00  0.00    +0.039 C 
ATOM     30  H   UNL     1       1.501   7.221  22.064  0.00  0.00    +0.051 HD
ATOM     31  H   UNL     1       0.268   6.212  21.276  0.00  0.00    +0.051 HD
BRANCH  29  32
ATOM     32  N   UNL     1       0.377   8.210  20.684  0.00  0.00    -0.295 N 
ATOM     33  C   UNL     1       0.518   9.336  21.455  0.00  0.00    +0.300 C 
ATOM     34  O   UNL     1       1.072   9.361  22.544  0.00  0.00    -0.253 OA
ATOM     35  N   UNL     1      -0.048  10.423  20.848  0.00  0.00    -0.293 N 
ATOM     36  H   UNL     1       0.398   8.395  19.692  0.00  0.00    +0.151 HD
ATOM     37  H   UNL     1      -0.785  10.233  20.187  0.00  0.00    +0.151 HD
BRANCH  35  38
ATOM     38  C   UNL     1      -0.085  11.704  21.519  0.00  0.00    +0.050 C 
ATOM     39  C   UNL     1      -1.520  12.242  21.710  0.00  0.00    -0.026 C 
ATOM     40  C   UNL     1      -1.857  13.061  20.454  0.00  0.00    -0.025 C 
ATOM     41  C   UNL     1      -0.500  13.540  20.041  0.00  0.00    -0.042 A 
ATOM     42  C   UNL     1      -0.188  14.558  19.156  0.00  0.00    -0.058 A 
ATOM     43  C   UNL     1       1.158  14.811  18.887  0.00  0.00    -0.061 A 
ATOM     44  C   UNL     1       2.167  14.043  19.490  0.00  0.00    -0.061 A 
ATOM     45  C   UNL     1       1.842  13.010  20.372  0.00  0.00    -0.057 A 
ATOM     46  C   UNL     1       0.504  12.771  20.642  0.00  0.00    -0.024 A 
ATOM     47  H   UNL     1       0.428  11.632  22.485  0.00  0.00    +0.055 HD
ATOM     48  H   UNL     1      -2.265  11.462  21.901  0.00  0.00    +0.029 HD
ATOM     49  H   UNL     1      -1.531  12.918  22.577  0.00  0.00    +0.029 HD
ATOM     50  H   UNL     1      -2.287  12.427  19.671  0.00  0.00    +0.031 HD
ATOM     51  H   UNL     1      -2.538  13.885  20.687  0.00  0.00    +0.031 HD
ATOM     52  H   UNL     1      -0.966  15.148  18.683  0.00  0.00    +0.062 HD
ATOM     53  H   UNL     1       1.431  15.609  18.200  0.00  0.00    +0.062 HD
ATOM     54  H   UNL     1       3.210  14.253  19.265  0.00  0.00    +0.062 HD
ATOM     55  H   UNL     1       2.621  12.408  20.830  0.00  0.00    +0.062 HD
ENDBRANCH  35  38
ENDBRANCH  29  32
ENDBRANCH   4  29
TORSDOF 6
ENDMDL
MODEL 4
REMARK VINA RESULT:    -9.260      1.870      2.813
REMARK INTER + INTRA:         -11.861
REMARK INTER:                 -10.665
REMARK INTRA:                  -1.196
REMARK UNBOUND:                 0.377
REMARK  Name = 
REMARK  6 active torsions:
REMARK  status: ('A' for Active; 'I' for Inactive)
REMARK    1  A    between atoms: C_1  and  C_2
REMARK    2  A    between atoms: C_8  and  C_9
REMARK    3  A    between atoms: C_12  and  C_13
REMARK    4  A    between atoms: C_13  and  N_14
REMARK    5  A    between atoms: N_17  and  C_18
REMARK    6  A    between atoms: C_27  and  C_28
REMARK                            x       y       z     vdW  Elec       q    Type
REMARK                         _______ _______ _______ _____ _____    ______ ____
ROOT
ATOM      1  C   UNL     1      -0.948  12.032  20.919  0.00  0.00    -0.017 A 
ATOM      2  C   UNL     1       0.375  11.623  21.128  0.00  0.00    -0.054 A 
ATOM      3  C   UNL     1       1.089  10.955  20.126  0.00  0.00    -0.056 A 
ATOM      4  C   UNL     1       0.505  10.680  18.878  0.00  0.00    -0.018 A 
ATOM      5  C   UNL     1      -0.843  11.038  18.693  0.00  0.00    +0.042 A 
ATOM      6  C   UNL     1      -1.550  11.726  19.691  0.00  0.00    -0.042 A 
ATOM      7  H   UNL     1       0.867  11.834  22.076  0.00  0.00    +0.062 HD
ATOM      8  H   UNL     1       2.117  10.659  20.329  0.00  0.00    +0.062 HD
ATOM      9  H   UNL     1      -2.585  12.013  19.511  0.00  0.00    +0.063 HD
ENDROOT
BRANCH   1  16
ATOM     10  C   UNL     1      -1.596  14.143  22.154  0.00  0.00    -0.043 A 
ATOM     11  C   UNL     1      -2.350  14.765  23.166  0.00  0.00    -0.056 A 
ATOM     12  C   UNL     1      -3.175  14.016  24.002  0.00  0.00    -0.026 A 
ATOM     13  C   UNL     1      -3.253  12.643  23.827  0.00  0.00    +0.124 A 
ATOM     14  F   UNL     1      -4.045  11.920  24.630  0.00  0.00    -0.205 F 
ATOM     15  C   UNL     1      -2.527  12.006  22.827  0.00  0.00    -0.018 A 
ATOM     16  C   UNL     1      -1.691  12.743  21.970  0.00  0.00    -0.012 A 
ATOM     17  H   UNL     1      -2.295  15.844  23.309  0.00  0.00    +0.062 HD
ATOM     18  H   UNL     1      -3.754  14.493  24.786  0.00  0.00    +0.065 HD
ATOM     19  H   UNL     1      -2.627  10.930  22.718  0.00  0.00    +0.065 HD
BRANCH  10  20
ATOM     20  C   UNL     1      -0.722  15.001  21.274  0.00  0.00    -0.039 C 
ATOM     21  H   UNL     1       0.205  14.481  21.008  0.00  0.00    +0.028 HD
ATOM     22  H   UNL     1      -0.452  15.925  21.795  0.00  0.00    +0.028 HD
ATOM     23  H   UNL     1      -1.231  15.243  20.335  0.00  0.00    +0.028 HD
ENDBRANCH  10  20
ENDBRANCH   1  16
BRANCH   5  24
ATOM     24  C   UNL     1      -1.596  10.725  17.457  0.00  0.00    +0.242 C 
ATOM     25  N   UNL     1      -1.947  11.790  16.679  0.00  0.00    -0.325 N 
ATOM     26  O   UNL     1      -1.836   9.571  17.131  0.00  0.00    -0.270 OA
ATOM     27  H   UNL     1      -2.346  11.579  15.773  0.00  0.00    +0.145 HD
ATOM     28  H   UNL     1      -1.550  12.711  16.814  0.00  0.00    +0.145 HD
ENDBRANCH   5  24
BRANCH   4  29
ATOM     29  C   UNL     1       1.311   9.997  17.798  0.00  0.00    +0.039 C 
ATOM     30  H   UNL     1       2.380  10.206  17.899  0.00  0.00    +0.051 HD
ATOM     31  H   UNL     1       0.978  10.352  16.816  0.00  0.00    +0.051 HD
BRANCH  29  32
ATOM     32  N   UNL     1       1.192   8.553  17.854  0.00  0.00    -0.295 N 
ATOM     33  C   UNL     1       2.308   7.805  18.128  0.00  0.00    +0.300 C 
ATOM     34  O   UNL     1       3.437   8.263  18.230  0.00  0.00    -0.253 OA
ATOM     35  N   UNL     1       1.994   6.482  18.267  0.00  0.00    -0.293 N 
ATOM     36  H   UNL     1       0.353   8.201  18.289  0.00  0.00    +0.151 HD
ATOM     37  H   UNL     1       1.158   6.169  17.796  0.00  0.00    +0.151 HD
BRANCH  35  38
ATOM     38  C   UNL     1       3.031   5.497  18.483  0.00  0.00    +0.050 C 
ATOM     39  C   UNL     1       3.258   4.584  17.259  0.00  0.00    -0.026 C 
ATOM     40  C   UNL     1       2.304   3.390  17.413  0.00  0.00    -0.025 C 
ATOM     41  C   UNL     1       2.182   3.298  18.902  0.00  0.00    -0.042 A 
ATOM     42  C   UNL     1       1.697   2.243  19.654  0.00  0.00    -0.058 A 
ATOM     43  C   UNL     1       1.639   2.391  21.041  0.00  0.00    -0.061 A 
ATOM     44  C   UNL     1       2.051   3.586  21.653  0.00  0.00    -0.061 A 
ATOM     45  C   UNL     1       2.528   4.650  20.885  0.00  0.00    -0.057 A 
ATOM     46  C   UNL     1       2.592   4.492  19.509  0.00  0.00    -0.024 A 
ATOM     47  H   UNL     1       3.964   5.997  18.766  0.00  0.00    +0.055 HD
ATOM     48  H   UNL     1       3.127   5.091  16.297  0.00  0.00    +0.029 HD
ATOM     49  H   UNL     1       4.291   4.208  17.287  0.00  0.00    +0.029 HD
ATOM     50  H   UNL     1       1.326   3.604  16.968  0.00  0.00    +0.031 HD
ATOM     51  H   UNL     1       2.727   2.483  16.971  0.00  0.00    +0.031 HD
ATOM     52  H   UNL     1       1.371   1.321  19.184  0.00  0.00    +0.062 HD
ATOM     53  H   UNL     1       1.267   1.575  21.656  0.00  0.00    +0.062 HD
ATOM     54  H   UNL     1       1.995   3.683  22.735  0.00  0.00    +0.062 HD
ATOM     55  H   UNL     1       2.837   5.578  21.356  0.00  0.00    +0.062 HD
ENDBRANCH  35  38
ENDBRANCH  29  32
ENDBRANCH   4  29
TORSDOF 6
ENDMDL
MODEL 5
REMARK VINA RESULT:    -8.890      2.572      3.622
REMARK INTER + INTRA:         -11.371
REMARK INTER:                 -10.547
REMARK INTRA:                  -0.825
REMARK UNBOUND:                 0.377
REMARK  Name = 
REMARK  6 active torsions:
REMARK  status: ('A' for Active; 'I' for Inactive)
REMARK    1  A    between atoms: C_1  and  C_2
REMARK    2  A    between atoms: C_8  and  C_9
REMARK    3  A    between atoms: C_12  and  C_13
REMARK    4  A    between atoms: C_13  and  N_14
REMARK    5  A    between atoms: N_17  and  C_18
REMARK    6  A    between atoms: C_27  and  C_28
REMARK                            x       y       z     vdW  Elec       q    Type
REMARK                         _______ _______ _______ _____ _____    ______ ____
ROOT
ATOM      1  C   UNL     1      -1.162  11.754  20.138  0.00  0.00    -0.017 A 
ATOM      2  C   UNL     1      -1.318  10.451  19.650  0.00  0.00    -0.054 A 
ATOM      3  C   UNL     1      -0.318   9.843  18.883  0.00  0.00    -0.056 A 
ATOM      4  C   UNL     1       0.879  10.518  18.584  0.00  0.00    -0.018 A 
ATOM      5  C   UNL     1       1.007  11.849  19.024  0.00  0.00    +0.042 A 
ATOM      6  C   UNL     1       0.010  12.448  19.810  0.00  0.00    -0.042 A 
ATOM      7  H   UNL     1      -2.224   9.890  19.877  0.00  0.00    +0.062 HD
ATOM      8  H   UNL     1      -0.478   8.827  18.528  0.00  0.00    +0.062 HD
ATOM      9  H   UNL     1       0.148  13.471  20.158  0.00  0.00    +0.063 HD
ENDROOT
BRANCH   1  16
ATOM     10  C   UNL     1      -2.298  12.202  22.354  0.00  0.00    -0.043 A 
ATOM     11  C   UNL     1      -3.315  12.851  23.079  0.00  0.00    -0.056 A 
ATOM     12  C   UNL     1      -4.250  13.654  22.429  0.00  0.00    -0.026 A 
ATOM     13  C   UNL     1      -4.170  13.817  21.056  0.00  0.00    +0.124 A 
ATOM     14  F   UNL     1      -5.068  14.588  20.429  0.00  0.00    -0.205 F 
ATOM     15  C   UNL     1      -3.168  13.196  20.318  0.00  0.00    -0.018 A 
ATOM     16  C   UNL     1      -2.212  12.383  20.953  0.00  0.00    -0.012 A 
ATOM     17  H   UNL     1      -3.384  12.729  24.159  0.00  0.00    +0.062 HD
ATOM     18  H   UNL     1      -5.038  14.152  22.986  0.00  0.00    +0.065 HD
ATOM     19  H   UNL     1      -3.136  13.360  19.245  0.00  0.00    +0.065 HD
BRANCH  10  20
ATOM     20  C   UNL     1      -1.309  11.348  23.105  0.00  0.00    -0.039 C 
ATOM     21  H   UNL     1      -0.310  11.798  23.100  0.00  0.00    +0.028 HD
ATOM     22  H   UNL     1      -1.235  10.359  22.642  0.00  0.00    +0.028 HD
ATOM     23  H   UNL     1      -1.603  11.241  24.155  0.00  0.00    +0.028 HD
ENDBRANCH  10  20
ENDBRANCH   1  16
BRANCH   5  24
ATOM     24  C   UNL     1       2.178  12.694  18.698  0.00  0.00    +0.242 C 
ATOM     25  N   UNL     1       2.420  12.902  17.371  0.00  0.00    -0.325 N 
ATOM     26  O   UNL     1       2.851  13.218  19.574  0.00  0.00    -0.270 OA
ATOM     27  H   UNL     1       3.135  13.580  17.140  0.00  0.00    +0.145 HD
ATOM     28  H   UNL     1       1.740  12.677  16.656  0.00  0.00    +0.145 HD
ENDBRANCH   5  24
BRANCH   4  29
ATOM     29  C   UNL     1       1.962   9.826  17.790  0.00  0.00    +0.039 C 
ATOM     30  H   UNL     1       2.941   9.933  18.267  0.00  0.00    +0.051 HD
ATOM     31  H   UNL     1       2.013  10.264  16.787  0.00  0.00    +0.051 HD
BRANCH  29  32
ATOM     32  N   UNL     1       1.738   8.399  17.683  0.00  0.00    -0.295 N 
ATOM     33  C   UNL     1       2.739   7.539  18.058  0.00  0.00    +0.300 C 
ATOM     34  O   UNL     1       3.863   7.891  18.385  0.00  0.00    -0.253 OA
ATOM     35  N   UNL     1       2.316   6.240  18.012  0.00  0.00    -0.293 N 
ATOM     36  H   UNL     1       0.815   8.081  17.940  0.00  0.00    +0.151 HD
ATOM     37  H   UNL     1       1.553   6.040  17.384  0.00  0.00    +0.151 HD
BRANCH  35  38
ATOM     38  C   UNL     1       3.233   5.157  18.293  0.00  0.00    +0.050 C 
ATOM     39  C   UNL     1       3.324   4.131  17.143  0.00  0.00    -0.026 C 
ATOM     40  C   UNL     1       2.238   3.076  17.403  0.00  0.00    -0.025 C 
ATOM     41  C   UNL     1       2.137   3.115  18.895  0.00  0.00    -0.042 A 
ATOM     42  C   UNL     1       1.546   2.187  19.735  0.00  0.00    -0.058 A 
ATOM     43  C   UNL     1       1.534   2.449  21.106  0.00  0.00    -0.061 A 
ATOM     44  C   UNL     1       2.099   3.629  21.616  0.00  0.00    -0.061 A 
ATOM     45  C   UNL     1       2.682   4.565  20.760  0.00  0.00    -0.057 A 
ATOM     46  C   UNL     1       2.699   4.294  19.401  0.00  0.00    -0.024 A 
ATOM     47  H   UNL     1       4.224   5.561  18.526  0.00  0.00    +0.055 HD
ATOM     48  H   UNL     1       3.234   4.574  16.146  0.00  0.00    +0.029 HD
ATOM     49  H   UNL     1       4.305   3.636  17.189  0.00  0.00    +0.029 HD
ATOM     50  H   UNL     1       1.283   3.371  16.953  0.00  0.00    +0.031 HD
ATOM     51  H   UNL     1       2.540   2.093  17.029  0.00  0.00    +0.031 HD
ATOM     52  H   UNL     1       1.102   1.278  19.343  0.00  0.00    +0.062 HD
ATOM     53  H   UNL     1       1.081   1.733  21.788  0.00  0.00    +0.062 HD
ATOM     54  H   UNL     1       2.077   3.816  22.687  0.00  0.00    +0.062 HD
ATOM     55  H   UNL     1       3.110   5.483  21.153  0.00  0.00    +0.062 HD
ENDBRANCH  35  38
ENDBRANCH  29  32
ENDBRANCH   4  29
TORSDOF 6
ENDMDL
MODEL 6
REMARK VINA RESULT:    -8.763      2.230      3.331
REMARK INTER + INTRA:         -11.204
REMARK INTER:                 -11.054
REMARK INTRA:                  -0.150
REMARK UNBOUND:                 0.377
REMARK  Name = 
REMARK  6 active torsions:
REMARK  status: ('A' for Active; 'I' for Inactive)
REMARK    1  A    between atoms: C_1  and  C_2
REMARK    2  A    between atoms: C_8  and  C_9
REMARK    3  A    between atoms: C_12  and  C_13
REMARK    4  A    between atoms: C_13  and  N_14
REMARK    5  A    between atoms: N_17  and  C_18
REMARK    6  A    between atoms: C_27  and  C_28
REMARK                            x       y       z     vdW  Elec       q    Type
REMARK                         _______ _______ _______ _____ _____    ______ ____
ROOT
ATOM      1  C   UNL     1      -1.877  12.589  21.925  0.00  0.00    -0.017 A 
ATOM      2  C   UNL     1      -1.436  11.315  22.306  0.00  0.00    -0.054 A 
ATOM      3  C   UNL     1      -0.561  10.582  21.496  0.00  0.00    -0.056 A 
ATOM      4  C   UNL     1      -0.091  11.103  20.278  0.00  0.00    -0.018 A 
ATOM      5  C   UNL     1      -0.583  12.356  19.869  0.00  0.00    +0.042 A 
ATOM      6  C   UNL     1      -1.445  13.097  20.693  0.00  0.00    -0.042 A 
ATOM      7  H   UNL     1      -1.765  10.886  23.252  0.00  0.00    +0.062 HD
ATOM      8  H   UNL     1      -0.240   9.598  21.833  0.00  0.00    +0.062 HD
ATOM      9  H   UNL     1      -1.790  14.076  20.362  0.00  0.00    +0.063 HD
ENDROOT
BRANCH   1  16
ATOM     10  C   UNL     1      -4.164  13.511  22.491  0.00  0.00    -0.043 A 
ATOM     11  C   UNL     1      -4.985  14.243  23.368  0.00  0.00    -0.056 A 
ATOM     12  C   UNL     1      -4.455  14.837  24.512  0.00  0.00    -0.026 A 
ATOM     13  C   UNL     1      -3.105  14.697  24.787  0.00  0.00    +0.124 A 
ATOM     14  F   UNL     1      -2.592  15.267  25.886  0.00  0.00    -0.205 F 
ATOM     15  C   UNL     1      -2.273  13.969  23.943  0.00  0.00    -0.018 A 
ATOM     16  C   UNL     1      -2.787  13.359  22.785  0.00  0.00    -0.012 A 
ATOM     17  H   UNL     1      -6.048  14.357  23.159  0.00  0.00    +0.062 HD
ATOM     18  H   UNL     1      -5.087  15.406  25.187  0.00  0.00    +0.065 HD
ATOM     19  H   UNL     1      -1.223  13.875  24.203  0.00  0.00    +0.065 HD
BRANCH  10  20
ATOM     20  C   UNL     1      -4.788  12.886  21.270  0.00  0.00    -0.039 C 
ATOM     21  H   UNL     1      -5.476  12.080  21.545  0.00  0.00    +0.028 HD
ATOM     22  H   UNL     1      -4.012  12.462  20.624  0.00  0.00    +0.028 HD
ATOM     23  H   UNL     1      -5.371  13.623  20.708  0.00  0.00    +0.028 HD
ENDBRANCH  10  20
ENDBRANCH   1  16
BRANCH   5  24
ATOM     24  C   UNL     1      -0.234  12.972  18.568  0.00  0.00    +0.242 C 
ATOM     25  N   UNL     1      -1.042  12.653  17.515  0.00  0.00    -0.325 N 
ATOM     26  O   UNL     1       0.692  13.763  18.464  0.00  0.00    -0.270 OA
ATOM     27  H   UNL     1      -0.892  13.166  16.655  0.00  0.00    +0.145 HD
ATOM     28  H   UNL     1      -1.938  12.200  17.639  0.00  0.00    +0.145 HD
ENDBRANCH   5  24
BRANCH   4  29
ATOM     29  C   UNL     1       0.886  10.311  19.441  0.00  0.00    +0.039 C 
ATOM     30  H   UNL     1       1.854  10.817  19.366  0.00  0.00    +0.051 HD
ATOM     31  H   UNL     1       0.480  10.184  18.431  0.00  0.00    +0.051 HD
BRANCH  29  32
ATOM     32  N   UNL     1       1.172   9.011  20.013  0.00  0.00    -0.295 N 
ATOM     33  C   UNL     1       1.983   8.146  19.324  0.00  0.00    +0.300 C 
ATOM     34  O   UNL     1       2.407   8.350  18.196  0.00  0.00    -0.253 OA
ATOM     35  N   UNL     1       2.248   7.025  20.060  0.00  0.00    -0.293 N 
ATOM     36  H   UNL     1       1.323   8.996  21.011  0.00  0.00    +0.151 HD
ATOM     37  H   UNL     1       1.569   6.783  20.766  0.00  0.00    +0.151 HD
BRANCH  35  38
ATOM     38  C   UNL     1       3.022   5.940  19.498  0.00  0.00    +0.050 C 
ATOM     39  C   UNL     1       2.815   5.778  17.976  0.00  0.00    -0.026 C 
ATOM     40  C   UNL     1       1.625   4.825  17.789  0.00  0.00    -0.025 C 
ATOM     41  C   UNL     1       1.719   3.988  19.026  0.00  0.00    -0.042 A 
ATOM     42  C   UNL     1       1.106   2.774  19.282  0.00  0.00    -0.058 A 
ATOM     43  C   UNL     1       1.305   2.183  20.531  0.00  0.00    -0.061 A 
ATOM     44  C   UNL     1       2.098   2.812  21.505  0.00  0.00    -0.061 A 
ATOM     45  C   UNL     1       2.703   4.043  21.241  0.00  0.00    -0.057 A 
ATOM     46  C   UNL     1       2.509   4.619  19.995  0.00  0.00    -0.024 A 
ATOM     47  H   UNL     1       4.084   6.084  19.727  0.00  0.00    +0.055 HD
ATOM     48  H   UNL     1       2.668   6.726  17.446  0.00  0.00    +0.029 HD
ATOM     49  H   UNL     1       3.710   5.305  17.547  0.00  0.00    +0.029 HD
ATOM     50  H   UNL     1       0.676   5.373  17.776  0.00  0.00    +0.031 HD
ATOM     51  H   UNL     1       1.730   4.234  16.875  0.00  0.00    +0.031 HD
ATOM     52  H   UNL     1       0.487   2.289  18.535  0.00  0.00    +0.062 HD
ATOM     53  H   UNL     1       0.839   1.226  20.756  0.00  0.00    +0.062 HD
ATOM     54  H   UNL     1       2.238   2.338  22.473  0.00  0.00    +0.062 HD
ATOM     55  H   UNL     1       3.307   4.536  21.997  0.00  0.00    +0.062 HD
ENDBRANCH  35  38
ENDBRANCH  29  32
ENDBRANCH   4  29
TORSDOF 6
ENDMDL
MODEL 7
REMARK VINA RESULT:    -8.741      4.074     10.465
REMARK INTER + INTRA:         -11.175
REMARK INTER:                 -10.319
REMARK INTRA:                  -0.857
REMARK UNBOUND:                 0.377
REMARK  Name = 
REMARK  6 active torsions:
REMARK  status: ('A' for Active; 'I' for Inactive)
REMARK    1  A    between atoms: C_1  and  C_2
REMARK    2  A    between atoms: C_8  and  C_9
REMARK    3  A    between atoms: C_12  and  C_13
REMARK    4  A    between atoms: C_13  and  N_14
REMARK    5  A    between atoms: N_17  and  C_18
REMARK    6  A    between atoms: C_27  and  C_28
REMARK                            x       y       z     vdW  Elec       q    Type
REMARK                         _______ _______ _______ _____ _____    ______ ____
ROOT
ATOM      1  C   UNL     1       4.133   5.890  17.857  0.00  0.00    -0.017 A 
ATOM      2  C   UNL     1       3.827   7.256  17.802  0.00  0.00    -0.054 A 
ATOM      3  C   UNL     1       2.948   7.836  18.724  0.00  0.00    -0.056 A 
ATOM      4  C   UNL     1       2.351   7.069  19.740  0.00  0.00    -0.018 A 
ATOM      5  C   UNL     1       2.612   5.686  19.755  0.00  0.00    +0.042 A 
ATOM      6  C   UNL     1       3.509   5.112  18.841  0.00  0.00    -0.042 A 
ATOM      7  H   UNL     1       4.285   7.886  17.040  0.00  0.00    +0.062 HD
ATOM      8  H   UNL     1       2.742   8.902  18.648  0.00  0.00    +0.062 HD
ATOM      9  H   UNL     1       3.712   4.043  18.893  0.00  0.00    +0.063 HD
ENDROOT
BRANCH   1  16
ATOM     10  C   UNL     1       6.429   5.060  17.195  0.00  0.00    -0.043 A 
ATOM     11  C   UNL     1       7.263   4.460  16.234  0.00  0.00    -0.056 A 
ATOM     12  C   UNL     1       6.767   4.105  14.981  0.00  0.00    -0.026 A 
ATOM     13  C   UNL     1       5.434   4.344  14.686  0.00  0.00    +0.124 A 
ATOM     14  F   UNL     1       4.954   4.004  13.482  0.00  0.00    -0.205 F 
ATOM     15  C   UNL     1       4.586   4.925  15.622  0.00  0.00    -0.018 A 
ATOM     16  C   UNL     1       5.065   5.288  16.893  0.00  0.00    -0.012 A 
ATOM     17  H   UNL     1       8.311   4.268  16.459  0.00  0.00    +0.062 HD
ATOM     18  H   UNL     1       7.410   3.646  14.237  0.00  0.00    +0.065 HD
ATOM     19  H   UNL     1       3.545   5.084  15.352  0.00  0.00    +0.065 HD
BRANCH  10  20
ATOM     20  C   UNL     1       7.015   5.421  18.536  0.00  0.00    -0.039 C 
ATOM     21  H   UNL     1       7.868   6.101  18.426  0.00  0.00    +0.028 HD
ATOM     22  H   UNL     1       7.367   4.520  19.049  0.00  0.00    +0.028 HD
ATOM     23  H   UNL     1       6.277   5.935  19.160  0.00  0.00    +0.028 HD
ENDBRANCH  10  20
ENDBRANCH   1  16
BRANCH   5  24
ATOM     24  C   UNL     1       1.975   4.759  20.717  0.00  0.00    +0.242 C 
ATOM     25  N   UNL     1       0.763   4.250  20.350  0.00  0.00    -0.325 N 
ATOM     26  O   UNL     1       2.536   4.428  21.752  0.00  0.00    -0.270 OA
ATOM     27  H   UNL     1       0.380   3.519  20.937  0.00  0.00    +0.145 HD
ATOM     28  H   UNL     1       0.408   4.326  19.406  0.00  0.00    +0.145 HD
ENDBRANCH   5  24
BRANCH   4  29
ATOM     29  C   UNL     1       1.439   7.726  20.749  0.00  0.00    +0.039 C 
ATOM     30  H   UNL     1       1.928   8.572  21.243  0.00  0.00    +0.051 HD
ATOM     31  H   UNL     1       1.155   6.994  21.513  0.00  0.00    +0.051 HD
BRANCH  29  32
ATOM     32  N   UNL     1       0.244   8.273  20.138  0.00  0.00    -0.295 N 
ATOM     33  C   UNL     1       0.232   9.593  19.768  0.00  0.00    +0.300 C 
ATOM     34  O   UNL     1       1.130  10.385  20.011  0.00  0.00    -0.253 OA
ATOM     35  N   UNL     1      -0.918   9.907  19.097  0.00  0.00    -0.293 N 
ATOM     36  H   UNL     1      -0.229   7.666  19.485  0.00  0.00    +0.151 HD
ATOM     37  H   UNL     1      -1.720   9.326  19.290  0.00  0.00    +0.151 HD
BRANCH  35  38
ATOM     38  C   UNL     1      -1.179  11.267  18.680  0.00  0.00    +0.050 C 
ATOM     39  C   UNL     1      -1.586  12.188  19.849  0.00  0.00    -0.026 C 
ATOM     40  C   UNL     1      -3.115  12.095  19.977  0.00  0.00    -0.025 C 
ATOM     41  C   UNL     1      -3.511  11.795  18.565  0.00  0.00    -0.042 A 
ATOM     42  C   UNL     1      -4.768  11.892  17.993  0.00  0.00    -0.058 A 
ATOM     43  C   UNL     1      -4.916  11.521  16.655  0.00  0.00    -0.061 A 
ATOM     44  C   UNL     1      -3.819  11.051  15.915  0.00  0.00    -0.061 A 
ATOM     45  C   UNL     1      -2.558  10.945  16.504  0.00  0.00    -0.057 A 
ATOM     46  C   UNL     1      -2.416  11.324  17.829  0.00  0.00    -0.024 A 
ATOM     47  H   UNL     1      -0.302  11.671  18.162  0.00  0.00    +0.055 HD
ATOM     48  H   UNL     1      -1.083  11.955  20.794  0.00  0.00    +0.029 HD
ATOM     49  H   UNL     1      -1.322  13.224  19.591  0.00  0.00    +0.029 HD
ATOM     50  H   UNL     1      -3.408  11.268  20.633  0.00  0.00    +0.031 HD
ATOM     51  H   UNL     1      -3.541  13.034  20.340  0.00  0.00    +0.031 HD
ATOM     52  H   UNL     1      -5.618  12.248  18.565  0.00  0.00    +0.062 HD
ATOM     53  H   UNL     1      -5.892  11.593  16.180  0.00  0.00    +0.062 HD
ATOM     54  H   UNL     1      -3.956  10.763  14.875  0.00  0.00    +0.062 HD
ATOM     55  H   UNL     1      -1.711  10.571  15.936  0.00  0.00    +0.062 HD
ENDBRANCH  35  38
ENDBRANCH  29  32
ENDBRANCH   4  29
TORSDOF 6
ENDMDL
MODEL 8
REMARK VINA RESULT:    -8.712      1.553      1.863
REMARK INTER + INTRA:         -11.137
REMARK INTER:                 -10.171
REMARK INTRA:                  -0.966
REMARK UNBOUND:                 0.377
REMARK  Name = 
REMARK  6 active torsions:
REMARK  status: ('A' for Active; 'I' for Inactive)
REMARK    1  A    between atoms: C_1  and  C_2
REMARK    2  A    between atoms: C_8  and  C_9
REMARK    3  A    between atoms: C_12  and  C_13
REMARK    4  A    between atoms: C_13  and  N_14
REMARK    5  A    between atoms: N_17  and  C_18
REMARK    6  A    between atoms: C_27  and  C_28
REMARK                            x       y       z     vdW  Elec       q    Type
REMARK                         _______ _______ _______ _____ _____    ______ ____
ROOT
ATOM      1  C   UNL     1      -1.435  12.690  21.980  0.00  0.00    -0.017 A 
ATOM      2  C   UNL     1      -0.894  11.425  22.244  0.00  0.00    -0.054 A 
ATOM      3  C   UNL     1      -0.068  10.785  21.313  0.00  0.00    -0.056 A 
ATOM      4  C   UNL     1       0.253  11.394  20.087  0.00  0.00    -0.018 A 
ATOM      5  C   UNL     1      -0.340  12.637  19.799  0.00  0.00    +0.042 A 
ATOM      6  C   UNL     1      -1.153  13.285  20.743  0.00  0.00    -0.042 A 
ATOM      7  H   UNL     1      -1.106  10.930  23.191  0.00  0.00    +0.062 HD
ATOM      8  H   UNL     1       0.334   9.804  21.561  0.00  0.00    +0.062 HD
ATOM      9  H   UNL     1      -1.578  14.258  20.502  0.00  0.00    +0.063 HD
ENDROOT
BRANCH   1  16
ATOM     10  C   UNL     1      -3.705  13.380  22.858  0.00  0.00    -0.043 A 
ATOM     11  C   UNL     1      -4.471  14.023  23.848  0.00  0.00    -0.056 A 
ATOM     12  C   UNL     1      -3.854  14.661  24.922  0.00  0.00    -0.026 A 
ATOM     13  C   UNL     1      -2.472  14.653  25.015  0.00  0.00    +0.124 A 
ATOM     14  F   UNL     1      -1.876  15.266  26.047  0.00  0.00    -0.205 F 
ATOM     15  C   UNL     1      -1.693  14.015  24.056  0.00  0.00    -0.018 A 
ATOM     16  C   UNL     1      -2.293  13.362  22.965  0.00  0.00    -0.012 A 
ATOM     17  H   UNL     1      -5.558  14.032  23.782  0.00  0.00    +0.062 HD
ATOM     18  H   UNL     1      -4.443  15.162  25.684  0.00  0.00    +0.065 HD
ATOM     19  H   UNL     1      -0.613  14.024  24.174  0.00  0.00    +0.065 HD
BRANCH  10  20
ATOM     20  C   UNL     1      -4.422  12.702  21.718  0.00  0.00    -0.039 C 
ATOM     21  H   UNL     1      -4.038  11.688  21.554  0.00  0.00    +0.028 HD
ATOM     22  H   UNL     1      -4.282  13.268  20.792  0.00  0.00    +0.028 HD
ATOM     23  H   UNL     1      -5.491  12.604  21.932  0.00  0.00    +0.028 HD
ENDBRANCH  10  20
ENDBRANCH   1  16
BRANCH   5  24
ATOM     24  C   UNL     1      -0.153  13.337  18.508  0.00  0.00    +0.242 C 
ATOM     25  N   UNL     1      -1.009  12.989  17.504  0.00  0.00    -0.325 N 
ATOM     26  O   UNL     1       0.687  14.216  18.374  0.00  0.00    -0.270 OA
ATOM     27  H   UNL     1      -0.975  13.550  16.662  0.00  0.00    +0.145 HD
ATOM     28  H   UNL     1      -1.848  12.448  17.673  0.00  0.00    +0.145 HD
ENDBRANCH   5  24
BRANCH   4  29
ATOM     29  C   UNL     1       1.181  10.702  19.117  0.00  0.00    +0.039 C 
ATOM     30  H   UNL     1       2.154  11.200  19.066  0.00  0.00    +0.051 HD
ATOM     31  H   UNL     1       0.733  10.709  18.118  0.00  0.00    +0.051 HD
BRANCH  29  32
ATOM     32  N   UNL     1       1.467   9.336  19.508  0.00  0.00    -0.295 N 
ATOM     33  C   UNL     1       1.883   8.444  18.553  0.00  0.00    +0.300 C 
ATOM     34  O   UNL     1       1.934   8.690  17.356  0.00  0.00    -0.253 OA
ATOM     35  N   UNL     1       2.227   7.245  19.113  0.00  0.00    -0.293 N 
ATOM     36  H   UNL     1       1.935   9.224  20.395  0.00  0.00    +0.151 HD
ATOM     37  H   UNL     1       1.794   7.024  19.996  0.00  0.00    +0.151 HD
BRANCH  35  38
ATOM     38  C   UNL     1       2.621   6.130  18.280  0.00  0.00    +0.050 C 
ATOM     39  C   UNL     1       2.349   4.761  18.939  0.00  0.00    -0.026 C 
ATOM     40  C   UNL     1       3.604   4.402  19.751  0.00  0.00    -0.025 C 
ATOM     41  C   UNL     1       4.671   5.105  18.972  0.00  0.00    -0.042 A 
ATOM     42  C   UNL     1       6.040   4.914  19.038  0.00  0.00    -0.058 A 
ATOM     43  C   UNL     1       6.859   5.716  18.241  0.00  0.00    -0.061 A 
ATOM     44  C   UNL     1       6.305   6.698  17.403  0.00  0.00    -0.061 A 
ATOM     45  C   UNL     1       4.923   6.892  17.353  0.00  0.00    -0.057 A 
ATOM     46  C   UNL     1       4.116   6.086  18.140  0.00  0.00    -0.024 A 
ATOM     47  H   UNL     1       2.117   6.195  17.309  0.00  0.00    +0.055 HD
ATOM     48  H   UNL     1       1.443   4.737  19.554  0.00  0.00    +0.029 HD
ATOM     49  H   UNL     1       2.222   4.008  18.147  0.00  0.00    +0.029 HD
ATOM     50  H   UNL     1       3.548   4.809  20.766  0.00  0.00    +0.031 HD
ATOM     51  H   UNL     1       3.757   3.320  19.788  0.00  0.00    +0.031 HD
ATOM     52  H   UNL     1       6.471   4.161  19.689  0.00  0.00    +0.062 HD
ATOM     53  H   UNL     1       7.938   5.583  18.269  0.00  0.00    +0.062 HD
ATOM     54  H   UNL     1       6.960   7.315  16.793  0.00  0.00    +0.062 HD
ATOM     55  H   UNL     1       4.495   7.659  16.715  0.00  0.00    +0.062 HD
ENDBRANCH  35  38
ENDBRANCH  29  32
ENDBRANCH   4  29
TORSDOF 6
ENDMDL
MODEL 9
REMARK VINA RESULT:    -8.684      4.457      8.689
REMARK INTER + INTRA:         -11.099
REMARK INTER:                 -10.668
REMARK INTRA:                  -0.431
REMARK UNBOUND:                 0.377
REMARK  Name = 
REMARK  6 active torsions:
REMARK  status: ('A' for Active; 'I' for Inactive)
REMARK    1  A    between atoms: C_1  and  C_2
REMARK    2  A    between atoms: C_8  and  C_9
REMARK    3  A    between atoms: C_12  and  C_13
REMARK    4  A    between atoms: C_13  and  N_14
REMARK    5  A    between atoms: N_17  and  C_18
REMARK    6  A    between atoms: C_27  and  C_28
REMARK                            x       y       z     vdW  Elec       q    Type
REMARK                         _______ _______ _______ _____ _____    ______ ____
ROOT
ATOM      1  C   UNL     1       2.369   6.392  19.445  0.00  0.00    -0.017 A 
ATOM      2  C   UNL     1       2.463   6.913  18.148  0.00  0.00    -0.054 A 
ATOM      3  C   UNL     1       1.979   8.192  17.848  0.00  0.00    -0.056 A 
ATOM      4  C   UNL     1       1.391   8.997  18.839  0.00  0.00    -0.018 A 
ATOM      5  C   UNL     1       1.243   8.448  20.126  0.00  0.00    +0.042 A 
ATOM      6  C   UNL     1       1.747   7.173  20.429  0.00  0.00    -0.042 A 
ATOM      7  H   UNL     1       2.928   6.325  17.358  0.00  0.00    +0.062 HD
ATOM      8  H   UNL     1       2.076   8.559  16.828  0.00  0.00    +0.062 HD
ATOM      9  H   UNL     1       1.641   6.783  21.440  0.00  0.00    +0.063 HD
ENDROOT
BRANCH   1  16
ATOM     10  C   UNL     1       4.135   4.589  19.274  0.00  0.00    -0.043 A 
ATOM     11  C   UNL     1       4.584   3.303  19.629  0.00  0.00    -0.056 A 
ATOM     12  C   UNL     1       3.806   2.474  20.434  0.00  0.00    -0.026 A 
ATOM     13  C   UNL     1       2.580   2.928  20.893  0.00  0.00    +0.124 A 
ATOM     14  F   UNL     1       1.829   2.133  21.667  0.00  0.00    -0.205 F 
ATOM     15  C   UNL     1       2.118   4.198  20.567  0.00  0.00    -0.018 A 
ATOM     16  C   UNL     1       2.888   5.053  19.758  0.00  0.00    -0.012 A 
ATOM     17  H   UNL     1       5.547   2.940  19.273  0.00  0.00    +0.062 HD
ATOM     18  H   UNL     1       4.149   1.481  20.705  0.00  0.00    +0.065 HD
ATOM     19  H   UNL     1       1.156   4.518  20.957  0.00  0.00    +0.065 HD
BRANCH  10  20
ATOM     20  C   UNL     1       5.017   5.447  18.404  0.00  0.00    -0.039 C 
ATOM     21  H   UNL     1       5.606   6.149  19.005  0.00  0.00    +0.028 HD
ATOM     22  H   UNL     1       4.408   6.030  17.706  0.00  0.00    +0.028 HD
ATOM     23  H   UNL     1       5.731   4.833  17.844  0.00  0.00    +0.028 HD
ENDBRANCH  10  20
ENDBRANCH   1  16
BRANCH   5  24
ATOM     24  C   UNL     1       0.563   9.160  21.231  0.00  0.00    +0.242 C 
ATOM     25  N   UNL     1       1.333   9.467  22.315  0.00  0.00    -0.325 N 
ATOM     26  O   UNL     1      -0.609   9.500  21.145  0.00  0.00    -0.270 OA
ATOM     27  H   UNL     1       0.914  10.065  23.016  0.00  0.00    +0.145 HD
ATOM     28  H   UNL     1       2.343   9.406  22.294  0.00  0.00    +0.145 HD
ENDBRANCH   5  24
BRANCH   4  29
ATOM     29  C   UNL     1       0.916  10.390  18.500  0.00  0.00    +0.039 C 
ATOM     30  H   UNL     1       0.477  10.889  19.370  0.00  0.00    +0.051 HD
ATOM     31  H   UNL     1       0.157  10.334  17.712  0.00  0.00    +0.051 HD
BRANCH  29  32
ATOM     32  N   UNL     1       1.998  11.251  18.067  0.00  0.00    -0.295 N 
ATOM     33  C   UNL     1       2.049  12.540  18.532  0.00  0.00    +0.300 C 
ATOM     34  O   UNL     1       1.180  13.061  19.216  0.00  0.00    -0.253 OA
ATOM     35  N   UNL     1       3.195  13.166  18.127  0.00  0.00    -0.293 N 
ATOM     36  H   UNL     1       2.904  10.811  17.996  0.00  0.00    +0.151 HD
ATOM     37  H   UNL     1       3.626  12.810  17.287  0.00  0.00    +0.151 HD
BRANCH  35  38
ATOM     38  C   UNL     1       3.422  14.560  18.439  0.00  0.00    +0.050 C 
ATOM     39  C   UNL     1       4.343  15.263  17.418  0.00  0.00    -0.026 C 
ATOM     40  C   UNL     1       5.784  15.075  17.916  0.00  0.00    -0.025 C 
ATOM     41  C   UNL     1       5.576  14.982  19.395  0.00  0.00    -0.042 A 
ATOM     42  C   UNL     1       6.522  15.105  20.398  0.00  0.00    -0.058 A 
ATOM     43  C   UNL     1       6.107  14.943  21.721  0.00  0.00    -0.061 A 
ATOM     44  C   UNL     1       4.767  14.652  22.023  0.00  0.00    -0.061 A 
ATOM     45  C   UNL     1       3.822  14.517  21.003  0.00  0.00    -0.057 A 
ATOM     46  C   UNL     1       4.239  14.689  19.693  0.00  0.00    -0.024 A 
ATOM     47  H   UNL     1       2.463  15.084  18.514  0.00  0.00    +0.055 HD
ATOM     48  H   UNL     1       4.216  14.909  16.389  0.00  0.00    +0.029 HD
ATOM     49  H   UNL     1       4.113  16.339  17.419  0.00  0.00    +0.029 HD
ATOM     50  H   UNL     1       6.215  14.141  17.537  0.00  0.00    +0.031 HD
ATOM     51  H   UNL     1       6.416  15.922  17.634  0.00  0.00    +0.031 HD
ATOM     52  H   UNL     1       7.559  15.323  20.167  0.00  0.00    +0.062 HD
ATOM     53  H   UNL     1       6.829  15.041  22.529  0.00  0.00    +0.062 HD
ATOM     54  H   UNL     1       4.465  14.526  23.060  0.00  0.00    +0.062 HD
ATOM     55  H   UNL     1       2.788  14.281  21.235  0.00  0.00    +0.062 HD
ENDBRANCH  35  38
ENDBRANCH  29  32
ENDBRANCH   4  29
TORSDOF 6
ENDMDL
MODEL 10
REMARK VINA RESULT:    -8.613      1.954      2.908
REMARK INTER + INTRA:         -11.006
REMARK INTER:                 -10.514
REMARK INTRA:                  -0.491
REMARK UNBOUND:                 0.377
REMARK  Name = 
REMARK  6 active torsions:
REMARK  status: ('A' for Active; 'I' for Inactive)
REMARK    1  A    between atoms: C_1  and  C_2
REMARK    2  A    between atoms: C_8  and  C_9
REMARK    3  A    between atoms: C_12  and  C_13
REMARK    4  A    between atoms: C_13  and  N_14
REMARK    5  A    between atoms: N_17  and  C_18
REMARK    6  A    between atoms: C_27  and  C_28
REMARK                            x       y       z     vdW  Elec       q    Type
REMARK                         _______ _______ _______ _____ _____    ______ ____
ROOT
ATOM      1  C   UNL     1      -0.121  10.888  21.732  0.00  0.00    -0.017 A 
ATOM      2  C   UNL     1      -0.099   9.768  22.572  0.00  0.00    -0.054 A 
ATOM      3  C   UNL     1       0.345   8.525  22.106  0.00  0.00    -0.056 A 
ATOM      4  C   UNL     1       0.792   8.363  20.782  0.00  0.00    -0.018 A 
ATOM      5  C   UNL     1       0.711   9.476  19.924  0.00  0.00    +0.042 A 
ATOM      6  C   UNL     1       0.284  10.725  20.400  0.00  0.00    -0.042 A 
ATOM      7  H   UNL     1      -0.421   9.859  23.609  0.00  0.00    +0.062 HD
ATOM      8  H   UNL     1       0.350   7.682  22.794  0.00  0.00    +0.062 HD
ATOM      9  H   UNL     1       0.256  11.575  19.719  0.00  0.00    +0.063 HD
ENDROOT
BRANCH   1  16
ATOM     10  C   UNL     1       0.083  13.404  21.910  0.00  0.00    -0.043 A 
ATOM     11  C   UNL     1      -0.420  14.622  22.401  0.00  0.00    -0.056 A 
ATOM     12  C   UNL     1      -1.550  14.650  23.216  0.00  0.00    -0.026 A 
ATOM     13  C   UNL     1      -2.186  13.461  23.537  0.00  0.00    +0.124 A 
ATOM     14  F   UNL     1      -3.272  13.484  24.320  0.00  0.00    -0.205 F 
ATOM     15  C   UNL     1      -1.716  12.245  23.055  0.00  0.00    -0.018 A 
ATOM     16  C   UNL     1      -0.579  12.193  22.229  0.00  0.00    -0.012 A 
ATOM     17  H   UNL     1       0.073  15.561  22.152  0.00  0.00    +0.062 HD
ATOM     18  H   UNL     1      -1.937  15.588  23.600  0.00  0.00    +0.065 HD
ATOM     19  H   UNL     1      -2.251  11.338  23.323  0.00  0.00    +0.065 HD
BRANCH  10  20
ATOM     20  C   UNL     1       1.306  13.430  21.030  0.00  0.00    -0.039 C 
ATOM     21  H   UNL     1       2.044  14.151  21.398  0.00  0.00    +0.028 HD
ATOM     22  H   UNL     1       1.033  13.719  20.010  0.00  0.00    +0.028 HD
ATOM     23  H   UNL     1       1.798  12.452  21.015  0.00  0.00    +0.028 HD
ENDBRANCH  10  20
ENDBRANCH   1  16
BRANCH   5  24
ATOM     24  C   UNL     1       1.067   9.411  18.489  0.00  0.00    +0.242 C 
ATOM     25  N   UNL     1       0.060   9.676  17.606  0.00  0.00    -0.325 N 
ATOM     26  O   UNL     1       2.212   9.187  18.123  0.00  0.00    -0.270 OA
ATOM     27  H   UNL     1       0.320   9.762  16.632  0.00  0.00    +0.145 HD
ATOM     28  H   UNL     1      -0.816  10.092  17.895  0.00  0.00    +0.145 HD
ENDBRANCH   5  24
BRANCH   4  29
ATOM     29  C   UNL     1       1.307   7.023  20.315  0.00  0.00    +0.039 C 
ATOM     30  H   UNL     1       0.791   6.686  19.410  0.00  0.00    +0.051 HD
ATOM     31  H   UNL     1       1.151   6.278  21.103  0.00  0.00    +0.051 HD
BRANCH  29  32
ATOM     32  N   UNL     1       2.713   7.066  19.964  0.00  0.00    -0.295 N 
ATOM     33  C   UNL     1       3.377   5.888  19.739  0.00  0.00    +0.300 C 
ATOM     34  O   UNL     1       2.894   4.779  19.914  0.00  0.00    -0.253 OA
ATOM     35  N   UNL     1       4.652   6.116  19.299  0.00  0.00    -0.293 N 
ATOM     36  H   UNL     1       2.984   7.808  19.337  0.00  0.00    +0.151 HD
ATOM     37  H   UNL     1       5.062   7.001  19.557  0.00  0.00    +0.151 HD
BRANCH  35  38
ATOM     38  C   UNL     1       5.561   5.015  19.072  0.00  0.00    +0.050 C 
ATOM     39  C   UNL     1       7.020   5.351  19.447  0.00  0.00    -0.026 C 
ATOM     40  C   UNL     1       7.675   5.951  18.193  0.00  0.00    -0.025 C 
ATOM     41  C   UNL     1       6.900   5.277  17.105  0.00  0.00    -0.042 A 
ATOM     42  C   UNL     1       7.221   5.184  15.761  0.00  0.00    -0.058 A 
ATOM     43  C   UNL     1       6.324   4.536  14.910  0.00  0.00    -0.061 A 
ATOM     44  C   UNL     1       5.123   4.002  15.405  0.00  0.00    -0.061 A 
ATOM     45  C   UNL     1       4.802   4.111  16.759  0.00  0.00    -0.057 A 
ATOM     46  C   UNL     1       5.702   4.747  17.600  0.00  0.00    -0.024 A 
ATOM     47  H   UNL     1       5.218   4.131  19.621  0.00  0.00    +0.055 HD
ATOM     48  H   UNL     1       7.113   6.015  20.314  0.00  0.00    +0.029 HD
ATOM     49  H   UNL     1       7.544   4.417  19.699  0.00  0.00    +0.029 HD
ATOM     50  H   UNL     1       7.523   7.035  18.147  0.00  0.00    +0.031 HD
ATOM     51  H   UNL     1       8.743   5.718  18.152  0.00  0.00    +0.031 HD
ATOM     52  H   UNL     1       8.145   5.602  15.375  0.00  0.00    +0.062 HD
ATOM     53  H   UNL     1       6.555   4.444  13.851  0.00  0.00    +0.062 HD
ATOM     54  H   UNL     1       4.436   3.504  14.725  0.00  0.00    +0.062 HD
ATOM     55  H   UNL     1       3.869   3.708  17.141  0.00  0.00    +0.062 HD
ENDBRANCH  35  38
ENDBRANCH  29  32
ENDBRANCH   4  29
TORSDOF 6
ENDMDL
MODEL 11
REMARK VINA RESULT:    -8.575      3.282      9.980
REMARK INTER + INTRA:         -10.955
REMARK INTER:                 -10.622
REMARK INTRA:                  -0.333
REMARK UNBOUND:                 0.377
REMARK  Name = 
REMARK  6 active torsions:
REMARK  status: ('A' for Active; 'I' for Inactive)
REMARK    1  A    between atoms: C_1  and  C_2
REMARK    2  A    between atoms: C_8  and  C_9
REMARK    3  A    between atoms: C_12  and  C_13
REMARK    4  A    between atoms: C_13  and  N_14
REMARK    5  A    between atoms: N_17  and  C_18
REMARK    6  A    between atoms: C_27  and  C_28
REMARK                            x       y       z     vdW  Elec       q    Type
REMARK                         _______ _______ _______ _____ _____    ______ ____
ROOT
ATOM      1  C   UNL     1       2.384   6.076  18.915  0.00  0.00    -0.017 A 
ATOM      2  C   UNL     1       2.556   6.855  17.763  0.00  0.00    -0.054 A 
ATOM      3  C   UNL     1       2.279   8.227  17.772  0.00  0.00    -0.056 A 
ATOM      4  C   UNL     1       1.827   8.868  18.939  0.00  0.00    -0.018 A 
ATOM      5  C   UNL     1       1.597   8.073  20.076  0.00  0.00    +0.042 A 
ATOM      6  C   UNL     1       1.895   6.701  20.069  0.00  0.00    -0.042 A 
ATOM      7  H   UNL     1       2.921   6.396  16.845  0.00  0.00    +0.062 HD
ATOM      8  H   UNL     1       2.430   8.795  16.856  0.00  0.00    +0.062 HD
ATOM      9  H   UNL     1       1.731   6.115  20.973  0.00  0.00    +0.063 HD
ENDROOT
BRANCH   1  16
ATOM     10  C   UNL     1       3.999   4.135  19.069  0.00  0.00    -0.043 A 
ATOM     11  C   UNL     1       4.218   2.745  19.069  0.00  0.00    -0.056 A 
ATOM     12  C   UNL     1       3.159   1.858  18.887  0.00  0.00    -0.026 A 
ATOM     13  C   UNL     1       1.878   2.355  18.711  0.00  0.00    +0.124 A 
ATOM     14  F   UNL     1       0.858   1.504  18.536  0.00  0.00    -0.205 F 
ATOM     15  C   UNL     1       1.634   3.724  18.718  0.00  0.00    -0.018 A 
ATOM     16  C   UNL     1       2.686   4.638  18.902  0.00  0.00    -0.012 A 
ATOM     17  H   UNL     1       5.222   2.347  19.208  0.00  0.00    +0.062 HD
ATOM     18  H   UNL     1       3.327   0.786  18.883  0.00  0.00    +0.065 HD
ATOM     19  H   UNL     1       0.612   4.070  18.587  0.00  0.00    +0.065 HD
BRANCH  10  20
ATOM     20  C   UNL     1       5.179   5.051  19.273  0.00  0.00    -0.039 C 
ATOM     21  H   UNL     1       4.900   6.099  19.113  0.00  0.00    +0.028 HD
ATOM     22  H   UNL     1       5.977   4.804  18.566  0.00  0.00    +0.028 HD
ATOM     23  H   UNL     1       5.559   4.977  20.297  0.00  0.00    +0.028 HD
ENDBRANCH  10  20
ENDBRANCH   1  16
BRANCH   5  24
ATOM     24  C   UNL     1       1.039   8.614  21.336  0.00  0.00    +0.242 C 
ATOM     25  N   UNL     1       1.946   9.045  22.260  0.00  0.00    -0.325 N 
ATOM     26  O   UNL     1      -0.167   8.717  21.508  0.00  0.00    -0.270 OA
ATOM     27  H   UNL     1       1.577   9.534  23.066  0.00  0.00    +0.145 HD
ATOM     28  H   UNL     1       2.922   9.186  22.034  0.00  0.00    +0.145 HD
ENDBRANCH   5  24
BRANCH   4  29
ATOM     29  C   UNL     1       1.576  10.358  18.936  0.00  0.00    +0.039 C 
ATOM     30  H   UNL     1       1.493  10.751  17.917  0.00  0.00    +0.051 HD
ATOM     31  H   UNL     1       2.405  10.868  19.439  0.00  0.00    +0.051 HD
BRANCH  29  32
ATOM     32  N   UNL     1       0.329  10.707  19.587  0.00  0.00    -0.295 N 
ATOM     33  C   UNL     1       0.111  12.012  19.947  0.00  0.00    +0.300 C 
ATOM     34  O   UNL     1       0.943  12.902  19.853  0.00  0.00    -0.253 OA
ATOM     35  N   UNL     1      -1.157  12.185  20.430  0.00  0.00    -0.293 N 
ATOM     36  H   UNL     1      -0.494  10.243  19.233  0.00  0.00    +0.151 HD
ATOM     37  H   UNL     1      -1.601  11.368  20.822  0.00  0.00    +0.151 HD
BRANCH  35  38
ATOM     38  C   UNL     1      -1.580  13.469  20.943  0.00  0.00    +0.050 C 
ATOM     39  C   UNL     1      -0.613  14.046  21.999  0.00  0.00    -0.026 C 
ATOM     40  C   UNL     1      -1.079  13.517  23.364  0.00  0.00    -0.025 C 
ATOM     41  C   UNL     1      -2.548  13.349  23.129  0.00  0.00    -0.042 A 
ATOM     42  C   UNL     1      -3.548  13.186  24.072  0.00  0.00    -0.058 A 
ATOM     43  C   UNL     1      -4.858  13.006  23.622  0.00  0.00    -0.061 A 
ATOM     44  C   UNL     1      -5.147  12.979  22.248  0.00  0.00    -0.061 A 
ATOM     45  C   UNL     1      -4.129  13.131  21.304  0.00  0.00    -0.057 A 
ATOM     46  C   UNL     1      -2.833  13.320  21.759  0.00  0.00    -0.024 A 
ATOM     47  H   UNL     1      -1.709  14.175  20.115  0.00  0.00    +0.055 HD
ATOM     48  H   UNL     1       0.441  13.813  21.809  0.00  0.00    +0.029 HD
ATOM     49  H   UNL     1      -0.705  15.142  22.001  0.00  0.00    +0.029 HD
ATOM     50  H   UNL     1      -0.621  12.549  23.592  0.00  0.00    +0.031 HD
ATOM     51  H   UNL     1      -0.863  14.233  24.162  0.00  0.00    +0.031 HD
ATOM     52  H   UNL     1      -3.327  13.200  25.134  0.00  0.00    +0.062 HD
ATOM     53  H   UNL     1      -5.664  12.882  24.341  0.00  0.00    +0.062 HD
ATOM     54  H   UNL     1      -6.173  12.833  21.917  0.00  0.00    +0.062 HD
ATOM     55  H   UNL     1      -4.350  13.099  20.242  0.00  0.00    +0.062 HD
ENDBRANCH  35  38
ENDBRANCH  29  32
ENDBRANCH   4  29
TORSDOF 6
ENDMDL
MODEL 12
REMARK VINA RESULT:    -8.558      3.430     10.203
REMARK INTER + INTRA:         -10.933
REMARK INTER:                 -10.089
REMARK INTRA:                  -0.845
REMARK UNBOUND:                 0.377
REMARK  Name = 
REMARK  6 active torsions:
REMARK  status: ('A' for Active; 'I' for Inactive)
REMARK    1  A    between atoms: C_1  and  C_2
REMARK    2  A    between atoms: C_8  and  C_9
REMARK    3  A    between atoms: C_12  and  C_13
REMARK    4  A    between atoms: C_13  and  N_14
REMARK    5  A    between atoms: N_17  and  C_18
REMARK    6  A    between atoms: C_27  and  C_28
REMARK                            x       y       z     vdW  Elec       q    Type
REMARK                         _______ _______ _______ _____ _____    ______ ____
ROOT
ATOM      1  C   UNL     1       3.189   6.647  18.582  0.00  0.00    -0.017 A 
ATOM      2  C   UNL     1       2.802   6.174  19.842  0.00  0.00    -0.054 A 
ATOM      3  C   UNL     1       1.859   6.863  20.613  0.00  0.00    -0.056 A 
ATOM      4  C   UNL     1       1.263   8.047  20.144  0.00  0.00    -0.018 A 
ATOM      5  C   UNL     1       1.699   8.553  18.905  0.00  0.00    +0.042 A 
ATOM      6  C   UNL     1       2.630   7.849  18.126  0.00  0.00    -0.042 A 
ATOM      7  H   UNL     1       3.228   5.250  20.231  0.00  0.00    +0.062 HD
ATOM      8  H   UNL     1       1.583   6.458  21.585  0.00  0.00    +0.062 HD
ATOM      9  H   UNL     1       2.930   8.251  17.159  0.00  0.00    +0.063 HD
ENDROOT
BRANCH   1  16
ATOM     10  C   UNL     1       3.895   4.648  17.202  0.00  0.00    -0.043 A 
ATOM     11  C   UNL     1       4.873   4.008  16.418  0.00  0.00    -0.056 A 
ATOM     12  C   UNL     1       6.119   4.598  16.213  0.00  0.00    -0.026 A 
ATOM     13  C   UNL     1       6.390   5.831  16.785  0.00  0.00    +0.124 A 
ATOM     14  F   UNL     1       7.587   6.400  16.590  0.00  0.00    -0.205 F 
ATOM     15  C   UNL     1       5.437   6.489  17.554  0.00  0.00    -0.018 A 
ATOM     16  C   UNL     1       4.172   5.914  17.772  0.00  0.00    -0.012 A 
ATOM     17  H   UNL     1       4.667   3.040  15.965  0.00  0.00    +0.062 HD
ATOM     18  H   UNL     1       6.876   4.104  15.613  0.00  0.00    +0.065 HD
ATOM     19  H   UNL     1       5.687   7.458  17.974  0.00  0.00    +0.065 HD
BRANCH  10  20
ATOM     20  C   UNL     1       2.563   3.968  17.389  0.00  0.00    -0.039 C 
ATOM     21  H   UNL     1       2.688   2.898  17.588  0.00  0.00    +0.028 HD
ATOM     22  H   UNL     1       1.954   4.074  16.486  0.00  0.00    +0.028 HD
ATOM     23  H   UNL     1       2.026   4.389  18.246  0.00  0.00    +0.028 HD
ENDBRANCH  10  20
ENDBRANCH   1  16
BRANCH   5  24
ATOM     24  C   UNL     1       1.215   9.834  18.344  0.00  0.00    +0.242 C 
ATOM     25  N   UNL     1      -0.024   9.811  17.771  0.00  0.00    -0.325 N 
ATOM     26  O   UNL     1       1.869  10.863  18.444  0.00  0.00    -0.270 OA
ATOM     27  H   UNL     1      -0.417  10.704  17.502  0.00  0.00    +0.145 HD
ATOM     28  H   UNL     1      -0.663   9.037  17.897  0.00  0.00    +0.145 HD
ENDBRANCH   5  24
BRANCH   4  29
ATOM     29  C   UNL     1       0.216   8.750  20.975  0.00  0.00    +0.039 C 
ATOM     30  H   UNL     1       0.062   8.249  21.936  0.00  0.00    +0.051 HD
ATOM     31  H   UNL     1      -0.735   8.759  20.431  0.00  0.00    +0.051 HD
BRANCH  29  32
ATOM     32  N   UNL     1       0.596  10.109  21.304  0.00  0.00    -0.295 N 
ATOM     33  C   UNL     1      -0.300  11.123  21.078  0.00  0.00    +0.300 C 
ATOM     34  O   UNL     1      -1.375  10.979  20.515  0.00  0.00    -0.253 OA
ATOM     35  N   UNL     1       0.169  12.313  21.560  0.00  0.00    -0.293 N 
ATOM     36  H   UNL     1       1.125  10.221  22.156  0.00  0.00    +0.151 HD
ATOM     37  H   UNL     1       1.171  12.400  21.638  0.00  0.00    +0.151 HD
BRANCH  35  38
ATOM     38  C   UNL     1      -0.579  13.535  21.361  0.00  0.00    +0.050 C 
ATOM     39  C   UNL     1       0.311  14.795  21.369  0.00  0.00    -0.026 C 
ATOM     40  C   UNL     1       0.400  15.267  22.829  0.00  0.00    -0.025 C 
ATOM     41  C   UNL     1      -0.908  14.787  23.374  0.00  0.00    -0.042 A 
ATOM     42  C   UNL     1      -1.532  15.168  24.550  0.00  0.00    -0.058 A 
ATOM     43  C   UNL     1      -2.742  14.556  24.884  0.00  0.00    -0.061 A 
ATOM     44  C   UNL     1      -3.302  13.572  24.053  0.00  0.00    -0.061 A 
ATOM     45  C   UNL     1      -2.659  13.186  22.876  0.00  0.00    -0.057 A 
ATOM     46  C   UNL     1      -1.463  13.805  22.545  0.00  0.00    -0.024 A 
ATOM     47  H   UNL     1      -1.148  13.473  20.426  0.00  0.00    +0.055 HD
ATOM     48  H   UNL     1       1.302  14.641  20.928  0.00  0.00    +0.029 HD
ATOM     49  H   UNL     1      -0.184  15.581  20.780  0.00  0.00    +0.029 HD
ATOM     50  H   UNL     1       1.229  14.778  23.353  0.00  0.00    +0.031 HD
ATOM     51  H   UNL     1       0.506  16.354  22.890  0.00  0.00    +0.031 HD
ATOM     52  H   UNL     1      -1.098  15.922  25.197  0.00  0.00    +0.062 HD
ATOM     53  H   UNL     1      -3.256  14.841  25.799  0.00  0.00    +0.062 HD
ATOM     54  H   UNL     1      -4.244  13.105  24.333  0.00  0.00    +0.062 HD
ATOM     55  H   UNL     1      -3.086  12.418  22.238  0.00  0.00    +0.062 HD
ENDBRANCH  35  38
ENDBRANCH  29  32
ENDBRANCH   4  29
TORSDOF 6
ENDMDL
MODEL 13
REMARK VINA RESULT:    -8.525      7.349      9.487
REMARK INTER + INTRA:         -10.889
REMARK INTER:                 -10.016
REMARK INTRA:                  -0.873
REMARK UNBOUND:                 0.377
REMARK  Name = 
REMARK  6 active torsions:
REMARK  status: ('A' for Active; 'I' for Inactive)
REMARK    1  A    between atoms: C_1  and  C_2
REMARK    2  A    between atoms: C_8  and  C_9
REMARK    3  A    between atoms: C_12  and  C_13
REMARK    4  A    between atoms: C_13  and  N_14
REMARK    5  A    between atoms: N_17  and  C_18
REMARK    6  A    between atoms: C_27  and  C_28
REMARK                            x       y       z     vdW  Elec       q    Type
REMARK                         _______ _______ _______ _____ _____    ______ ____
ROOT
ATOM      1  C   UNL     1       3.862   5.118  18.755  0.00  0.00    -0.017 A 
ATOM      2  C   UNL     1       3.601   6.229  17.943  0.00  0.00    -0.054 A 
ATOM      3  C   UNL     1       4.645   6.967  17.375  0.00  0.00    -0.056 A 
ATOM      4  C   UNL     1       5.988   6.613  17.593  0.00  0.00    -0.018 A 
ATOM      5  C   UNL     1       6.248   5.534  18.458  0.00  0.00    +0.042 A 
ATOM      6  C   UNL     1       5.198   4.784  19.011  0.00  0.00    -0.042 A 
ATOM      7  H   UNL     1       2.573   6.523  17.737  0.00  0.00    +0.062 HD
ATOM      8  H   UNL     1       4.398   7.821  16.746  0.00  0.00    +0.062 HD
ATOM      9  H   UNL     1       5.430   3.937  19.657  0.00  0.00    +0.063 HD
ENDROOT
BRANCH   1  16
ATOM     10  C   UNL     1       1.707   3.805  18.561  0.00  0.00    -0.043 A 
ATOM     11  C   UNL     1       0.695   3.050  19.181  0.00  0.00    -0.056 A 
ATOM     12  C   UNL     1       0.708   2.838  20.558  0.00  0.00    -0.026 A 
ATOM     13  C   UNL     1       1.734   3.374  21.319  0.00  0.00    +0.124 A 
ATOM     14  F   UNL     1       1.748   3.172  22.644  0.00  0.00    -0.205 F 
ATOM     15  C   UNL     1       2.752   4.114  20.729  0.00  0.00    -0.018 A 
ATOM     16  C   UNL     1       2.761   4.339  19.341  0.00  0.00    -0.012 A 
ATOM     17  H   UNL     1      -0.114   2.625  18.589  0.00  0.00    +0.062 HD
ATOM     18  H   UNL     1      -0.075   2.259  21.039  0.00  0.00    +0.065 HD
ATOM     19  H   UNL     1       3.543   4.507  21.362  0.00  0.00    +0.065 HD
BRANCH  10  20
ATOM     20  C   UNL     1       1.648   4.002  17.068  0.00  0.00    -0.039 C 
ATOM     21  H   UNL     1       2.485   4.615  16.714  0.00  0.00    +0.028 HD
ATOM     22  H   UNL     1       0.719   4.509  16.789  0.00  0.00    +0.028 HD
ATOM     23  H   UNL     1       1.715   3.042  16.544  0.00  0.00    +0.028 HD
ENDBRANCH  10  20
ENDBRANCH   1  16
BRANCH   5  24
ATOM     24  C   UNL     1       7.617   5.120  18.838  0.00  0.00    +0.242 C 
ATOM     25  N   UNL     1       8.046   5.516  20.072  0.00  0.00    -0.325 N 
ATOM     26  O   UNL     1       8.298   4.416  18.105  0.00  0.00    -0.270 OA
ATOM     27  H   UNL     1       8.926   5.131  20.393  0.00  0.00    +0.145 HD
ATOM     28  H   UNL     1       7.414   5.885  20.770  0.00  0.00    +0.145 HD
ENDBRANCH   5  24
BRANCH   4  29
ATOM     29  C   UNL     1       7.096   7.400  16.934  0.00  0.00    +0.039 C 
ATOM     30  H   UNL     1       6.921   7.521  15.860  0.00  0.00    +0.051 HD
ATOM     31  H   UNL     1       8.048   6.875  17.074  0.00  0.00    +0.051 HD
BRANCH  29  32
ATOM     32  N   UNL     1       7.206   8.745  17.462  0.00  0.00    -0.295 N 
ATOM     33  C   UNL     1       8.338   9.099  18.149  0.00  0.00    +0.300 C 
ATOM     34  O   UNL     1       9.235   8.323  18.446  0.00  0.00    -0.253 OA
ATOM     35  N   UNL     1       8.329  10.430  18.464  0.00  0.00    -0.293 N 
ATOM     36  H   UNL     1       6.849   9.478  16.867  0.00  0.00    +0.151 HD
ATOM     37  H   UNL     1       7.423  10.868  18.528  0.00  0.00    +0.151 HD
BRANCH  35  38
ATOM     38  C   UNL     1       9.392  11.006  19.258  0.00  0.00    +0.050 C 
ATOM     39  C   UNL     1       9.159  10.854  20.777  0.00  0.00    -0.026 C 
ATOM     40  C   UNL     1       8.360  12.085  21.229  0.00  0.00    -0.025 C 
ATOM     41  C   UNL     1       8.812  13.112  20.238  0.00  0.00    -0.042 A 
ATOM     42  C   UNL     1       8.671  14.487  20.310  0.00  0.00    -0.058 A 
ATOM     43  C   UNL     1       9.138  15.256  19.242  0.00  0.00    -0.061 A 
ATOM     44  C   UNL     1       9.726  14.647  18.122  0.00  0.00    -0.061 A 
ATOM     45  C   UNL     1       9.853  13.258  18.053  0.00  0.00    -0.057 A 
ATOM     46  C   UNL     1       9.396  12.501  19.121  0.00  0.00    -0.024 A 
ATOM     47  H   UNL     1      10.352  10.562  18.972  0.00  0.00    +0.055 HD
ATOM     48  H   UNL     1       8.663   9.918  21.058  0.00  0.00    +0.029 HD
ATOM     49  H   UNL     1      10.134  10.867  21.286  0.00  0.00    +0.029 HD
ATOM     50  H   UNL     1       7.282  11.916  21.130  0.00  0.00    +0.031 HD
ATOM     51  H   UNL     1       8.604  12.362  22.258  0.00  0.00    +0.031 HD
ATOM     52  H   UNL     1       8.211  14.959  21.171  0.00  0.00    +0.062 HD
ATOM     53  H   UNL     1       9.044  16.339  19.276  0.00  0.00    +0.062 HD
ATOM     54  H   UNL     1      10.080  15.264  17.299  0.00  0.00    +0.062 HD
ATOM     55  H   UNL     1      10.297  12.786  17.182  0.00  0.00    +0.062 HD
ENDBRANCH  35  38
ENDBRANCH  29  32
ENDBRANCH   4  29
TORSDOF 6
ENDMDL
MODEL 14
REMARK VINA RESULT:    -8.506      1.544      2.181
REMARK INTER + INTRA:         -10.864
REMARK INTER:                 -10.148
REMARK INTRA:                  -0.716
REMARK UNBOUND:                 0.377
REMARK  Name = 
REMARK  6 active torsions:
REMARK  status: ('A' for Active; 'I' for Inactive)
REMARK    1  A    between atoms: C_1  and  C_2
REMARK    2  A    between atoms: C_8  and  C_9
REMARK    3  A    between atoms: C_12  and  C_13
REMARK    4  A    between atoms: C_13  and  N_14
REMARK    5  A    between atoms: N_17  and  C_18
REMARK    6  A    between atoms: C_27  and  C_28
REMARK                            x       y       z     vdW  Elec       q    Type
REMARK                         _______ _______ _______ _____ _____    ______ ____
ROOT
ATOM      1  C   UNL     1      -1.193  12.141  22.119  0.00  0.00    -0.017 A 
ATOM      2  C   UNL     1      -0.594  10.901  22.376  0.00  0.00    -0.054 A 
ATOM      3  C   UNL     1       0.222  10.283  21.422  0.00  0.00    -0.056 A 
ATOM      4  C   UNL     1       0.475  10.889  20.180  0.00  0.00    -0.018 A 
ATOM      5  C   UNL     1      -0.176  12.105  19.900  0.00  0.00    +0.042 A 
ATOM      6  C   UNL     1      -0.979  12.732  20.866  0.00  0.00    -0.042 A 
ATOM      7  H   UNL     1      -0.752  10.409  23.335  0.00  0.00    +0.062 HD
ATOM      8  H   UNL     1       0.671   9.321  21.666  0.00  0.00    +0.062 HD
ATOM      9  H   UNL     1      -1.450  13.686  20.632  0.00  0.00    +0.063 HD
ENDROOT
BRANCH   1  16
ATOM     10  C   UNL     1      -1.765  14.084  23.635  0.00  0.00    -0.043 A 
ATOM     11  C   UNL     1      -2.630  14.658  24.585  0.00  0.00    -0.056 A 
ATOM     12  C   UNL     1      -3.745  13.961  25.046  0.00  0.00    -0.026 A 
ATOM     13  C   UNL     1      -4.003  12.691  24.557  0.00  0.00    +0.124 A 
ATOM     14  F   UNL     1      -5.074  12.018  24.999  0.00  0.00    -0.205 F 
ATOM     15  C   UNL     1      -3.170  12.105  23.610  0.00  0.00    -0.018 A 
ATOM     16  C   UNL     1      -2.041  12.791  23.128  0.00  0.00    -0.012 A 
ATOM     17  H   UNL     1      -2.435  15.657  24.973  0.00  0.00    +0.062 HD
ATOM     18  H   UNL     1      -4.411  14.401  25.782  0.00  0.00    +0.065 HD
ATOM     19  H   UNL     1      -3.416  11.112  23.245  0.00  0.00    +0.065 HD
BRANCH  10  20
ATOM     20  C   UNL     1      -0.576  14.882  23.167  0.00  0.00    -0.039 C 
ATOM     21  H   UNL     1       0.214  14.228  22.780  0.00  0.00    +0.028 HD
ATOM     22  H   UNL     1      -0.157  15.460  23.997  0.00  0.00    +0.028 HD
ATOM     23  H   UNL     1      -0.855  15.558  22.352  0.00  0.00    +0.028 HD
ENDBRANCH  10  20
ENDBRANCH   1  16
BRANCH   5  24
ATOM     24  C   UNL     1      -0.063  12.797  18.597  0.00  0.00    +0.242 C 
ATOM     25  N   UNL     1      -1.106  12.629  17.733  0.00  0.00    -0.325 N 
ATOM     26  O   UNL     1       0.888  13.521  18.338  0.00  0.00    -0.270 OA
ATOM     27  H   UNL     1      -1.100  13.199  16.896  0.00  0.00    +0.145 HD
ATOM     28  H   UNL     1      -1.992  12.237  18.025  0.00  0.00    +0.145 HD
ENDBRANCH   5  24
BRANCH   4  29
ATOM     29  C   UNL     1       1.394  10.223  19.183  0.00  0.00    +0.039 C 
ATOM     30  H   UNL     1       2.400  10.653  19.213  0.00  0.00    +0.051 HD
ATOM     31  H   UNL     1       0.991  10.352  18.173  0.00  0.00    +0.051 HD
BRANCH  29  32
ATOM     32  N   UNL     1       1.570   8.810  19.456  0.00  0.00    -0.295 N 
ATOM     33  C   UNL     1       1.979   7.984  18.441  0.00  0.00    +0.300 C 
ATOM     34  O   UNL     1       2.112   8.334  17.278  0.00  0.00    -0.253 OA
ATOM     35  N   UNL     1       2.214   6.718  18.901  0.00  0.00    -0.293 N 
ATOM     36  H   UNL     1       1.980   8.586  20.350  0.00  0.00    +0.151 HD
ATOM     37  H   UNL     1       1.720   6.447  19.737  0.00  0.00    +0.151 HD
BRANCH  35  38
ATOM     38  C   UNL     1       2.581   5.659  17.986  0.00  0.00    +0.050 C 
ATOM     39  C   UNL     1       1.369   4.840  17.495  0.00  0.00    -0.026 C 
ATOM     40  C   UNL     1       1.170   3.695  18.500  0.00  0.00    -0.025 C 
ATOM     41  C   UNL     1       2.568   3.486  18.991  0.00  0.00    -0.042 A 
ATOM     42  C   UNL     1       3.074   2.402  19.686  0.00  0.00    -0.058 A 
ATOM     43  C   UNL     1       4.413   2.437  20.082  0.00  0.00    -0.061 A 
ATOM     44  C   UNL     1       5.218   3.550  19.792  0.00  0.00    -0.061 A 
ATOM     45  C   UNL     1       4.695   4.645  19.101  0.00  0.00    -0.057 A 
ATOM     46  C   UNL     1       3.368   4.599  18.702  0.00  0.00    -0.024 A 
ATOM     47  H   UNL     1       3.131   6.078  17.135  0.00  0.00    +0.055 HD
ATOM     48  H   UNL     1       0.457   5.432  17.364  0.00  0.00    +0.029 HD
ATOM     49  H   UNL     1       1.612   4.403  16.515  0.00  0.00    +0.029 HD
ATOM     50  H   UNL     1       0.522   4.003  19.328  0.00  0.00    +0.031 HD
ATOM     51  H   UNL     1       0.760   2.805  18.014  0.00  0.00    +0.031 HD
ATOM     52  H   UNL     1       2.453   1.544  19.918  0.00  0.00    +0.062 HD
ATOM     53  H   UNL     1       4.837   1.595  20.625  0.00  0.00    +0.062 HD
ATOM     54  H   UNL     1       6.257   3.559  20.112  0.00  0.00    +0.062 HD
ATOM     55  H   UNL     1       5.314   5.510  18.885  0.00  0.00    +0.062 HD
ENDBRANCH  35  38
ENDBRANCH  29  32
ENDBRANCH   4  29
TORSDOF 6
ENDMDL
MODEL 15
REMARK VINA RESULT:    -8.478      3.959     10.532
REMARK INTER + INTRA:         -10.827
REMARK INTER:                 -10.742
REMARK INTRA:                  -0.085
REMARK UNBOUND:                 0.377
REMARK  Name = 
REMARK  6 active torsions:
REMARK  status: ('A' for Active; 'I' for Inactive)
REMARK    1  A    between atoms: C_1  and  C_2
REMARK    2  A    between atoms: C_8  and  C_9
REMARK    3  A    between atoms: C_12  and  C_13
REMARK    4  A    between atoms: C_13  and  N_14
REMARK    5  A    between atoms: N_17  and  C_18
REMARK    6  A    between atoms: C_27  and  C_28
REMARK                            x       y       z     vdW  Elec       q    Type
REMARK                         _______ _______ _______ _____ _____    ______ ____
ROOT
ATOM      1  C   UNL     1       3.980   5.646  18.217  0.00  0.00    -0.017 A 
ATOM      2  C   UNL     1       3.582   6.987  18.286  0.00  0.00    -0.054 A 
ATOM      3  C   UNL     1       2.635   7.410  19.225  0.00  0.00    -0.056 A 
ATOM      4  C   UNL     1       2.058   6.506  20.134  0.00  0.00    -0.018 A 
ATOM      5  C   UNL     1       2.414   5.149  20.021  0.00  0.00    +0.042 A 
ATOM      6  C   UNL     1       3.379   4.731  19.092  0.00  0.00    -0.042 A 
ATOM      7  H   UNL     1       4.021   7.720  17.610  0.00  0.00    +0.062 HD
ATOM      8  H   UNL     1       2.358   8.463  19.248  0.00  0.00    +0.062 HD
ATOM      9  H   UNL     1       3.654   3.678  19.044  0.00  0.00    +0.063 HD
ENDROOT
BRANCH   1  16
ATOM     10  C   UNL     1       6.364   5.137  17.540  0.00  0.00    -0.043 A 
ATOM     11  C   UNL     1       7.271   4.689  16.562  0.00  0.00    -0.056 A 
ATOM     12  C   UNL     1       6.827   4.333  15.290  0.00  0.00    -0.026 A 
ATOM     13  C   UNL     1       5.476   4.418  14.993  0.00  0.00    +0.124 A 
ATOM     14  F   UNL     1       5.047   4.077  13.770  0.00  0.00    -0.205 F 
ATOM     15  C   UNL     1       4.559   4.846  15.945  0.00  0.00    -0.018 A 
ATOM     16  C   UNL     1       4.983   5.208  17.236  0.00  0.00    -0.012 A 
ATOM     17  H   UNL     1       8.334   4.618  16.788  0.00  0.00    +0.062 HD
ATOM     18  H   UNL     1       7.525   3.991  14.533  0.00  0.00    +0.065 HD
ATOM     19  H   UNL     1       3.508   4.888  15.673  0.00  0.00    +0.065 HD
BRANCH  10  20
ATOM     20  C   UNL     1       6.896   5.506  18.901  0.00  0.00    -0.039 C 
ATOM     21  H   UNL     1       6.731   4.700  19.624  0.00  0.00    +0.028 HD
ATOM     22  H   UNL     1       6.390   6.402  19.275  0.00  0.00    +0.028 HD
ATOM     23  H   UNL     1       7.976   5.683  18.865  0.00  0.00    +0.028 HD
ENDBRANCH  10  20
ENDBRANCH   1  16
BRANCH   5  24
ATOM     24  C   UNL     1       1.811   4.088  20.859  0.00  0.00    +0.242 C 
ATOM     25  N   UNL     1       0.659   3.528  20.385  0.00  0.00    -0.325 N 
ATOM     26  O   UNL     1       2.350   3.701  21.886  0.00  0.00    -0.270 OA
ATOM     27  H   UNL     1       0.311   2.717  20.881  0.00  0.00    +0.145 HD
ATOM     28  H   UNL     1       0.342   3.669  19.435  0.00  0.00    +0.145 HD
ENDBRANCH   5  24
BRANCH   4  29
ATOM     29  C   UNL     1       1.069   6.994  21.166  0.00  0.00    +0.039 C 
ATOM     30  H   UNL     1       1.573   7.483  22.006  0.00  0.00    +0.051 HD
ATOM     31  H   UNL     1       0.495   6.144  21.551  0.00  0.00    +0.051 HD
BRANCH  29  32
ATOM     32  N   UNL     1       0.160   7.987  20.630  0.00  0.00    -0.295 N 
ATOM     33  C   UNL     1       0.339   9.304  20.968  0.00  0.00    +0.300 C 
ATOM     34  O   UNL     1       1.159   9.701  21.783  0.00  0.00    -0.253 OA
ATOM     35  N   UNL     1      -0.522  10.112  20.279  0.00  0.00    -0.293 N 
ATOM     36  H   UNL     1      -0.118   7.851  19.670  0.00  0.00    +0.151 HD
ATOM     37  H   UNL     1      -1.376   9.683  19.956  0.00  0.00    +0.151 HD
BRANCH  35  38
ATOM     38  C   UNL     1      -0.562  11.535  20.537  0.00  0.00    +0.050 C 
ATOM     39  C   UNL     1      -0.097  11.903  21.962  0.00  0.00    -0.026 C 
ATOM     40  C   UNL     1      -1.342  11.860  22.860  0.00  0.00    -0.025 C 
ATOM     41  C   UNL     1      -2.423  12.206  21.884  0.00  0.00    -0.042 A 
ATOM     42  C   UNL     1      -3.718  12.612  22.155  0.00  0.00    -0.058 A 
ATOM     43  C   UNL     1      -4.576  12.848  21.079  0.00  0.00    -0.061 A 
ATOM     44  C   UNL     1      -4.137  12.665  19.758  0.00  0.00    -0.061 A 
ATOM     45  C   UNL     1      -2.832  12.243  19.495  0.00  0.00    -0.057 A 
ATOM     46  C   UNL     1      -1.983  12.021  20.568  0.00  0.00    -0.024 A 
ATOM     47  H   UNL     1       0.040  12.064  19.789  0.00  0.00    +0.055 HD
ATOM     48  H   UNL     1       0.706  11.263  22.345  0.00  0.00    +0.029 HD
ATOM     49  H   UNL     1       0.288  12.933  21.952  0.00  0.00    +0.029 HD
ATOM     50  H   UNL     1      -1.507  10.854  23.262  0.00  0.00    +0.031 HD
ATOM     51  H   UNL     1      -1.269  12.583  23.677  0.00  0.00    +0.031 HD
ATOM     52  H   UNL     1      -4.062  12.747  23.175  0.00  0.00    +0.062 HD
ATOM     53  H   UNL     1      -5.597  13.173  21.264  0.00  0.00    +0.062 HD
ATOM     54  H   UNL     1      -4.821  12.850  18.934  0.00  0.00    +0.062 HD
ATOM     55  H   UNL     1      -2.494  12.092  18.474  0.00  0.00    +0.062 HD
ENDBRANCH  35  38
ENDBRANCH  29  32
ENDBRANCH   4  29
TORSDOF 6
ENDMDL
MODEL 16
REMARK VINA RESULT:    -8.451      2.427      3.644
REMARK INTER + INTRA:         -10.792
REMARK INTER:                 -10.187
REMARK INTRA:                  -0.605
REMARK UNBOUND:                 0.377
REMARK  Name = 
REMARK  6 active torsions:
REMARK  status: ('A' for Active; 'I' for Inactive)
REMARK    1  A    between atoms: C_1  and  C_2
REMARK    2  A    between atoms: C_8  and  C_9
REMARK    3  A    between atoms: C_12  and  C_13
REMARK    4  A    between atoms: C_13  and  N_14
REMARK    5  A    between atoms: N_17  and  C_18
REMARK    6  A    between atoms: C_27  and  C_28
REMARK                            x       y       z     vdW  Elec       q    Type
REMARK                         _______ _______ _______ _____ _____    ______ ____
ROOT
ATOM      1  C   UNL     1      -1.233  11.718  20.038  0.00  0.00    -0.017 A 
ATOM      2  C   UNL     1      -1.350  10.410  19.554  0.00  0.00    -0.054 A 
ATOM      3  C   UNL     1      -0.320   9.822  18.810  0.00  0.00    -0.056 A 
ATOM      4  C   UNL     1       0.867  10.522  18.533  0.00  0.00    -0.018 A 
ATOM      5  C   UNL     1       0.956  11.857  18.969  0.00  0.00    +0.042 A 
ATOM      6  C   UNL     1      -0.070  12.437  19.731  0.00  0.00    -0.042 A 
ATOM      7  H   UNL     1      -2.247   9.829  19.763  0.00  0.00    +0.062 HD
ATOM      8  H   UNL     1      -0.450   8.801  18.456  0.00  0.00    +0.062 HD
ATOM      9  H   UNL     1       0.038  13.464  20.077  0.00  0.00    +0.063 HD
ENDROOT
BRANCH   1  16
ATOM     10  C   UNL     1      -3.612  12.536  20.306  0.00  0.00    -0.043 A 
ATOM     11  C   UNL     1      -4.608  13.104  21.122  0.00  0.00    -0.056 A 
ATOM     12  C   UNL     1      -4.323  13.483  22.432  0.00  0.00    -0.026 A 
ATOM     13  C   UNL     1      -3.047  13.289  22.934  0.00  0.00    +0.124 A 
ATOM     14  F   UNL     1      -2.770  13.652  24.194  0.00  0.00    -0.205 F 
ATOM     15  C   UNL     1      -2.048  12.719  22.152  0.00  0.00    -0.018 A 
ATOM     16  C   UNL     1      -2.313  12.327  20.828  0.00  0.00    -0.012 A 
ATOM     17  H   UNL     1      -5.614  13.259  20.734  0.00  0.00    +0.062 HD
ATOM     18  H   UNL     1      -5.089  13.925  23.062  0.00  0.00    +0.065 HD
ATOM     19  H   UNL     1      -1.064  12.576  22.589  0.00  0.00    +0.065 HD
BRANCH  10  20
ATOM     20  C   UNL     1      -3.973  12.141  18.896  0.00  0.00    -0.039 C 
ATOM     21  H   UNL     1      -5.058  12.056  18.773  0.00  0.00    +0.028 HD
ATOM     22  H   UNL     1      -3.529  11.171  18.650  0.00  0.00    +0.028 HD
ATOM     23  H   UNL     1      -3.630  12.895  18.179  0.00  0.00    +0.028 HD
ENDBRANCH  10  20
ENDBRANCH   1  16
BRANCH   5  24
ATOM     24  C   UNL     1       2.115  12.727  18.664  0.00  0.00    +0.242 C 
ATOM     25  N   UNL     1       2.358  12.964  17.342  0.00  0.00    -0.325 N 
ATOM     26  O   UNL     1       2.776  13.245  19.553  0.00  0.00    -0.270 OA
ATOM     27  H   UNL     1       3.064  13.657  17.127  0.00  0.00    +0.145 HD
ATOM     28  H   UNL     1       1.685  12.742  16.620  0.00  0.00    +0.145 HD
ENDBRANCH   5  24
BRANCH   4  29
ATOM     29  C   UNL     1       1.982   9.851  17.765  0.00  0.00    +0.039 C 
ATOM     30  H   UNL     1       2.945   9.964  18.273  0.00  0.00    +0.051 HD
ATOM     31  H   UNL     1       2.059  10.300  16.769  0.00  0.00    +0.051 HD
BRANCH  29  32
ATOM     32  N   UNL     1       1.778   8.422  17.635  0.00  0.00    -0.295 N 
ATOM     33  C   UNL     1       2.772   7.570  18.041  0.00  0.00    +0.300 C 
ATOM     34  O   UNL     1       3.879   7.929  18.415  0.00  0.00    -0.253 OA
ATOM     35  N   UNL     1       2.366   6.266  17.966  0.00  0.00    -0.293 N 
ATOM     36  H   UNL     1       0.849   8.092  17.853  0.00  0.00    +0.151 HD
ATOM     37  H   UNL     1       1.630   6.065  17.306  0.00  0.00    +0.151 HD
BRANCH  35  38
ATOM     38  C   UNL     1       3.282   5.190  18.272  0.00  0.00    +0.050 C 
ATOM     39  C   UNL     1       3.408   4.162  17.128  0.00  0.00    -0.026 C 
ATOM     40  C   UNL     1       2.322   3.100  17.364  0.00  0.00    -0.025 C 
ATOM     41  C   UNL     1       2.186   3.143  18.854  0.00  0.00    -0.042 A 
ATOM     42  C   UNL     1       1.581   2.214  19.681  0.00  0.00    -0.058 A 
ATOM     43  C   UNL     1       1.535   2.479  21.051  0.00  0.00    -0.061 A 
ATOM     44  C   UNL     1       2.080   3.665  21.572  0.00  0.00    -0.061 A 
ATOM     45  C   UNL     1       2.677   4.602  20.727  0.00  0.00    -0.057 A 
ATOM     46  C   UNL     1       2.728   4.327  19.369  0.00  0.00    -0.024 A 
ATOM     47  H   UNL     1       4.266   5.602  18.527  0.00  0.00    +0.055 HD
ATOM     48  H   UNL     1       3.339   4.601  16.127  0.00  0.00    +0.029 HD
ATOM     49  H   UNL     1       4.391   3.674  17.198  0.00  0.00    +0.029 HD
ATOM     50  H   UNL     1       1.377   3.388  16.891  0.00  0.00    +0.031 HD
ATOM     51  H   UNL     1       2.640   2.119  17.001  0.00  0.00    +0.031 HD
ATOM     52  H   UNL     1       1.153   1.301  19.282  0.00  0.00    +0.062 HD
ATOM     53  H   UNL     1       1.070   1.763  21.725  0.00  0.00    +0.062 HD
ATOM     54  H   UNL     1       2.031   3.854  22.641  0.00  0.00    +0.062 HD
ATOM     55  H   UNL     1       3.089   5.524  21.127  0.00  0.00    +0.062 HD
ENDBRANCH  35  38
ENDBRANCH  29  32
ENDBRANCH   4  29
TORSDOF 6
ENDMDL
MODEL 17
REMARK VINA RESULT:    -8.275      1.322      1.340
REMARK INTER + INTRA:         -10.559
REMARK INTER:                 -10.514
REMARK INTRA:                  -0.045
REMARK UNBOUND:                 0.377
REMARK  Name = 
REMARK  6 active torsions:
REMARK  status: ('A' for Active; 'I' for Inactive)
REMARK    1  A    between atoms: C_1  and  C_2
REMARK    2  A    between atoms: C_8  and  C_9
REMARK    3  A    between atoms: C_12  and  C_13
REMARK    4  A    between atoms: C_13  and  N_14
REMARK    5  A    between atoms: N_17  and  C_18
REMARK    6  A    between atoms: C_27  and  C_28
REMARK                            x       y       z     vdW  Elec       q    Type
REMARK                         _______ _______ _______ _____ _____    ______ ____
ROOT
ATOM      1  C   UNL     1      -1.891  12.418  21.675  0.00  0.00    -0.017 A 
ATOM      2  C   UNL     1      -1.189  11.273  22.071  0.00  0.00    -0.054 A 
ATOM      3  C   UNL     1      -0.201  10.714  21.252  0.00  0.00    -0.056 A 
ATOM      4  C   UNL     1       0.122  11.286  20.010  0.00  0.00    -0.018 A 
ATOM      5  C   UNL     1      -0.627  12.400  19.587  0.00  0.00    +0.042 A 
ATOM      6  C   UNL     1      -1.603  12.970  20.419  0.00  0.00    -0.042 A 
ATOM      7  H   UNL     1      -1.399  10.812  23.035  0.00  0.00    +0.062 HD
ATOM      8  H   UNL     1       0.324   9.826  21.601  0.00  0.00    +0.062 HD
ATOM      9  H   UNL     1      -2.150  13.847  20.077  0.00  0.00    +0.063 HD
ENDROOT
BRANCH   1  16
ATOM     10  C   UNL     1      -3.423  14.317  22.346  0.00  0.00    -0.043 A 
ATOM     11  C   UNL     1      -4.424  14.814  23.200  0.00  0.00    -0.056 A 
ATOM     12  C   UNL     1      -4.911  14.041  24.252  0.00  0.00    -0.026 A 
ATOM     13  C   UNL     1      -4.406  12.766  24.449  0.00  0.00    +0.124 A 
ATOM     14  F   UNL     1      -4.873  12.020  25.459  0.00  0.00    -0.205 F 
ATOM     15  C   UNL     1      -3.425  12.247  23.612  0.00  0.00    -0.018 A 
ATOM     16  C   UNL     1      -2.920  13.008  22.543  0.00  0.00    -0.012 A 
ATOM     17  H   UNL     1      -4.827  15.815  23.051  0.00  0.00    +0.062 HD
ATOM     18  H   UNL     1      -5.680  14.424  24.915  0.00  0.00    +0.065 HD
ATOM     19  H   UNL     1      -3.065  11.238  23.796  0.00  0.00    +0.065 HD
BRANCH  10  20
ATOM     20  C   UNL     1      -2.933  15.193  21.221  0.00  0.00    -0.039 C 
ATOM     21  H   UNL     1      -3.524  15.039  20.312  0.00  0.00    +0.028 HD
ATOM     22  H   UNL     1      -1.889  14.961  20.988  0.00  0.00    +0.028 HD
ATOM     23  H   UNL     1      -3.024  16.252  21.483  0.00  0.00    +0.028 HD
ENDBRANCH  10  20
ENDBRANCH   1  16
BRANCH   5  24
ATOM     24  C   UNL     1      -0.444  13.037  18.264  0.00  0.00    +0.242 C 
ATOM     25  N   UNL     1      -1.259  12.594  17.263  0.00  0.00    -0.325 N 
ATOM     26  O   UNL     1       0.356  13.948  18.099  0.00  0.00    -0.270 OA
ATOM     27  H   UNL     1      -1.232  13.109  16.393  0.00  0.00    +0.145 HD
ATOM     28  H   UNL     1      -2.074  12.022  17.444  0.00  0.00    +0.145 HD
ENDBRANCH   5  24
BRANCH   4  29
ATOM     29  C   UNL     1       1.221  10.689  19.163  0.00  0.00    +0.039 C 
ATOM     30  H   UNL     1       2.158  11.246  19.267  0.00  0.00    +0.051 HD
ATOM     31  H   UNL     1       0.921  10.709  18.110  0.00  0.00    +0.051 HD
BRANCH  29  32
ATOM     32  N   UNL     1       1.535   9.328  19.548  0.00  0.00    -0.295 N 
ATOM     33  C   UNL     1       1.949   8.443  18.586  0.00  0.00    +0.300 C 
ATOM     34  O   UNL     1       1.976   8.690  17.389  0.00  0.00    -0.253 OA
ATOM     35  N   UNL     1       2.322   7.250  19.140  0.00  0.00    -0.293 N 
ATOM     36  H   UNL     1       2.020   9.224  20.428  0.00  0.00    +0.151 HD
ATOM     37  H   UNL     1       1.907   7.022  20.031  0.00  0.00    +0.151 HD
BRANCH  35  38
ATOM     38  C   UNL     1       2.720   6.141  18.301  0.00  0.00    +0.050 C 
ATOM     39  C   UNL     1       2.524   4.769  18.981  0.00  0.00    -0.026 C 
ATOM     40  C   UNL     1       3.822   4.462  19.743  0.00  0.00    -0.025 C 
ATOM     41  C   UNL     1       4.831   5.194  18.914  0.00  0.00    -0.042 A 
ATOM     42  C   UNL     1       6.208   5.051  18.924  0.00  0.00    -0.058 A 
ATOM     43  C   UNL     1       6.964   5.873  18.086  0.00  0.00    -0.061 A 
ATOM     44  C   UNL     1       6.342   6.828  17.265  0.00  0.00    -0.061 A 
ATOM     45  C   UNL     1       4.953   6.973  17.272  0.00  0.00    -0.057 A 
ATOM     46  C   UNL     1       4.208   6.146  18.098  0.00  0.00    -0.024 A 
ATOM     47  H   UNL     1       2.173   6.179  17.351  0.00  0.00    +0.055 HD
ATOM     48  H   UNL     1       1.645   4.720  19.635  0.00  0.00    +0.029 HD
ATOM     49  H   UNL     1       2.389   4.005  18.202  0.00  0.00    +0.029 HD
ATOM     50  H   UNL     1       3.795   4.877  20.756  0.00  0.00    +0.031 HD
ATOM     51  H   UNL     1       4.015   3.386  19.782  0.00  0.00    +0.031 HD
ATOM     52  H   UNL     1       6.691   4.320  19.563  0.00  0.00    +0.062 HD
ATOM     53  H   UNL     1       8.047   5.777  18.071  0.00  0.00    +0.062 HD
ATOM     54  H   UNL     1       6.949   7.461  16.623  0.00  0.00    +0.062 HD
ATOM     55  H   UNL     1       4.472   7.718  16.645  0.00  0.00    +0.062 HD
ENDBRANCH  35  38
ENDBRANCH  29  32
ENDBRANCH   4  29
TORSDOF 6
ENDMDL
MODEL 18
REMARK VINA RESULT:    -8.238      4.075     10.119
REMARK INTER + INTRA:         -10.510
REMARK INTER:                  -9.912
REMARK INTRA:                  -0.598
REMARK UNBOUND:                 0.377
REMARK  Name = 
REMARK  6 active torsions:
REMARK  status: ('A' for Active; 'I' for Inactive)
REMARK    1  A    between atoms: C_1  and  C_2
REMARK    2  A    between atoms: C_8  and  C_9
REMARK    3  A    between atoms: C_12  and  C_13
REMARK    4  A    between atoms: C_13  and  N_14
REMARK    5  A    between atoms: N_17  and  C_18
REMARK    6  A    between atoms: C_27  and  C_28
REMARK                            x       y       z     vdW  Elec       q    Type
REMARK                         _______ _______ _______ _____ _____    ______ ____
ROOT
ATOM      1  C   UNL     1       3.790   5.731  18.363  0.00  0.00    -0.017 A 
ATOM      2  C   UNL     1       3.316   7.048  18.413  0.00  0.00    -0.054 A 
ATOM      3  C   UNL     1       2.344   7.430  19.346  0.00  0.00    -0.056 A 
ATOM      4  C   UNL     1       1.819   6.506  20.266  0.00  0.00    -0.018 A 
ATOM      5  C   UNL     1       2.252   5.171  20.173  0.00  0.00    +0.042 A 
ATOM      6  C   UNL     1       3.241   4.796  19.250  0.00  0.00    -0.042 A 
ATOM      7  H   UNL     1       3.712   7.796  17.728  0.00  0.00    +0.062 HD
ATOM      8  H   UNL     1       2.007   8.465  19.353  0.00  0.00    +0.062 HD
ATOM      9  H   UNL     1       3.576   3.760  19.217  0.00  0.00    +0.063 HD
ENDROOT
BRANCH   1  16
ATOM     10  C   UNL     1       4.711   4.167  16.601  0.00  0.00    -0.043 A 
ATOM     11  C   UNL     1       5.720   3.859  15.670  0.00  0.00    -0.056 A 
ATOM     12  C   UNL     1       6.834   4.684  15.529  0.00  0.00    -0.026 A 
ATOM     13  C   UNL     1       6.940   5.823  16.312  0.00  0.00    +0.124 A 
ATOM     14  F   UNL     1       8.010   6.618  16.178  0.00  0.00    -0.205 F 
ATOM     15  C   UNL     1       5.951   6.155  17.231  0.00  0.00    -0.018 A 
ATOM     16  C   UNL     1       4.818   5.338  17.388  0.00  0.00    -0.012 A 
ATOM     17  H   UNL     1       5.643   2.967  15.051  0.00  0.00    +0.062 HD
ATOM     18  H   UNL     1       7.616   4.446  14.815  0.00  0.00    +0.065 HD
ATOM     19  H   UNL     1       6.070   7.062  17.816  0.00  0.00    +0.065 HD
BRANCH  10  20
ATOM     20  C   UNL     1       3.526   3.242  16.712  0.00  0.00    -0.039 C 
ATOM     21  H   UNL     1       3.512   2.514  15.893  0.00  0.00    +0.028 HD
ATOM     22  H   UNL     1       2.594   3.815  16.668  0.00  0.00    +0.028 HD
ATOM     23  H   UNL     1       3.561   2.670  17.645  0.00  0.00    +0.028 HD
ENDBRANCH  10  20
ENDBRANCH   1  16
BRANCH   5  24
ATOM     24  C   UNL     1       1.710   4.088  21.025  0.00  0.00    +0.242 C 
ATOM     25  N   UNL     1       0.614   3.434  20.542  0.00  0.00    -0.325 N 
ATOM     26  O   UNL     1       2.253   3.767  22.073  0.00  0.00    -0.270 OA
ATOM     27  H   UNL     1       0.314   2.612  21.051  0.00  0.00    +0.145 HD
ATOM     28  H   UNL     1       0.308   3.528  19.583  0.00  0.00    +0.145 HD
ENDBRANCH   5  24
BRANCH   4  29
ATOM     29  C   UNL     1       0.803   6.952  21.292  0.00  0.00    +0.039 C 
ATOM     30  H   UNL     1       1.276   7.192  22.249  0.00  0.00    +0.051 HD
ATOM     31  H   UNL     1       0.075   6.150  21.454  0.00  0.00    +0.051 HD
BRANCH  29  32
ATOM     32  N   UNL     1       0.109   8.159  20.890  0.00  0.00    -0.295 N 
ATOM     33  C   UNL     1       0.342   9.320  21.581  0.00  0.00    +0.300 C 
ATOM     34  O   UNL     1       1.023   9.396  22.593  0.00  0.00    -0.253 OA
ATOM     35  N   UNL     1      -0.293  10.380  20.994  0.00  0.00    -0.293 N 
ATOM     36  H   UNL     1       0.009   8.295  19.895  0.00  0.00    +0.151 HD
ATOM     37  H   UNL     1      -1.105  10.161  20.436  0.00  0.00    +0.151 HD
BRANCH  35  38
ATOM     38  C   UNL     1      -0.249  11.692  21.599  0.00  0.00    +0.050 C 
ATOM     39  C   UNL     1      -1.648  12.316  21.789  0.00  0.00    -0.026 C 
ATOM     40  C   UNL     1      -1.969  13.088  20.500  0.00  0.00    -0.025 C 
ATOM     41  C   UNL     1      -0.598  13.473  20.038  0.00  0.00    -0.042 A 
ATOM     42  C   UNL     1      -0.253  14.427  19.097  0.00  0.00    -0.058 A 
ATOM     43  C   UNL     1       1.099  14.594  18.790  0.00  0.00    -0.061 A 
ATOM     44  C   UNL     1       2.079  13.804  19.413  0.00  0.00    -0.061 A 
ATOM     45  C   UNL     1       1.720  12.835  20.351  0.00  0.00    -0.057 A 
ATOM     46  C   UNL     1       0.377  12.682  20.658  0.00  0.00    -0.024 A 
ATOM     47  H   UNL     1       0.281  11.641  22.557  0.00  0.00    +0.055 HD
ATOM     48  H   UNL     1      -2.429  11.587  22.033  0.00  0.00    +0.029 HD
ATOM     49  H   UNL     1      -1.605  13.033  22.622  0.00  0.00    +0.029 HD
ATOM     50  H   UNL     1      -2.448  12.440  19.758  0.00  0.00    +0.031 HD
ATOM     51  H   UNL     1      -2.601  13.957  20.704  0.00  0.00    +0.031 HD
ATOM     52  H   UNL     1      -1.008  15.034  18.610  0.00  0.00    +0.062 HD
ATOM     53  H   UNL     1       1.398  15.342  18.059  0.00  0.00    +0.062 HD
ATOM     54  H   UNL     1       3.126  13.947  19.157  0.00  0.00    +0.062 HD
ATOM     55  H   UNL     1       2.476  12.216  20.825  0.00  0.00    +0.062 HD
ENDBRANCH  35  38
ENDBRANCH  29  32
ENDBRANCH   4  29
TORSDOF 6
ENDMDL
MODEL 19
REMARK VINA RESULT:    -8.213      1.384      1.966
REMARK INTER + INTRA:         -10.477
REMARK INTER:                 -10.967
REMARK INTRA:                   0.490
REMARK UNBOUND:                 0.377
REMARK  Name = 
REMARK  6 active torsions:
REMARK  status: ('A' for Active; 'I' for Inactive)
REMARK    1  A    between atoms: C_1  and  C_2
REMARK    2  A    between atoms: C_8  and  C_9
REMARK    3  A    between atoms: C_12  and  C_13
REMARK    4  A    between atoms: C_13  and  N_14
REMARK    5  A    between atoms: N_17  and  C_18
REMARK    6  A    between atoms: C_27  and  C_28
REMARK                            x       y       z     vdW  Elec       q    Type
REMARK                         _______ _______ _______ _____ _____    ______ ____
ROOT
ATOM      1  C   UNL     1      -1.183  12.079  21.981  0.00  0.00    -0.017 A 
ATOM      2  C   UNL     1      -0.955  12.694  20.743  0.00  0.00    -0.054 A 
ATOM      3  C   UNL     1      -0.189  12.064  19.756  0.00  0.00    -0.056 A 
ATOM      4  C   UNL     1       0.368  10.791  19.970  0.00  0.00    -0.018 A 
ATOM      5  C   UNL     1       0.189  10.203  21.236  0.00  0.00    +0.042 A 
ATOM      6  C   UNL     1      -0.596  10.829  22.217  0.00  0.00    -0.042 A 
ATOM      7  H   UNL     1      -1.386  13.672  20.534  0.00  0.00    +0.062 HD
ATOM      8  H   UNL     1      -0.041  12.575  18.806  0.00  0.00    +0.062 HD
ATOM      9  H   UNL     1      -0.739  10.338  23.180  0.00  0.00    +0.063 HD
ENDROOT
BRANCH   1  16
ATOM     10  C   UNL     1      -1.679  14.022  23.525  0.00  0.00    -0.043 A 
ATOM     11  C   UNL     1      -2.512  14.609  24.495  0.00  0.00    -0.056 A 
ATOM     12  C   UNL     1      -3.635  13.935  24.970  0.00  0.00    -0.026 A 
ATOM     13  C   UNL     1      -3.934  12.676  24.475  0.00  0.00    +0.124 A 
ATOM     14  F   UNL     1      -5.013  12.026  24.931  0.00  0.00    -0.205 F 
ATOM     15  C   UNL     1      -3.133  12.079  23.508  0.00  0.00    -0.018 A 
ATOM     16  C   UNL     1      -1.996  12.741  23.011  0.00  0.00    -0.012 A 
ATOM     17  H   UNL     1      -2.285  15.598  24.888  0.00  0.00    +0.062 HD
ATOM     18  H   UNL     1      -4.277  14.384  25.722  0.00  0.00    +0.065 HD
ATOM     19  H   UNL     1      -3.410  11.095  23.139  0.00  0.00    +0.065 HD
BRANCH  10  20
ATOM     20  C   UNL     1      -0.479  14.794  23.041  0.00  0.00    -0.039 C 
ATOM     21  H   UNL     1       0.426  14.176  23.061  0.00  0.00    +0.028 HD
ATOM     22  H   UNL     1      -0.305  15.664  23.683  0.00  0.00    +0.028 HD
ATOM     23  H   UNL     1      -0.616  15.123  22.006  0.00  0.00    +0.028 HD
ENDBRANCH  10  20
ENDBRANCH   1  16
BRANCH   5  24
ATOM     24  C   UNL     1       0.799   8.909  21.615  0.00  0.00    +0.242 C 
ATOM     25  N   UNL     1       1.999   8.976  22.263  0.00  0.00    -0.325 N 
ATOM     26  O   UNL     1       0.228   7.848  21.407  0.00  0.00    -0.270 OA
ATOM     27  H   UNL     1       2.361   8.109  22.640  0.00  0.00    +0.145 HD
ATOM     28  H   UNL     1       2.357   9.840  22.649  0.00  0.00    +0.145 HD
ENDBRANCH   5  24
BRANCH   4  29
ATOM     29  C   UNL     1       1.155  10.113  18.873  0.00  0.00    +0.039 C 
ATOM     30  H   UNL     1       2.055  10.679  18.614  0.00  0.00    +0.051 HD
ATOM     31  H   UNL     1       0.529  10.025  17.978  0.00  0.00    +0.051 HD
BRANCH  29  32
ATOM     32  N   UNL     1       1.623   8.798  19.264  0.00  0.00    -0.295 N 
ATOM     33  C   UNL     1       2.250   8.012  18.332  0.00  0.00    +0.300 C 
ATOM     34  O   UNL     1       2.355   8.297  17.148  0.00  0.00    -0.253 OA
ATOM     35  N   UNL     1       2.736   6.867  18.900  0.00  0.00    -0.293 N 
ATOM     36  H   UNL     1       2.032   8.737  20.185  0.00  0.00    +0.151 HD
ATOM     37  H   UNL     1       2.276   6.555  19.741  0.00  0.00    +0.151 HD
BRANCH  35  38
ATOM     38  C   UNL     1       3.368   5.852  18.085  0.00  0.00    +0.050 C 
ATOM     39  C   UNL     1       3.315   4.448  18.723  0.00  0.00    -0.026 C 
ATOM     40  C   UNL     1       4.571   4.310  19.598  0.00  0.00    -0.025 C 
ATOM     41  C   UNL     1       5.531   5.205  18.880  0.00  0.00    -0.042 A 
ATOM     42  C   UNL     1       6.907   5.264  19.017  0.00  0.00    -0.058 A 
ATOM     43  C   UNL     1       7.607   6.211  18.266  0.00  0.00    -0.061 A 
ATOM     44  C   UNL     1       6.928   7.088  17.405  0.00  0.00    -0.061 A 
ATOM     45  C   UNL     1       5.538   7.030  17.283  0.00  0.00    -0.057 A 
ATOM     46  C   UNL     1       4.851   6.080  18.023  0.00  0.00    -0.024 A 
ATOM     47  H   UNL     1       2.910   5.838  17.089  0.00  0.00    +0.055 HD
ATOM     48  H   UNL     1       2.398   4.252  19.290  0.00  0.00    +0.029 HD
ATOM     49  H   UNL     1       3.366   3.695  17.923  0.00  0.00    +0.029 HD
ATOM     50  H   UNL     1       4.390   4.687  20.611  0.00  0.00    +0.031 HD
ATOM     51  H   UNL     1       4.915   3.273  19.639  0.00  0.00    +0.031 HD
ATOM     52  H   UNL     1       7.434   4.592  19.687  0.00  0.00    +0.062 HD
ATOM     53  H   UNL     1       8.689   6.274  18.351  0.00  0.00    +0.062 HD
ATOM     54  H   UNL     1       7.491   7.821  16.832  0.00  0.00    +0.062 HD
ATOM     55  H   UNL     1       5.011   7.715  16.626  0.00  0.00    +0.062 HD
ENDBRANCH  35  38
ENDBRANCH  29  32
ENDBRANCH   4  29
TORSDOF 6
ENDMDL
MODEL 20
REMARK VINA RESULT:    -8.200      4.142     10.617
REMARK INTER + INTRA:         -10.460
REMARK INTER:                  -9.738
REMARK INTRA:                  -0.722
REMARK UNBOUND:                 0.377
REMARK  Name = 
REMARK  6 active torsions:
REMARK  status: ('A' for Active; 'I' for Inactive)
REMARK    1  A    between atoms: C_1  and  C_2
REMARK    2  A    between atoms: C_8  and  C_9
REMARK    3  A    between atoms: C_12  and  C_13
REMARK    4  A    between atoms: C_13  and  N_14
REMARK    5  A    between atoms: N_17  and  C_18
REMARK    6  A    between atoms: C_27  and  C_28
REMARK                            x       y       z     vdW  Elec       q    Type
REMARK                         _______ _______ _______ _____ _____    ______ ____
ROOT
ATOM      1  C   UNL     1       4.369   5.114  17.414  0.00  0.00    -0.017 A 
ATOM      2  C   UNL     1       3.840   6.373  17.722  0.00  0.00    -0.054 A 
ATOM      3  C   UNL     1       2.943   6.538  18.784  0.00  0.00    -0.056 A 
ATOM      4  C   UNL     1       2.551   5.448  19.580  0.00  0.00    -0.018 A 
ATOM      5  C   UNL     1       3.037   4.174  19.231  0.00  0.00    +0.042 A 
ATOM      6  C   UNL     1       3.951   4.015  18.178  0.00  0.00    -0.042 A 
ATOM      7  H   UNL     1       4.134   7.245  17.139  0.00  0.00    +0.062 HD
ATOM      8  H   UNL     1       2.559   7.536  18.992  0.00  0.00    +0.062 HD
ATOM      9  H   UNL     1       4.330   3.021  17.945  0.00  0.00    +0.063 HD
ENDROOT
BRANCH   1  16
ATOM     10  C   UNL     1       6.677   5.334  16.402  0.00  0.00    -0.043 A 
ATOM     11  C   UNL     1       7.540   5.128  15.309  0.00  0.00    -0.056 A 
ATOM     12  C   UNL     1       7.067   4.565  14.126  0.00  0.00    -0.026 A 
ATOM     13  C   UNL     1       5.733   4.201  14.031  0.00  0.00    +0.124 A 
ATOM     14  F   UNL     1       5.276   3.660  12.894  0.00  0.00    -0.205 F 
ATOM     15  C   UNL     1       4.863   4.384  15.100  0.00  0.00    -0.018 A 
ATOM     16  C   UNL     1       5.319   4.948  16.305  0.00  0.00    -0.012 A 
ATOM     17  H   UNL     1       8.589   5.411  15.377  0.00  0.00    +0.062 HD
ATOM     18  H   UNL     1       7.730   4.409  13.280  0.00  0.00    +0.065 HD
ATOM     19  H   UNL     1       3.828   4.074  14.986  0.00  0.00    +0.065 HD
BRANCH  10  20
ATOM     20  C   UNL     1       7.240   5.944  17.660  0.00  0.00    -0.039 C 
ATOM     21  H   UNL     1       8.120   5.392  18.009  0.00  0.00    +0.028 HD
ATOM     22  H   UNL     1       6.491   5.922  18.459  0.00  0.00    +0.028 HD
ATOM     23  H   UNL     1       7.561   6.976  17.486  0.00  0.00    +0.028 HD
ENDBRANCH  10  20
ENDBRANCH   1  16
BRANCH   5  24
ATOM     24  C   UNL     1       2.629   2.937  19.934  0.00  0.00    +0.242 C 
ATOM     25  N   UNL     1       1.733   2.141  19.281  0.00  0.00    -0.325 N 
ATOM     26  O   UNL     1       3.115   2.626  21.013  0.00  0.00    -0.270 OA
ATOM     27  H   UNL     1       1.548   1.234  19.692  0.00  0.00    +0.145 HD
ATOM     28  H   UNL     1       1.514   2.265  18.302  0.00  0.00    +0.145 HD
ENDBRANCH   5  24
BRANCH   4  29
ATOM     29  C   UNL     1       1.616   5.658  20.747  0.00  0.00    +0.039 C 
ATOM     30  H   UNL     1       2.165   5.802  21.683  0.00  0.00    +0.051 HD
ATOM     31  H   UNL     1       0.967   4.782  20.856  0.00  0.00    +0.051 HD
BRANCH  29  32
ATOM     32  N   UNL     1       0.800   6.846  20.592  0.00  0.00    -0.295 N 
ATOM     33  C   UNL     1       1.193   8.007  21.206  0.00  0.00    +0.300 C 
ATOM     34  O   UNL     1       2.140   8.095  21.974  0.00  0.00    -0.253 OA
ATOM     35  N   UNL     1       0.383   9.051  20.853  0.00  0.00    -0.293 N 
ATOM     36  H   UNL     1       0.407   6.989  19.673  0.00  0.00    +0.151 HD
ATOM     37  H   UNL     1      -0.550   8.812  20.555  0.00  0.00    +0.151 HD
BRANCH  35  38
ATOM     38  C   UNL     1       0.566  10.358  21.444  0.00  0.00    +0.050 C 
ATOM     39  C   UNL     1       0.147  10.411  22.929  0.00  0.00    -0.026 C 
ATOM     40  C   UNL     1      -1.345  10.776  22.957  0.00  0.00    -0.025 C 
ATOM     41  C   UNL     1      -1.476  11.580  21.702  0.00  0.00    -0.042 A 
ATOM     42  C   UNL     1      -2.509  12.425  21.335  0.00  0.00    -0.058 A 
ATOM     43  C   UNL     1      -2.440  13.051  20.088  0.00  0.00    -0.061 A 
ATOM     44  C   UNL     1      -1.356  12.817  19.226  0.00  0.00    -0.061 A 
ATOM     45  C   UNL     1      -0.325  11.953  19.600  0.00  0.00    -0.057 A 
ATOM     46  C   UNL     1      -0.395  11.344  20.843  0.00  0.00    -0.024 A 
ATOM     47  H   UNL     1       1.609  10.675  21.329  0.00  0.00    +0.055 HD
ATOM     48  H   UNL     1       0.353   9.487  23.481  0.00  0.00    +0.029 HD
ATOM     49  H   UNL     1       0.710  11.215  23.426  0.00  0.00    +0.029 HD
ATOM     50  H   UNL     1      -1.973   9.880  22.897  0.00  0.00    +0.031 HD
ATOM     51  H   UNL     1      -1.597  11.352  23.851  0.00  0.00    +0.031 HD
ATOM     52  H   UNL     1      -3.351  12.602  21.995  0.00  0.00    +0.062 HD
ATOM     53  H   UNL     1      -3.236  13.724  19.778  0.00  0.00    +0.062 HD
ATOM     54  H   UNL     1      -1.323  13.311  18.258  0.00  0.00    +0.062 HD
ATOM     55  H   UNL     1       0.508  11.763  18.930  0.00  0.00    +0.062 HD
ENDBRANCH  35  38
ENDBRANCH  29  32
ENDBRANCH   4  29
TORSDOF 6
ENDMDL
MODEL 21
REMARK VINA RESULT:    -8.196      4.905     10.551
REMARK INTER + INTRA:         -10.455
REMARK INTER:                 -10.992
REMARK INTRA:                   0.537
REMARK UNBOUND:                 0.377
REMARK  Name = 
REMARK  6 active torsions:
REMARK  status: ('A' for Active; 'I' for Inactive)
REMARK    1  A    between atoms: C_1  and  C_2
REMARK    2  A    between atoms: C_8  and  C_9
REMARK    3  A    between atoms: C_12  and  C_13
REMARK    4  A    between atoms: C_13  and  N_14
REMARK    5  A    between atoms: N_17  and  C_18
REMARK    6  A    between atoms: C_27  and  C_28
REMARK                            x       y       z     vdW  Elec       q    Type
REMARK                         _______ _______ _______ _____ _____    ______ ____
ROOT
ATOM      1  C   UNL     1       4.320   3.880  16.932  0.00  0.00    -0.017 A 
ATOM      2  C   UNL     1       2.982   4.244  16.738  0.00  0.00    -0.054 A 
ATOM      3  C   UNL     1       2.016   3.991  17.719  0.00  0.00    -0.056 A 
ATOM      4  C   UNL     1       2.359   3.371  18.933  0.00  0.00    -0.018 A 
ATOM      5  C   UNL     1       3.692   2.952  19.100  0.00  0.00    +0.042 A 
ATOM      6  C   UNL     1       4.662   3.225  18.123  0.00  0.00    -0.042 A 
ATOM      7  H   UNL     1       2.682   4.742  15.817  0.00  0.00    +0.062 HD
ATOM      8  H   UNL     1       0.988   4.294  17.529  0.00  0.00    +0.062 HD
ATOM      9  H   UNL     1       5.692   2.911  18.290  0.00  0.00    +0.063 HD
ENDROOT
BRANCH   1  16
ATOM     10  C   UNL     1       6.495   4.923  16.166  0.00  0.00    -0.043 A 
ATOM     11  C   UNL     1       7.436   5.133  15.142  0.00  0.00    -0.056 A 
ATOM     12  C   UNL     1       7.228   4.614  13.866  0.00  0.00    -0.026 A 
ATOM     13  C   UNL     1       6.082   3.878  13.610  0.00  0.00    +0.124 A 
ATOM     14  F   UNL     1       5.879   3.377  12.384  0.00  0.00    -0.205 F 
ATOM     15  C   UNL     1       5.142   3.645  14.608  0.00  0.00    -0.018 A 
ATOM     16  C   UNL     1       5.333   4.158  15.903  0.00  0.00    -0.012 A 
ATOM     17  H   UNL     1       8.339   5.710  15.335  0.00  0.00    +0.062 HD
ATOM     18  H   UNL     1       7.951   4.779  13.073  0.00  0.00    +0.065 HD
ATOM     19  H   UNL     1       4.264   3.054  14.366  0.00  0.00    +0.065 HD
BRANCH  10  20
ATOM     20  C   UNL     1       6.770   5.503  17.529  0.00  0.00    -0.039 C 
ATOM     21  H   UNL     1       7.121   6.539  17.457  0.00  0.00    +0.028 HD
ATOM     22  H   UNL     1       7.544   4.921  18.040  0.00  0.00    +0.028 HD
ATOM     23  H   UNL     1       5.860   5.519  18.139  0.00  0.00    +0.028 HD
ENDBRANCH  10  20
ENDBRANCH   1  16
BRANCH   5  24
ATOM     24  C   UNL     1       4.158   2.211  20.294  0.00  0.00    +0.242 C 
ATOM     25  N   UNL     1       5.277   1.446  20.129  0.00  0.00    -0.325 N 
ATOM     26  O   UNL     1       3.601   2.328  21.376  0.00  0.00    -0.270 OA
ATOM     27  H   UNL     1       5.677   1.040  20.965  0.00  0.00    +0.145 HD
ATOM     28  H   UNL     1       5.874   1.531  19.317  0.00  0.00    +0.145 HD
ENDBRANCH   5  24
BRANCH   4  29
ATOM     29  C   UNL     1       1.308   3.148  19.994  0.00  0.00    +0.039 C 
ATOM     30  H   UNL     1       1.735   2.698  20.896  0.00  0.00    +0.051 HD
ATOM     31  H   UNL     1       0.534   2.478  19.604  0.00  0.00    +0.051 HD
BRANCH  29  32
ATOM     32  N   UNL     1       0.696   4.387  20.432  0.00  0.00    -0.295 N 
ATOM     33  C   UNL     1       1.488   5.491  20.613  0.00  0.00    +0.300 C 
ATOM     34  O   UNL     1       2.708   5.486  20.531  0.00  0.00    -0.253 OA
ATOM     35  N   UNL     1       0.736   6.596  20.902  0.00  0.00    -0.293 N 
ATOM     36  H   UNL     1      -0.203   4.597  20.026  0.00  0.00    +0.151 HD
ATOM     37  H   UNL     1      -0.166   6.426  21.319  0.00  0.00    +0.151 HD
BRANCH  35  38
ATOM     38  C   UNL     1       1.371   7.859  21.208  0.00  0.00    +0.050 C 
ATOM     39  C   UNL     1       0.601   8.679  22.266  0.00  0.00    -0.026 C 
ATOM     40  C   UNL     1      -0.412   9.547  21.503  0.00  0.00    -0.025 C 
ATOM     41  C   UNL     1       0.288   9.738  20.194  0.00  0.00    -0.042 A 
ATOM     42  C   UNL     1       0.012  10.669  19.208  0.00  0.00    -0.058 A 
ATOM     43  C   UNL     1       0.777  10.641  18.040  0.00  0.00    -0.061 A 
ATOM     44  C   UNL     1       1.791   9.685  17.869  0.00  0.00    -0.061 A 
ATOM     45  C   UNL     1       2.053   8.742  18.864  0.00  0.00    -0.057 A 
ATOM     46  C   UNL     1       1.297   8.782  20.025  0.00  0.00    -0.024 A 
ATOM     47  H   UNL     1       2.403   7.687  21.534  0.00  0.00    +0.055 HD
ATOM     48  H   UNL     1       0.118   8.068  23.036  0.00  0.00    +0.029 HD
ATOM     49  H   UNL     1       1.310   9.345  22.780  0.00  0.00    +0.029 HD
ATOM     50  H   UNL     1      -1.356   9.012  21.351  0.00  0.00    +0.031 HD
ATOM     51  H   UNL     1      -0.596  10.492  22.021  0.00  0.00    +0.031 HD
ATOM     52  H   UNL     1      -0.776  11.404  19.334  0.00  0.00    +0.062 HD
ATOM     53  H   UNL     1       0.584  11.365  17.252  0.00  0.00    +0.062 HD
ATOM     54  H   UNL     1       2.372   9.677  16.950  0.00  0.00    +0.062 HD
ATOM     55  H   UNL     1       2.830   7.995  18.728  0.00  0.00    +0.062 HD
ENDBRANCH  35  38
ENDBRANCH  29  32
ENDBRANCH   4  29
TORSDOF 6
ENDMDL
MODEL 22
REMARK VINA RESULT:    -8.186      3.507     10.051
REMARK INTER + INTRA:         -10.441
REMARK INTER:                 -10.447
REMARK INTRA:                   0.006
REMARK UNBOUND:                 0.377
REMARK  Name = 
REMARK  6 active torsions:
REMARK  status: ('A' for Active; 'I' for Inactive)
REMARK    1  A    between atoms: C_1  and  C_2
REMARK    2  A    between atoms: C_8  and  C_9
REMARK    3  A    between atoms: C_12  and  C_13
REMARK    4  A    between atoms: C_13  and  N_14
REMARK    5  A    between atoms: N_17  and  C_18
REMARK    6  A    between atoms: C_27  and  C_28
REMARK                            x       y       z     vdW  Elec       q    Type
REMARK                         _______ _______ _______ _____ _____    ______ ____
ROOT
ATOM      1  C   UNL     1       2.589   6.831  19.124  0.00  0.00    -0.017 A 
ATOM      2  C   UNL     1       2.484   7.479  17.887  0.00  0.00    -0.054 A 
ATOM      3  C   UNL     1       1.797   8.692  17.764  0.00  0.00    -0.056 A 
ATOM      4  C   UNL     1       1.197   9.303  18.879  0.00  0.00    -0.018 A 
ATOM      5  C   UNL     1       1.252   8.619  20.108  0.00  0.00    +0.042 A 
ATOM      6  C   UNL     1       1.958   7.413  20.232  0.00  0.00    -0.042 A 
ATOM      7  H   UNL     1       2.951   7.045  17.004  0.00  0.00    +0.062 HD
ATOM      8  H   UNL     1       1.743   9.164  16.785  0.00  0.00    +0.062 HD
ATOM      9  H   UNL     1       2.006   6.918  21.201  0.00  0.00    +0.063 HD
ENDROOT
BRANCH   1  16
ATOM     10  C   UNL     1       2.728   4.391  19.780  0.00  0.00    -0.043 A 
ATOM     11  C   UNL     1       3.478   3.202  19.852  0.00  0.00    -0.056 A 
ATOM     12  C   UNL     1       4.804   3.170  19.426  0.00  0.00    -0.026 A 
ATOM     13  C   UNL     1       5.384   4.323  18.920  0.00  0.00    +0.124 A 
ATOM     14  F   UNL     1       6.659   4.295  18.510  0.00  0.00    -0.205 F 
ATOM     15  C   UNL     1       4.661   5.507  18.828  0.00  0.00    -0.018 A 
ATOM     16  C   UNL     1       3.321   5.562  19.249  0.00  0.00    -0.012 A 
ATOM     17  H   UNL     1       3.029   2.292  20.247  0.00  0.00    +0.062 HD
ATOM     18  H   UNL     1       5.385   2.256  19.485  0.00  0.00    +0.065 HD
ATOM     19  H   UNL     1       5.152   6.384  18.415  0.00  0.00    +0.065 HD
BRANCH  10  20
ATOM     20  C   UNL     1       1.296   4.371  20.251  0.00  0.00    -0.039 C 
ATOM     21  H   UNL     1       0.637   3.926  19.497  0.00  0.00    +0.028 HD
ATOM     22  H   UNL     1       0.947   5.390  20.444  0.00  0.00    +0.028 HD
ATOM     23  H   UNL     1       1.192   3.768  21.159  0.00  0.00    +0.028 HD
ENDBRANCH  10  20
ENDBRANCH   1  16
BRANCH   5  24
ATOM     24  C   UNL     1       0.584   9.113  21.334  0.00  0.00    +0.242 C 
ATOM     25  N   UNL     1      -0.698   8.689  21.534  0.00  0.00    -0.325 N 
ATOM     26  O   UNL     1       1.173   9.816  22.143  0.00  0.00    -0.270 OA
ATOM     27  H   UNL     1      -1.116   8.914  22.428  0.00  0.00    +0.145 HD
ATOM     28  H   UNL     1      -1.103   7.928  21.005  0.00  0.00    +0.145 HD
ENDBRANCH   5  24
BRANCH   4  29
ATOM     29  C   UNL     1       0.497  10.633  18.730  0.00  0.00    +0.039 C 
ATOM     30  H   UNL     1      -0.534  10.510  18.386  0.00  0.00    +0.051 HD
ATOM     31  H   UNL     1       1.037  11.248  18.002  0.00  0.00    +0.051 HD
BRANCH  29  32
ATOM     32  N   UNL     1       0.402  11.348  19.987  0.00  0.00    -0.295 N 
ATOM     33  C   UNL     1      -0.448  12.420  20.079  0.00  0.00    +0.300 C 
ATOM     34  O   UNL     1      -1.067  12.892  19.136  0.00  0.00    -0.253 OA
ATOM     35  N   UNL     1      -0.509  12.894  21.360  0.00  0.00    -0.293 N 
ATOM     36  H   UNL     1       0.420  10.775  20.818  0.00  0.00    +0.151 HD
ATOM     37  H   UNL     1       0.293  12.708  21.944  0.00  0.00    +0.151 HD
BRANCH  35  38
ATOM     38  C   UNL     1      -1.286  14.073  21.673  0.00  0.00    +0.050 C 
ATOM     39  C   UNL     1      -0.699  14.888  22.845  0.00  0.00    -0.026 C 
ATOM     40  C   UNL     1      -1.318  14.324  24.133  0.00  0.00    -0.025 C 
ATOM     41  C   UNL     1      -2.638  13.828  23.633  0.00  0.00    -0.042 A 
ATOM     42  C   UNL     1      -3.756  13.486  24.374  0.00  0.00    -0.058 A 
ATOM     43  C   UNL     1      -4.878  13.005  23.695  0.00  0.00    -0.061 A 
ATOM     44  C   UNL     1      -4.864  12.862  22.298  0.00  0.00    -0.061 A 
ATOM     45  C   UNL     1      -3.727  13.197  21.561  0.00  0.00    -0.057 A 
ATOM     46  C   UNL     1      -2.621  13.683  22.240  0.00  0.00    -0.024 A 
ATOM     47  H   UNL     1      -1.384  14.701  20.780  0.00  0.00    +0.055 HD
ATOM     48  H   UNL     1       0.396  14.886  22.883  0.00  0.00    +0.029 HD
ATOM     49  H   UNL     1      -1.015  15.937  22.739  0.00  0.00    +0.029 HD
ATOM     50  H   UNL     1      -0.726  13.490  24.525  0.00  0.00    +0.031 HD
ATOM     51  H   UNL     1      -1.424  15.100  24.896  0.00  0.00    +0.031 HD
ATOM     52  H   UNL     1      -3.767  13.589  25.454  0.00  0.00    +0.062 HD
ATOM     53  H   UNL     1      -5.771  12.735  24.253  0.00  0.00    +0.062 HD
ATOM     54  H   UNL     1      -5.746  12.482  21.789  0.00  0.00    +0.062 HD
ATOM     55  H   UNL     1      -3.712  13.076  20.482  0.00  0.00    +0.062 HD
ENDBRANCH  35  38
ENDBRANCH  29  32
ENDBRANCH   4  29
TORSDOF 6
ENDMDL
MODEL 23
REMARK VINA RESULT:    -8.108      2.124      2.854
REMARK INTER + INTRA:         -10.339
REMARK INTER:                  -9.549
REMARK INTRA:                  -0.790
REMARK UNBOUND:                 0.377
REMARK  Name = 
REMARK  6 active torsions:
REMARK  status: ('A' for Active; 'I' for Inactive)
REMARK    1  A    between atoms: C_1  and  C_2
REMARK    2  A    between atoms: C_8  and  C_9
REMARK    3  A    between atoms: C_12  and  C_13
REMARK    4  A    between atoms: C_13  and  N_14
REMARK    5  A    between atoms: N_17  and  C_18
REMARK    6  A    between atoms: C_27  and  C_28
REMARK                            x       y       z     vdW  Elec       q    Type
REMARK                         _______ _______ _______ _____ _____    ______ ____
ROOT
ATOM      1  C   UNL     1      -1.699  12.038  22.085  0.00  0.00    -0.017 A 
ATOM      2  C   UNL     1      -1.382  11.047  23.022  0.00  0.00    -0.054 A 
ATOM      3  C   UNL     1      -0.244  10.246  22.868  0.00  0.00    -0.056 A 
ATOM      4  C   UNL     1       0.621  10.416  21.773  0.00  0.00    -0.018 A 
ATOM      5  C   UNL     1       0.267  11.371  20.802  0.00  0.00    +0.042 A 
ATOM      6  C   UNL     1      -0.863  12.186  20.970  0.00  0.00    -0.042 A 
ATOM      7  H   UNL     1      -2.019  10.897  23.893  0.00  0.00    +0.062 HD
ATOM      8  H   UNL     1      -0.033   9.490  23.622  0.00  0.00    +0.062 HD
ATOM      9  H   UNL     1      -1.099  12.935  20.215  0.00  0.00    +0.063 HD
ENDROOT
BRANCH   1  16
ATOM     10  C   UNL     1      -3.889  13.001  21.263  0.00  0.00    -0.043 A 
ATOM     11  C   UNL     1      -5.015  13.811  21.499  0.00  0.00    -0.056 A 
ATOM     12  C   UNL     1      -5.147  14.515  22.695  0.00  0.00    -0.026 A 
ATOM     13  C   UNL     1      -4.159  14.407  23.660  0.00  0.00    +0.124 A 
ATOM     14  F   UNL     1      -4.283  15.083  24.810  0.00  0.00    -0.205 F 
ATOM     15  C   UNL     1      -3.042  13.605  23.455  0.00  0.00    -0.018 A 
ATOM     16  C   UNL     1      -2.888  12.884  22.258  0.00  0.00    -0.012 A 
ATOM     17  H   UNL     1      -5.796  13.900  20.746  0.00  0.00    +0.062 HD
ATOM     18  H   UNL     1      -6.013  15.143  22.878  0.00  0.00    +0.065 HD
ATOM     19  H   UNL     1      -2.296  13.541  24.243  0.00  0.00    +0.065 HD
BRANCH  10  20
ATOM     20  C   UNL     1      -3.796  12.259  19.954  0.00  0.00    -0.039 C 
ATOM     21  H   UNL     1      -4.370  12.764  19.169  0.00  0.00    +0.028 HD
ATOM     22  H   UNL     1      -4.196  11.246  20.065  0.00  0.00    +0.028 HD
ATOM     23  H   UNL     1      -2.759  12.209  19.605  0.00  0.00    +0.028 HD
ENDBRANCH  10  20
ENDBRANCH   1  16
BRANCH   5  24
ATOM     24  C   UNL     1       1.046  11.583  19.562  0.00  0.00    +0.242 C 
ATOM     25  N   UNL     1       0.744  10.763  18.513  0.00  0.00    -0.325 N 
ATOM     26  O   UNL     1       1.873  12.480  19.471  0.00  0.00    -0.270 OA
ATOM     27  H   UNL     1       1.176  10.983  17.624  0.00  0.00    +0.145 HD
ATOM     28  H   UNL     1      -0.090  10.190  18.499  0.00  0.00    +0.145 HD
ENDBRANCH   5  24
BRANCH   4  29
ATOM     29  C   UNL     1       1.865   9.569  21.651  0.00  0.00    +0.039 C 
ATOM     30  H   UNL     1       2.562   9.755  22.474  0.00  0.00    +0.051 HD
ATOM     31  H   UNL     1       2.372   9.800  20.707  0.00  0.00    +0.051 HD
BRANCH  29  32
ATOM     32  N   UNL     1       1.573   8.150  21.705  0.00  0.00    -0.295 N 
ATOM     33  C   UNL     1       1.659   7.409  20.554  0.00  0.00    +0.300 C 
ATOM     34  O   UNL     1       1.867   7.880  19.445  0.00  0.00    -0.253 OA
ATOM     35  N   UNL     1       1.476   6.079  20.809  0.00  0.00    -0.293 N 
ATOM     36  H   UNL     1       1.911   7.666  22.523  0.00  0.00    +0.151 HD
ATOM     37  H   UNL     1       0.943   5.851  21.635  0.00  0.00    +0.151 HD
BRANCH  35  38
ATOM     38  C   UNL     1       1.448   5.119  19.727  0.00  0.00    +0.050 C 
ATOM     39  C   UNL     1       0.849   3.759  20.144  0.00  0.00    -0.026 C 
ATOM     40  C   UNL     1       2.012   2.904  20.670  0.00  0.00    -0.025 C 
ATOM     41  C   UNL     1       3.162   3.456  19.887  0.00  0.00    -0.042 A 
ATOM     42  C   UNL     1       4.415   2.897  19.704  0.00  0.00    -0.058 A 
ATOM     43  C   UNL     1       5.356   3.613  18.960  0.00  0.00    -0.061 A 
ATOM     44  C   UNL     1       5.039   4.871  18.422  0.00  0.00    -0.061 A 
ATOM     45  C   UNL     1       3.776   5.431  18.623  0.00  0.00    -0.057 A 
ATOM     46  C   UNL     1       2.845   4.711  19.354  0.00  0.00    -0.024 A 
ATOM     47  H   UNL     1       0.897   5.535  18.876  0.00  0.00    +0.055 HD
ATOM     48  H   UNL     1       0.036   3.837  20.874  0.00  0.00    +0.029 HD
ATOM     49  H   UNL     1       0.434   3.268  19.252  0.00  0.00    +0.029 HD
ATOM     50  H   UNL     1       2.172   3.068  21.741  0.00  0.00    +0.031 HD
ATOM     51  H   UNL     1       1.845   1.841  20.474  0.00  0.00    +0.031 HD
ATOM     52  H   UNL     1       4.665   1.929  20.124  0.00  0.00    +0.062 HD
ATOM     53  H   UNL     1       6.346   3.194  18.797  0.00  0.00    +0.062 HD
ATOM     54  H   UNL     1       5.787   5.413  17.849  0.00  0.00    +0.062 HD
ATOM     55  H   UNL     1       3.534   6.409  18.216  0.00  0.00    +0.062 HD
ENDBRANCH  35  38
ENDBRANCH  29  32
ENDBRANCH   4  29
TORSDOF 6
ENDMDL
MODEL 24
REMARK VINA RESULT:    -8.072      2.108      3.103
REMARK INTER + INTRA:         -10.291
REMARK INTER:                  -9.693
REMARK INTRA:                  -0.598
REMARK UNBOUND:                 0.377
REMARK  Name = 
REMARK  6 active torsions:
REMARK  status: ('A' for Active; 'I' for Inactive)
REMARK    1  A    between atoms: C_1  and  C_2
REMARK    2  A    between atoms: C_8  and  C_9
REMARK    3  A    between atoms: C_12  and  C_13
REMARK    4  A    between atoms: C_13  and  N_14
REMARK    5  A    between atoms: N_17  and  C_18
REMARK    6  A    between atoms: C_27  and  C_28
REMARK                            x       y       z     vdW  Elec       q    Type
REMARK                         _______ _______ _______ _____ _____    ______ ____
ROOT
ATOM      1  C   UNL     1       0.264  11.972  20.820  0.00  0.00    -0.017 A 
ATOM      2  C   UNL     1       0.657  12.231  19.501  0.00  0.00    -0.054 A 
ATOM      3  C   UNL     1       0.996  11.188  18.632  0.00  0.00    -0.056 A 
ATOM      4  C   UNL     1       0.946   9.847  19.052  0.00  0.00    -0.018 A 
ATOM      5  C   UNL     1       0.610   9.594  20.395  0.00  0.00    +0.042 A 
ATOM      6  C   UNL     1       0.251  10.641  21.258  0.00  0.00    -0.042 A 
ATOM      7  H   UNL     1       0.691  13.256  19.134  0.00  0.00    +0.062 HD
ATOM      8  H   UNL     1       1.292  11.433  17.614  0.00  0.00    +0.062 HD
ATOM      9  H   UNL     1      -0.030  10.413  22.286  0.00  0.00    +0.063 HD
ENDROOT
BRANCH   1  16
ATOM     10  C   UNL     1       0.683  14.241  21.858  0.00  0.00    -0.043 A 
ATOM     11  C   UNL     1       0.265  15.266  22.727  0.00  0.00    -0.056 A 
ATOM     12  C   UNL     1      -0.903  15.133  23.474  0.00  0.00    -0.026 A 
ATOM     13  C   UNL     1      -1.661  13.980  23.351  0.00  0.00    +0.124 A 
ATOM     14  F   UNL     1      -2.785  13.850  24.068  0.00  0.00    -0.205 F 
ATOM     15  C   UNL     1      -1.276  12.958  22.491  0.00  0.00    -0.018 A 
ATOM     16  C   UNL     1      -0.102  13.071  21.726  0.00  0.00    -0.012 A 
ATOM     17  H   UNL     1       0.855  16.176  22.828  0.00  0.00    +0.062 HD
ATOM     18  H   UNL     1      -1.225  15.921  24.148  0.00  0.00    +0.065 HD
ATOM     19  H   UNL     1      -1.906  12.075  22.418  0.00  0.00    +0.065 HD
BRANCH  10  20
ATOM     20  C   UNL     1       1.954  14.436  21.070  0.00  0.00    -0.039 C 
ATOM     21  H   UNL     1       1.738  14.690  20.026  0.00  0.00    +0.028 HD
ATOM     22  H   UNL     1       2.549  13.518  21.078  0.00  0.00    +0.028 HD
ATOM     23  H   UNL     1       2.546  15.261  21.481  0.00  0.00    +0.028 HD
ENDBRANCH  10  20
ENDBRANCH   1  16
BRANCH   5  24
ATOM     24  C   UNL     1       0.608   8.235  20.981  0.00  0.00    +0.242 C 
ATOM     25  N   UNL     1       1.832   7.696  21.256  0.00  0.00    -0.325 N 
ATOM     26  O   UNL     1      -0.435   7.657  21.253  0.00  0.00    -0.270 OA
ATOM     27  H   UNL     1       1.840   6.826  21.774  0.00  0.00    +0.145 HD
ATOM     28  H   UNL     1       2.678   8.251  21.260  0.00  0.00    +0.145 HD
ENDBRANCH   5  24
BRANCH   4  29
ATOM     29  C   UNL     1       1.276   8.736  18.083  0.00  0.00    +0.039 C 
ATOM     30  H   UNL     1       1.095   9.038  17.047  0.00  0.00    +0.051 HD
ATOM     31  H   UNL     1       0.652   7.863  18.305  0.00  0.00    +0.051 HD
BRANCH  29  32
ATOM     32  N   UNL     1       2.673   8.356  18.137  0.00  0.00    -0.295 N 
ATOM     33  C   UNL     1       2.998   7.025  18.195  0.00  0.00    +0.300 C 
ATOM     34  O   UNL     1       2.183   6.121  18.310  0.00  0.00    -0.253 OA
ATOM     35  N   UNL     1       4.351   6.842  18.112  0.00  0.00    -0.293 N 
ATOM     36  H   UNL     1       3.296   8.898  17.557  0.00  0.00    +0.151 HD
ATOM     37  H   UNL     1       4.925   7.617  18.408  0.00  0.00    +0.151 HD
BRANCH  35  38
ATOM     38  C   UNL     1       4.924   5.520  18.231  0.00  0.00    +0.050 C 
ATOM     39  C   UNL     1       6.197   5.491  19.104  0.00  0.00    -0.026 C 
ATOM     40  C   UNL     1       7.385   5.756  18.166  0.00  0.00    -0.025 C 
ATOM     41  C   UNL     1       6.871   5.202  16.875  0.00  0.00    -0.042 A 
ATOM     42  C   UNL     1       7.592   4.884  15.737  0.00  0.00    -0.058 A 
ATOM     43  C   UNL     1       6.894   4.412  14.623  0.00  0.00    -0.061 A 
ATOM     44  C   UNL     1       5.497   4.276  14.655  0.00  0.00    -0.061 A 
ATOM     45  C   UNL     1       4.777   4.611  15.804  0.00  0.00    -0.057 A 
ATOM     46  C   UNL     1       5.477   5.069  16.909  0.00  0.00    -0.024 A 
ATOM     47  H   UNL     1       4.174   4.824  18.624  0.00  0.00    +0.055 HD
ATOM     48  H   UNL     1       6.174   6.194  19.944  0.00  0.00    +0.029 HD
ATOM     49  H   UNL     1       6.309   4.483  19.530  0.00  0.00    +0.029 HD
ATOM     50  H   UNL     1       7.578   6.830  18.065  0.00  0.00    +0.031 HD
ATOM     51  H   UNL     1       8.286   5.243  18.512  0.00  0.00    +0.031 HD
ATOM     52  H   UNL     1       8.670   4.995  15.706  0.00  0.00    +0.062 HD
ATOM     53  H   UNL     1       7.437   4.150  13.718  0.00  0.00    +0.062 HD
ATOM     54  H   UNL     1       4.972   3.910  13.776  0.00  0.00    +0.062 HD
ATOM     55  H   UNL     1       3.696   4.516  15.826  0.00  0.00    +0.062 HD
ENDBRANCH  35  38
ENDBRANCH  29  32
ENDBRANCH   4  29
TORSDOF 6
ENDMDL
MODEL 25
REMARK VINA RESULT:    -8.040      2.499      2.783
REMARK INTER + INTRA:         -10.248
REMARK INTER:                  -9.849
REMARK INTRA:                  -0.399
REMARK UNBOUND:                 0.377
REMARK  Name = 
REMARK  6 active torsions:
REMARK  status: ('A' for Active; 'I' for Inactive)
REMARK    1  A    between atoms: C_1  and  C_2
REMARK    2  A    between atoms: C_8  and  C_9
REMARK    3  A    between atoms: C_12  and  C_13
REMARK    4  A    between atoms: C_13  and  N_14
REMARK    5  A    between atoms: N_17  and  C_18
REMARK    6  A    between atoms: C_27  and  C_28
REMARK                            x       y       z     vdW  Elec       q    Type
REMARK                         _______ _______ _______ _____ _____    ______ ____
ROOT
ATOM      1  C   UNL     1      -0.970  11.452  22.326  0.00  0.00    -0.017 A 
ATOM      2  C   UNL     1      -0.296  10.430  23.005  0.00  0.00    -0.054 A 
ATOM      3  C   UNL     1       0.576   9.569  22.329  0.00  0.00    -0.056 A 
ATOM      4  C   UNL     1       0.809   9.707  20.950  0.00  0.00    -0.018 A 
ATOM      5  C   UNL     1       0.084  10.696  20.259  0.00  0.00    +0.042 A 
ATOM      6  C   UNL     1      -0.774  11.570  20.943  0.00  0.00    -0.042 A 
ATOM      7  H   UNL     1      -0.437  10.303  24.077  0.00  0.00    +0.062 HD
ATOM      8  H   UNL     1       1.083   8.790  22.896  0.00  0.00    +0.062 HD
ATOM      9  H   UNL     1      -1.303  12.343  20.387  0.00  0.00    +0.063 HD
ENDROOT
BRANCH   1  16
ATOM     10  C   UNL     1      -1.595  13.738  23.213  0.00  0.00    -0.043 A 
ATOM     11  C   UNL     1      -2.516  14.558  23.890  0.00  0.00    -0.056 A 
ATOM     12  C   UNL     1      -3.693  14.027  24.413  0.00  0.00    -0.026 A 
ATOM     13  C   UNL     1      -3.957  12.676  24.255  0.00  0.00    +0.124 A 
ATOM     14  F   UNL     1      -5.088  12.161  24.757  0.00  0.00    -0.205 F 
ATOM     15  C   UNL     1      -3.069  11.846  23.580  0.00  0.00    -0.018 A 
ATOM     16  C   UNL     1      -1.877  12.361  23.042  0.00  0.00    -0.012 A 
ATOM     17  H   UNL     1      -2.315  15.621  24.017  0.00  0.00    +0.062 HD
ATOM     18  H   UNL     1      -4.402  14.657  24.940  0.00  0.00    +0.065 HD
ATOM     19  H   UNL     1      -3.321  10.795  23.470  0.00  0.00    +0.065 HD
BRANCH  10  20
ATOM     20  C   UNL     1      -0.338  14.364  22.664  0.00  0.00    -0.039 C 
ATOM     21  H   UNL     1      -0.323  14.329  21.569  0.00  0.00    +0.028 HD
ATOM     22  H   UNL     1       0.543  13.828  23.031  0.00  0.00    +0.028 HD
ATOM     23  H   UNL     1      -0.271  15.420  22.948  0.00  0.00    +0.028 HD
ENDBRANCH  10  20
ENDBRANCH   1  16
BRANCH   5  24
ATOM     24  C   UNL     1       0.175  10.882  18.794  0.00  0.00    +0.242 C 
ATOM     25  N   UNL     1       1.090  11.796  18.358  0.00  0.00    -0.325 N 
ATOM     26  O   UNL     1      -0.496  10.212  18.021  0.00  0.00    -0.270 OA
ATOM     27  H   UNL     1       1.251  11.838  17.359  0.00  0.00    +0.145 HD
ATOM     28  H   UNL     1       1.807  12.173  18.964  0.00  0.00    +0.145 HD
ENDBRANCH   5  24
BRANCH   4  29
ATOM     29  C   UNL     1       1.788   8.792  20.251  0.00  0.00    +0.039 C 
ATOM     30  H   UNL     1       2.788   9.235  20.201  0.00  0.00    +0.051 HD
ATOM     31  H   UNL     1       1.441   8.601  19.229  0.00  0.00    +0.051 HD
BRANCH  29  32
ATOM     32  N   UNL     1       1.957   7.532  20.947  0.00  0.00    -0.295 N 
ATOM     33  C   UNL     1       1.472   6.386  20.372  0.00  0.00    +0.300 C 
ATOM     34  O   UNL     1       0.804   6.357  19.348  0.00  0.00    -0.253 OA
ATOM     35  N   UNL     1       1.827   5.282  21.097  0.00  0.00    -0.293 N 
ATOM     36  H   UNL     1       2.843   7.406  21.413  0.00  0.00    +0.151 HD
ATOM     37  H   UNL     1       2.017   5.432  22.076  0.00  0.00    +0.151 HD
BRANCH  35  38
ATOM     38  C   UNL     1       1.355   3.968  20.716  0.00  0.00    +0.050 C 
ATOM     39  C   UNL     1       1.672   2.886  21.771  0.00  0.00    -0.026 C 
ATOM     40  C   UNL     1       3.059   2.322  21.425  0.00  0.00    -0.025 C 
ATOM     41  C   UNL     1       3.098   2.521  19.942  0.00  0.00    -0.042 A 
ATOM     42  C   UNL     1       3.961   1.944  19.027  0.00  0.00    -0.058 A 
ATOM     43  C   UNL     1       3.840   2.306  17.684  0.00  0.00    -0.061 A 
ATOM     44  C   UNL     1       2.873   3.240  17.277  0.00  0.00    -0.061 A 
ATOM     45  C   UNL     1       2.015   3.826  18.210  0.00  0.00    -0.057 A 
ATOM     46  C   UNL     1       2.134   3.454  19.539  0.00  0.00    -0.024 A 
ATOM     47  H   UNL     1       0.279   4.004  20.516  0.00  0.00    +0.055 HD
ATOM     48  H   UNL     1       1.623   3.246  22.804  0.00  0.00    +0.029 HD
ATOM     49  H   UNL     1       0.935   2.076  21.676  0.00  0.00    +0.029 HD
ATOM     50  H   UNL     1       3.854   2.904  21.904  0.00  0.00    +0.031 HD
ATOM     51  H   UNL     1       3.142   1.269  21.708  0.00  0.00    +0.031 HD
ATOM     52  H   UNL     1       4.714   1.228  19.340  0.00  0.00    +0.062 HD
ATOM     53  H   UNL     1       4.503   1.864  16.944  0.00  0.00    +0.062 HD
ATOM     54  H   UNL     1       2.798   3.512  16.227  0.00  0.00    +0.062 HD
ATOM     55  H   UNL     1       1.275   4.556  17.898  0.00  0.00    +0.062 HD
ENDBRANCH  35  38
ENDBRANCH  29  32
ENDBRANCH   4  29
TORSDOF 6
ENDMDL
MODEL 26
REMARK VINA RESULT:    -7.989      2.650      4.044
REMARK INTER + INTRA:         -10.181
REMARK INTER:                  -9.168
REMARK INTRA:                  -1.013
REMARK UNBOUND:                 0.377
REMARK  Name = 
REMARK  6 active torsions:
REMARK  status: ('A' for Active; 'I' for Inactive)
REMARK    1  A    between atoms: C_1  and  C_2
REMARK    2  A    between atoms: C_8  and  C_9
REMARK    3  A    between atoms: C_12  and  C_13
REMARK    4  A    between atoms: C_13  and  N_14
REMARK    5  A    between atoms: N_17  and  C_18
REMARK    6  A    between atoms: C_27  and  C_28
REMARK                            x       y       z     vdW  Elec       q    Type
REMARK                         _______ _______ _______ _____ _____    ______ ____
ROOT
ATOM      1  C   UNL     1      -1.266  11.548  19.906  0.00  0.00    -0.017 A 
ATOM      2  C   UNL     1      -0.706  11.926  18.680  0.00  0.00    -0.054 A 
ATOM      3  C   UNL     1       0.409  11.258  18.160  0.00  0.00    -0.056 A 
ATOM      4  C   UNL     1       0.997  10.182  18.848  0.00  0.00    -0.018 A 
ATOM      5  C   UNL     1       0.469   9.844  20.107  0.00  0.00    +0.042 A 
ATOM      6  C   UNL     1      -0.661  10.502  20.617  0.00  0.00    -0.042 A 
ATOM      7  H   UNL     1      -1.144  12.744  18.110  0.00  0.00    +0.062 HD
ATOM      8  H   UNL     1       0.810  11.582  17.201  0.00  0.00    +0.062 HD
ATOM      9  H   UNL     1      -1.063  10.202  21.583  0.00  0.00    +0.063 HD
ENDROOT
BRANCH   1  16
ATOM     10  C   UNL     1      -3.679  12.293  19.753  0.00  0.00    -0.043 A 
ATOM     11  C   UNL     1      -4.775  12.959  20.332  0.00  0.00    -0.056 A 
ATOM     12  C   UNL     1      -4.651  13.591  21.568  0.00  0.00    -0.026 A 
ATOM     13  C   UNL     1      -3.436  13.553  22.233  0.00  0.00    +0.124 A 
ATOM     14  F   UNL     1      -3.314  14.160  23.421  0.00  0.00    -0.205 F 
ATOM     15  C   UNL     1      -2.341  12.892  21.687  0.00  0.00    -0.018 A 
ATOM     16  C   UNL     1      -2.443  12.245  20.443  0.00  0.00    -0.012 A 
ATOM     17  H   UNL     1      -5.733  12.992  19.817  0.00  0.00    +0.062 HD
ATOM     18  H   UNL     1      -5.494  14.109  22.015  0.00  0.00    +0.065 HD
ATOM     19  H   UNL     1      -1.410  12.878  22.247  0.00  0.00    +0.065 HD
BRANCH  10  20
ATOM     20  C   UNL     1      -3.867  11.623  18.416  0.00  0.00    -0.039 C 
ATOM     21  H   UNL     1      -3.218  10.746  18.317  0.00  0.00    +0.028 HD
ATOM     22  H   UNL     1      -3.620  12.318  17.607  0.00  0.00    +0.028 HD
ATOM     23  H   UNL     1      -4.897  11.271  18.296  0.00  0.00    +0.028 HD
ENDBRANCH  10  20
ENDBRANCH   1  16
BRANCH   5  24
ATOM     24  C   UNL     1       1.054   8.790  20.967  0.00  0.00    +0.242 C 
ATOM     25  N   UNL     1       1.851   9.220  21.989  0.00  0.00    -0.325 N 
ATOM     26  O   UNL     1       0.788   7.608  20.800  0.00  0.00    -0.270 OA
ATOM     27  H   UNL     1       2.149   8.521  22.658  0.00  0.00    +0.145 HD
ATOM     28  H   UNL     1       1.882  10.189  22.279  0.00  0.00    +0.145 HD
ENDBRANCH   5  24
BRANCH   4  29
ATOM     29  C   UNL     1       2.173   9.450  18.246  0.00  0.00    +0.039 C 
ATOM     30  H   UNL     1       3.006   9.376  18.952  0.00  0.00    +0.051 HD
ATOM     31  H   UNL     1       2.518   9.985  17.355  0.00  0.00    +0.051 HD
BRANCH  29  32
ATOM     32  N   UNL     1       1.846   8.083  17.890  0.00  0.00    -0.295 N 
ATOM     33  C   UNL     1       2.702   7.077  18.260  0.00  0.00    +0.300 C 
ATOM     34  O   UNL     1       3.790   7.257  18.787  0.00  0.00    -0.253 OA
ATOM     35  N   UNL     1       2.181   5.850  17.957  0.00  0.00    -0.293 N 
ATOM     36  H   UNL     1       0.872   7.833  17.967  0.00  0.00    +0.151 HD
ATOM     37  H   UNL     1       1.506   5.823  17.208  0.00  0.00    +0.151 HD
BRANCH  35  38
ATOM     38  C   UNL     1       2.949   4.647  18.189  0.00  0.00    +0.050 C 
ATOM     39  C   UNL     1       2.628   3.523  17.180  0.00  0.00    -0.026 C 
ATOM     40  C   UNL     1       1.465   2.713  17.772  0.00  0.00    -0.025 C 
ATOM     41  C   UNL     1       1.690   2.903  19.240  0.00  0.00    -0.042 A 
ATOM     42  C   UNL     1       1.146   2.177  20.286  0.00  0.00    -0.058 A 
ATOM     43  C   UNL     1       1.467   2.557  21.590  0.00  0.00    -0.061 A 
ATOM     44  C   UNL     1       2.310   3.654  21.832  0.00  0.00    -0.061 A 
ATOM     45  C   UNL     1       2.843   4.387  20.770  0.00  0.00    -0.057 A 
ATOM     46  C   UNL     1       2.528   3.998  19.478  0.00  0.00    -0.024 A 
ATOM     47  H   UNL     1       4.019   4.881  18.175  0.00  0.00    +0.055 HD
ATOM     48  H   UNL     1       2.403   3.885  16.171  0.00  0.00    +0.029 HD
ATOM     49  H   UNL     1       3.504   2.863  17.097  0.00  0.00    +0.029 HD
ATOM     50  H   UNL     1       0.498   3.138  17.481  0.00  0.00    +0.031 HD
ATOM     51  H   UNL     1       1.519   1.662  17.473  0.00  0.00    +0.031 HD
ATOM     52  H   UNL     1       0.489   1.334  20.102  0.00  0.00    +0.062 HD
ATOM     53  H   UNL     1       1.058   2.000  22.431  0.00  0.00    +0.062 HD
ATOM     54  H   UNL     1       2.545   3.936  22.855  0.00  0.00    +0.062 HD
ATOM     55  H   UNL     1       3.486   5.242  20.956  0.00  0.00    +0.062 HD
ENDBRANCH  35  38
ENDBRANCH  29  32
ENDBRANCH   4  29
TORSDOF 6
ENDMDL
MODEL 27
REMARK VINA RESULT:    -7.963      4.783      8.918
REMARK INTER + INTRA:         -10.147
REMARK INTER:                 -10.211
REMARK INTRA:                   0.064
REMARK UNBOUND:                 0.377
REMARK  Name = 
REMARK  6 active torsions:
REMARK  status: ('A' for Active; 'I' for Inactive)
REMARK    1  A    between atoms: C_1  and  C_2
REMARK    2  A    between atoms: C_8  and  C_9
REMARK    3  A    between atoms: C_12  and  C_13
REMARK    4  A    between atoms: C_13  and  N_14
REMARK    5  A    between atoms: N_17  and  C_18
REMARK    6  A    between atoms: C_27  and  C_28
REMARK                            x       y       z     vdW  Elec       q    Type
REMARK                         _______ _______ _______ _____ _____    ______ ____
ROOT
ATOM      1  C   UNL     1       2.289   7.083  18.398  0.00  0.00    -0.017 A 
ATOM      2  C   UNL     1       2.117   8.078  17.427  0.00  0.00    -0.054 A 
ATOM      3  C   UNL     1       1.578   9.325  17.761  0.00  0.00    -0.056 A 
ATOM      4  C   UNL     1       1.199   9.623  19.082  0.00  0.00    -0.018 A 
ATOM      5  C   UNL     1       1.317   8.601  20.042  0.00  0.00    +0.042 A 
ATOM      6  C   UNL     1       1.876   7.358  19.708  0.00  0.00    -0.042 A 
ATOM      7  H   UNL     1       2.416   7.890  16.396  0.00  0.00    +0.062 HD
ATOM      8  H   UNL     1       1.466  10.071  16.977  0.00  0.00    +0.062 HD
ATOM      9  H   UNL     1       1.978   6.594  20.478  0.00  0.00    +0.063 HD
ENDROOT
BRANCH   1  16
ATOM     10  C   UNL     1       4.192   5.636  17.568  0.00  0.00    -0.043 A 
ATOM     11  C   UNL     1       4.691   4.355  17.267  0.00  0.00    -0.056 A 
ATOM     12  C   UNL     1       3.887   3.226  17.413  0.00  0.00    -0.026 A 
ATOM     13  C   UNL     1       2.586   3.372  17.865  0.00  0.00    +0.124 A 
ATOM     14  F   UNL     1       1.811   2.288  18.006  0.00  0.00    -0.205 F 
ATOM     15  C   UNL     1       2.073   4.625  18.180  0.00  0.00    -0.018 A 
ATOM     16  C   UNL     1       2.866   5.778  18.043  0.00  0.00    -0.012 A 
ATOM     17  H   UNL     1       5.713   4.233  16.912  0.00  0.00    +0.062 HD
ATOM     18  H   UNL     1       4.269   2.238  17.177  0.00  0.00    +0.065 HD
ATOM     19  H   UNL     1       1.051   4.692  18.542  0.00  0.00    +0.065 HD
BRANCH  10  20
ATOM     20  C   UNL     1       5.104   6.824  17.396  0.00  0.00    -0.039 C 
ATOM     21  H   UNL     1       5.005   7.259  16.395  0.00  0.00    +0.028 HD
ATOM     22  H   UNL     1       6.148   6.523  17.531  0.00  0.00    +0.028 HD
ATOM     23  H   UNL     1       4.854   7.615  18.111  0.00  0.00    +0.028 HD
ENDBRANCH  10  20
ENDBRANCH   1  16
BRANCH   5  24
ATOM     24  C   UNL     1       0.870   8.760  21.444  0.00  0.00    +0.242 C 
ATOM     25  N   UNL     1      -0.376   8.286  21.738  0.00  0.00    -0.325 N 
ATOM     26  O   UNL     1       1.603   9.239  22.298  0.00  0.00    -0.270 OA
ATOM     27  H   UNL     1      -0.639   8.272  22.715  0.00  0.00    +0.145 HD
ATOM     28  H   UNL     1      -0.885   7.680  21.107  0.00  0.00    +0.145 HD
ENDBRANCH   5  24
BRANCH   4  29
ATOM     29  C   UNL     1       0.660  10.991  19.426  0.00  0.00    +0.039 C 
ATOM     30  H   UNL     1      -0.188  10.928  20.116  0.00  0.00    +0.051 HD
ATOM     31  H   UNL     1       0.327  11.492  18.511  0.00  0.00    +0.051 HD
BRANCH  29  32
ATOM     32  N   UNL     1       1.643  11.817  20.097  0.00  0.00    -0.295 N 
ATOM     33  C   UNL     1       1.950  13.045  19.570  0.00  0.00    +0.300 C 
ATOM     34  O   UNL     1       1.527  13.462  18.502  0.00  0.00    -0.253 OA
ATOM     35  N   UNL     1       2.795  13.738  20.392  0.00  0.00    -0.293 N 
ATOM     36  H   UNL     1       1.606  11.809  21.106  0.00  0.00    +0.151 HD
ATOM     37  H   UNL     1       3.370  13.186  21.010  0.00  0.00    +0.151 HD
BRANCH  35  38
ATOM     38  C   UNL     1       3.313  15.029  19.996  0.00  0.00    +0.050 C 
ATOM     39  C   UNL     1       3.267  15.255  18.470  0.00  0.00    -0.026 C 
ATOM     40  C   UNL     1       4.590  14.720  17.902  0.00  0.00    -0.025 C 
ATOM     41  C   UNL     1       5.514  14.926  19.061  0.00  0.00    -0.042 A 
ATOM     42  C   UNL     1       6.898  14.912  19.061  0.00  0.00    -0.058 A 
ATOM     43  C   UNL     1       7.561  15.090  20.277  0.00  0.00    -0.061 A 
ATOM     44  C   UNL     1       6.840  15.267  21.469  0.00  0.00    -0.061 A 
ATOM     45  C   UNL     1       5.443  15.267  21.460  0.00  0.00    -0.057 A 
ATOM     46  C   UNL     1       4.792  15.100  20.248  0.00  0.00    -0.024 A 
ATOM     47  H   UNL     1       2.767  15.824  20.517  0.00  0.00    +0.055 HD
ATOM     48  H   UNL     1       2.399  14.800  17.980  0.00  0.00    +0.029 HD
ATOM     49  H   UNL     1       3.217  16.336  18.274  0.00  0.00    +0.029 HD
ATOM     50  H   UNL     1       4.517  13.653  17.663  0.00  0.00    +0.031 HD
ATOM     51  H   UNL     1       4.899  15.282  17.016  0.00  0.00    +0.031 HD
ATOM     52  H   UNL     1       7.458  14.768  18.143  0.00  0.00    +0.062 HD
ATOM     53  H   UNL     1       8.648  15.089  20.304  0.00  0.00    +0.062 HD
ATOM     54  H   UNL     1       7.375  15.401  22.406  0.00  0.00    +0.062 HD
ATOM     55  H   UNL     1       4.885  15.393  22.383  0.00  0.00    +0.062 HD
ENDBRANCH  35  38
ENDBRANCH  29  32
ENDBRANCH   4  29
TORSDOF 6
ENDMDL
MODEL 28
REMARK VINA RESULT:    -7.948      4.149      5.386
REMARK INTER + INTRA:         -10.127
REMARK INTER:                 -10.578
REMARK INTRA:                   0.451
REMARK UNBOUND:                 0.377
REMARK  Name = 
REMARK  6 active torsions:
REMARK  status: ('A' for Active; 'I' for Inactive)
REMARK    1  A    between atoms: C_1  and  C_2
REMARK    2  A    between atoms: C_8  and  C_9
REMARK    3  A    between atoms: C_12  and  C_13
REMARK    4  A    between atoms: C_13  and  N_14
REMARK    5  A    between atoms: N_17  and  C_18
REMARK    6  A    between atoms: C_27  and  C_28
REMARK                            x       y       z     vdW  Elec       q    Type
REMARK                         _______ _______ _______ _____ _____    ______ ____
ROOT
ATOM      1  C   UNL     1      -1.315  10.365  18.604  0.00  0.00    -0.017 A 
ATOM      2  C   UNL     1      -0.053   9.940  18.171  0.00  0.00    -0.054 A 
ATOM      3  C   UNL     1       0.955   9.620  19.089  0.00  0.00    -0.056 A 
ATOM      4  C   UNL     1       0.730   9.708  20.474  0.00  0.00    -0.018 A 
ATOM      5  C   UNL     1      -0.519  10.194  20.904  0.00  0.00    +0.042 A 
ATOM      6  C   UNL     1      -1.533  10.494  19.982  0.00  0.00    -0.042 A 
ATOM      7  H   UNL     1       0.153   9.843  17.106  0.00  0.00    +0.062 HD
ATOM      8  H   UNL     1       1.920   9.290  18.709  0.00  0.00    +0.062 HD
ATOM      9  H   UNL     1      -2.499  10.844  20.346  0.00  0.00    +0.063 HD
ENDROOT
BRANCH   1  16
ATOM     10  C   UNL     1      -3.488  11.495  17.970  0.00  0.00    -0.043 A 
ATOM     11  C   UNL     1      -4.455  11.786  16.990  0.00  0.00    -0.056 A 
ATOM     12  C   UNL     1      -4.337  11.273  15.700  0.00  0.00    -0.026 A 
ATOM     13  C   UNL     1      -3.251  10.474  15.382  0.00  0.00    +0.124 A 
ATOM     14  F   UNL     1      -3.136   9.979  14.142  0.00  0.00    -0.205 F 
ATOM     15  C   UNL     1      -2.276  10.181  16.329  0.00  0.00    -0.018 A 
ATOM     16  C   UNL     1      -2.373  10.689  17.636  0.00  0.00    -0.012 A 
ATOM     17  H   UNL     1      -5.311  12.414  17.232  0.00  0.00    +0.062 HD
ATOM     18  H   UNL     1      -5.084  11.493  14.943  0.00  0.00    +0.065 HD
ATOM     19  H   UNL     1      -1.435   9.559  16.034  0.00  0.00    +0.065 HD
BRANCH  10  20
ATOM     20  C   UNL     1      -3.661  12.078  19.349  0.00  0.00    -0.039 C 
ATOM     21  H   UNL     1      -4.111  11.350  20.034  0.00  0.00    +0.028 HD
ATOM     22  H   UNL     1      -4.316  12.954  19.310  0.00  0.00    +0.028 HD
ATOM     23  H   UNL     1      -2.694  12.361  19.778  0.00  0.00    +0.028 HD
ENDBRANCH  10  20
ENDBRANCH   1  16
BRANCH   5  24
ATOM     24  C   UNL     1      -0.846  10.415  22.331  0.00  0.00    +0.242 C 
ATOM     25  N   UNL     1      -0.874   9.303  23.123  0.00  0.00    -0.325 N 
ATOM     26  O   UNL     1      -1.026  11.539  22.778  0.00  0.00    -0.270 OA
ATOM     27  H   UNL     1      -0.968   9.457  24.119  0.00  0.00    +0.145 HD
ATOM     28  H   UNL     1      -0.496   8.415  22.819  0.00  0.00    +0.145 HD
ENDBRANCH   5  24
BRANCH   4  29
ATOM     29  C   UNL     1       1.818   9.317  21.445  0.00  0.00    +0.039 C 
ATOM     30  H   UNL     1       1.447   9.283  22.474  0.00  0.00    +0.051 HD
ATOM     31  H   UNL     1       2.633  10.047  21.392  0.00  0.00    +0.051 HD
BRANCH  29  32
ATOM     32  N   UNL     1       2.342   7.992  21.180  0.00  0.00    -0.295 N 
ATOM     33  C   UNL     1       1.464   6.952  21.009  0.00  0.00    +0.300 C 
ATOM     34  O   UNL     1       0.255   7.038  21.168  0.00  0.00    -0.253 OA
ATOM     35  N   UNL     1       2.118   5.808  20.644  0.00  0.00    -0.293 N 
ATOM     36  H   UNL     1       3.139   7.953  20.561  0.00  0.00    +0.151 HD
ATOM     37  H   UNL     1       3.087   5.741  20.917  0.00  0.00    +0.151 HD
BRANCH  35  38
ATOM     38  C   UNL     1       1.396   4.565  20.486  0.00  0.00    +0.050 C 
ATOM     39  C   UNL     1       1.627   3.581  21.653  0.00  0.00    -0.026 C 
ATOM     40  C   UNL     1       2.856   2.737  21.285  0.00  0.00    -0.025 C 
ATOM     41  C   UNL     1       2.782   2.742  19.790  0.00  0.00    -0.042 A 
ATOM     42  C   UNL     1       3.440   1.910  18.901  0.00  0.00    -0.058 A 
ATOM     43  C   UNL     1       3.250   2.121  17.534  0.00  0.00    -0.061 A 
ATOM     44  C   UNL     1       2.421   3.157  17.076  0.00  0.00    -0.061 A 
ATOM     45  C   UNL     1       1.770   3.999  17.980  0.00  0.00    -0.057 A 
ATOM     46  C   UNL     1       1.956   3.778  19.336  0.00  0.00    -0.024 A 
ATOM     47  H   UNL     1       0.326   4.771  20.364  0.00  0.00    +0.055 HD
ATOM     48  H   UNL     1       1.742   4.068  22.627  0.00  0.00    +0.029 HD
ATOM     49  H   UNL     1       0.757   2.913  21.728  0.00  0.00    +0.029 HD
ATOM     50  H   UNL     1       3.782   3.220  21.617  0.00  0.00    +0.031 HD
ATOM     51  H   UNL     1       2.787   1.729  21.704  0.00  0.00    +0.031 HD
ATOM     52  H   UNL     1       4.087   1.113  19.252  0.00  0.00    +0.062 HD
ATOM     53  H   UNL     1       3.751   1.478  16.814  0.00  0.00    +0.062 HD
ATOM     54  H   UNL     1       2.289   3.307  16.007  0.00  0.00    +0.062 HD
ATOM     55  H   UNL     1       1.138   4.807  17.627  0.00  0.00    +0.062 HD
ENDBRANCH  35  38
ENDBRANCH  29  32
ENDBRANCH   4  29
TORSDOF 6
ENDMDL
MODEL 29
REMARK VINA RESULT:    -7.918      4.093      9.669
REMARK INTER + INTRA:         -10.088
REMARK INTER:                  -9.358
REMARK INTRA:                  -0.729
REMARK UNBOUND:                 0.377
REMARK  Name = 
REMARK  6 active torsions:
REMARK  status: ('A' for Active; 'I' for Inactive)
REMARK    1  A    between atoms: C_1  and  C_2
REMARK    2  A    between atoms: C_8  and  C_9
REMARK    3  A    between atoms: C_12  and  C_13
REMARK    4  A    between atoms: C_13  and  N_14
REMARK    5  A    between atoms: N_17  and  C_18
REMARK    6  A    between atoms: C_27  and  C_28
REMARK                            x       y       z     vdW  Elec       q    Type
REMARK                         _______ _______ _______ _____ _____    ______ ____
ROOT
ATOM      1  C   UNL     1       2.307   5.807  19.310  0.00  0.00    -0.017 A 
ATOM      2  C   UNL     1       2.242   5.963  20.700  0.00  0.00    -0.054 A 
ATOM      3  C   UNL     1       1.906   7.196  21.272  0.00  0.00    -0.056 A 
ATOM      4  C   UNL     1       1.615   8.313  20.470  0.00  0.00    -0.018 A 
ATOM      5  C   UNL     1       1.741   8.169  19.076  0.00  0.00    +0.042 A 
ATOM      6  C   UNL     1       2.058   6.927  18.505  0.00  0.00    -0.042 A 
ATOM      7  H   UNL     1       2.444   5.115  21.354  0.00  0.00    +0.062 HD
ATOM      8  H   UNL     1       1.863   7.272  22.357  0.00  0.00    +0.062 HD
ATOM      9  H   UNL     1       2.124   6.838  17.422  0.00  0.00    +0.063 HD
ENDROOT
BRANCH   1  16
ATOM     10  C   UNL     1       1.927   3.324  19.001  0.00  0.00    -0.043 A 
ATOM     11  C   UNL     1       2.294   2.116  18.380  0.00  0.00    -0.056 A 
ATOM     12  C   UNL     1       3.374   2.067  17.501  0.00  0.00    -0.026 A 
ATOM     13  C   UNL     1       4.087   3.225  17.234  0.00  0.00    +0.124 A 
ATOM     14  F   UNL     1       5.126   3.180  16.390  0.00  0.00    -0.205 F 
ATOM     15  C   UNL     1       3.738   4.433  17.826  0.00  0.00    -0.018 A 
ATOM     16  C   UNL     1       2.650   4.507  18.714  0.00  0.00    -0.012 A 
ATOM     17  H   UNL     1       1.737   1.203  18.584  0.00  0.00    +0.062 HD
ATOM     18  H   UNL     1       3.661   1.135  17.024  0.00  0.00    +0.065 HD
ATOM     19  H   UNL     1       4.317   5.319  17.581  0.00  0.00    +0.065 HD
BRANCH  10  20
ATOM     20  C   UNL     1       0.749   3.324  19.941  0.00  0.00    -0.039 C 
ATOM     21  H   UNL     1       1.022   2.914  20.920  0.00  0.00    +0.028 HD
ATOM     22  H   UNL     1      -0.061   2.710  19.533  0.00  0.00    +0.028 HD
ATOM     23  H   UNL     1       0.386   4.342  20.114  0.00  0.00    +0.028 HD
ENDBRANCH  10  20
ENDBRANCH   1  16
BRANCH   5  24
ATOM     24  C   UNL     1       1.548   9.292  18.131  0.00  0.00    +0.242 C 
ATOM     25  N   UNL     1       2.672   9.984  17.782  0.00  0.00    -0.325 N 
ATOM     26  O   UNL     1       0.451   9.543  17.652  0.00  0.00    -0.270 OA
ATOM     27  H   UNL     1       2.573  10.667  17.041  0.00  0.00    +0.145 HD
ATOM     28  H   UNL     1       3.602   9.639  17.980  0.00  0.00    +0.145 HD
ENDBRANCH   5  24
BRANCH   4  29
ATOM     29  C   UNL     1       1.213   9.621  21.110  0.00  0.00    +0.039 C 
ATOM     30  H   UNL     1       1.743  10.468  20.663  0.00  0.00    +0.051 HD
ATOM     31  H   UNL     1       1.447   9.590  22.180  0.00  0.00    +0.051 HD
BRANCH  29  32
ATOM     32  N   UNL     1      -0.196   9.910  20.933  0.00  0.00    -0.295 N 
ATOM     33  C   UNL     1      -0.562  11.014  20.207  0.00  0.00    +0.300 C 
ATOM     34  O   UNL     1       0.222  11.846  19.776  0.00  0.00    -0.253 OA
ATOM     35  N   UNL     1      -1.918  11.064  20.034  0.00  0.00    -0.293 N 
ATOM     36  H   UNL     1      -0.790   9.109  20.776  0.00  0.00    +0.151 HD
ATOM     37  H   UNL     1      -2.474  10.584  20.725  0.00  0.00    +0.151 HD
BRANCH  35  38
ATOM     38  C   UNL     1      -2.534  12.187  19.363  0.00  0.00    +0.050 C 
ATOM     39  C   UNL     1      -3.867  12.619  20.011  0.00  0.00    -0.026 C 
ATOM     40  C   UNL     1      -4.976  11.801  19.332  0.00  0.00    -0.025 C 
ATOM     41  C   UNL     1      -4.385  11.568  17.977  0.00  0.00    -0.042 A 
ATOM     42  C   UNL     1      -5.030  11.149  16.827  0.00  0.00    -0.058 A 
ATOM     43  C   UNL     1      -4.268  10.959  15.673  0.00  0.00    -0.061 A 
ATOM     44  C   UNL     1      -2.880  11.178  15.685  0.00  0.00    -0.061 A 
ATOM     45  C   UNL     1      -2.237  11.589  16.854  0.00  0.00    -0.057 A 
ATOM     46  C   UNL     1      -3.002  11.785  17.993  0.00  0.00    -0.024 A 
ATOM     47  H   UNL     1      -1.833  13.029  19.329  0.00  0.00    +0.055 HD
ATOM     48  H   UNL     1      -3.886  12.510  21.100  0.00  0.00    +0.029 HD
ATOM     49  H   UNL     1      -4.037  13.683  19.791  0.00  0.00    +0.029 HD
ATOM     50  H   UNL     1      -5.132  10.845  19.844  0.00  0.00    +0.031 HD
ATOM     51  H   UNL     1      -5.914  12.362  19.289  0.00  0.00    +0.031 HD
ATOM     52  H   UNL     1      -6.101  10.972  16.816  0.00  0.00    +0.062 HD
ATOM     53  H   UNL     1      -4.751  10.636  14.753  0.00  0.00    +0.062 HD
ATOM     54  H   UNL     1      -2.304  11.021  14.777  0.00  0.00    +0.062 HD
ATOM     55  H   UNL     1      -1.163  11.748  16.867  0.00  0.00    +0.062 HD
ENDBRANCH  35  38
ENDBRANCH  29  32
ENDBRANCH   4  29
TORSDOF 6
ENDMDL
MODEL 30
REMARK VINA RESULT:    -7.621      2.492      3.691
REMARK INTER + INTRA:          -9.695
REMARK INTER:                  -9.670
REMARK INTRA:                  -0.024
REMARK UNBOUND:                 0.377
REMARK  Name = 
REMARK  6 active torsions:
REMARK  status: ('A' for Active; 'I' for Inactive)
REMARK    1  A    between atoms: C_1  and  C_2
REMARK    2  A    between atoms: C_8  and  C_9
REMARK    3  A    between atoms: C_12  and  C_13
REMARK    4  A    between atoms: C_13  and  N_14
REMARK    5  A    between atoms: N_17  and  C_18
REMARK    6  A    between atoms: C_27  and  C_28
REMARK                            x       y       z     vdW  Elec       q    Type
REMARK                         _______ _______ _______ _____ _____    ______ ____
ROOT
ATOM      1  C   UNL     1      -1.891  12.730  21.717  0.00  0.00    -0.017 A 
ATOM      2  C   UNL     1      -1.420  13.236  20.499  0.00  0.00    -0.054 A 
ATOM      3  C   UNL     1      -0.509  12.512  19.721  0.00  0.00    -0.056 A 
ATOM      4  C   UNL     1      -0.043  11.251  20.133  0.00  0.00    -0.018 A 
ATOM      5  C   UNL     1      -0.471  10.772  21.386  0.00  0.00    +0.042 A 
ATOM      6  C   UNL     1      -1.400  11.492  22.153  0.00  0.00    -0.042 A 
ATOM      7  H   UNL     1      -1.771  14.202  20.138  0.00  0.00    +0.062 HD
ATOM      8  H   UNL     1      -0.172  12.940  18.779  0.00  0.00    +0.062 HD
ATOM      9  H   UNL     1      -1.733  11.085  23.108  0.00  0.00    +0.063 HD
ENDROOT
BRANCH   1  16
ATOM     10  C   UNL     1      -4.197  13.691  22.117  0.00  0.00    -0.043 A 
ATOM     11  C   UNL     1      -5.076  14.410  22.947  0.00  0.00    -0.056 A 
ATOM     12  C   UNL     1      -4.637  14.943  24.157  0.00  0.00    -0.026 A 
ATOM     13  C   UNL     1      -3.320  14.755  24.545  0.00  0.00    +0.124 A 
ATOM     14  F   UNL     1      -2.894  15.266  25.708  0.00  0.00    -0.205 F 
ATOM     15  C   UNL     1      -2.434  14.038  23.748  0.00  0.00    -0.018 A 
ATOM     16  C   UNL     1      -2.856  13.489  22.524  0.00  0.00    -0.012 A 
ATOM     17  H   UNL     1      -6.113  14.561  22.650  0.00  0.00    +0.062 HD
ATOM     18  H   UNL     1      -5.312  15.501  24.797  0.00  0.00    +0.065 HD
ATOM     19  H   UNL     1      -1.413  13.905  24.096  0.00  0.00    +0.065 HD
BRANCH  10  20
ATOM     20  C   UNL     1      -4.723  13.133  20.820  0.00  0.00    -0.039 C 
ATOM     21  H   UNL     1      -5.343  13.868  20.294  0.00  0.00    +0.028 HD
ATOM     22  H   UNL     1      -5.340  12.249  21.011  0.00  0.00    +0.028 HD
ATOM     23  H   UNL     1      -3.902  12.869  20.145  0.00  0.00    +0.028 HD
ENDBRANCH  10  20
ENDBRANCH   1  16
BRANCH   5  24
ATOM     24  C   UNL     1       0.015   9.502  21.970  0.00  0.00    +0.242 C 
ATOM     25  N   UNL     1       1.157   9.580  22.714  0.00  0.00    -0.325 N 
ATOM     26  O   UNL     1      -0.607   8.458  21.837  0.00  0.00    -0.270 OA
ATOM     27  H   UNL     1       1.426   8.747  23.222  0.00  0.00    +0.145 HD
ATOM     28  H   UNL     1       1.539  10.463  23.026  0.00  0.00    +0.145 HD
ENDBRANCH   5  24
BRANCH   4  29
ATOM     29  C   UNL     1       0.906  10.469  19.256  0.00  0.00    +0.039 C 
ATOM     30  H   UNL     1       1.945  10.780  19.410  0.00  0.00    +0.051 HD
ATOM     31  H   UNL     1       0.647  10.631  18.204  0.00  0.00    +0.051 HD
BRANCH  29  32
ATOM     32  N   UNL     1       0.880   9.049  19.546  0.00  0.00    -0.295 N 
ATOM     33  C   UNL     1       1.922   8.265  19.120  0.00  0.00    +0.300 C 
ATOM     34  O   UNL     1       2.837   8.660  18.413  0.00  0.00    -0.253 OA
ATOM     35  N   UNL     1       1.798   6.985  19.585  0.00  0.00    -0.293 N 
ATOM     36  H   UNL     1       0.531   8.796  20.458  0.00  0.00    +0.151 HD
ATOM     37  H   UNL     1       0.863   6.679  19.806  0.00  0.00    +0.151 HD
BRANCH  35  38
ATOM     38  C   UNL     1       2.745   5.965  19.194  0.00  0.00    +0.050 C 
ATOM     39  C   UNL     1       2.627   5.571  17.706  0.00  0.00    -0.026 C 
ATOM     40  C   UNL     1       1.600   4.432  17.628  0.00  0.00    -0.025 C 
ATOM     41  C   UNL     1       1.766   3.792  18.971  0.00  0.00    -0.042 A 
ATOM     42  C   UNL     1       1.329   2.544  19.381  0.00  0.00    -0.058 A 
ATOM     43  C   UNL     1       1.563   2.164  20.704  0.00  0.00    -0.061 A 
ATOM     44  C   UNL     1       2.214   3.031  21.596  0.00  0.00    -0.061 A 
ATOM     45  C   UNL     1       2.640   4.293  21.176  0.00  0.00    -0.057 A 
ATOM     46  C   UNL     1       2.413   4.660  19.859  0.00  0.00    -0.024 A 
ATOM     47  H   UNL     1       3.764   6.298  19.422  0.00  0.00    +0.055 HD
ATOM     48  H   UNL     1       2.363   6.405  17.046  0.00  0.00    +0.029 HD
ATOM     49  H   UNL     1       3.599   5.186  17.364  0.00  0.00    +0.029 HD
ATOM     50  H   UNL     1       0.582   4.823  17.521  0.00  0.00    +0.031 HD
ATOM     51  H   UNL     1       1.827   3.746  16.807  0.00  0.00    +0.031 HD
ATOM     52  H   UNL     1       0.819   1.875  18.696  0.00  0.00    +0.062 HD
ATOM     53  H   UNL     1       1.234   1.186  21.050  0.00  0.00    +0.062 HD
ATOM     54  H   UNL     1       2.383   2.717  22.623  0.00  0.00    +0.062 HD
ATOM     55  H   UNL     1       3.133   4.969  21.868  0.00  0.00    +0.062 HD
ENDBRANCH  35  38
ENDBRANCH  29  32
ENDBRANCH   4  29
TORSDOF 6
ENDMDL
MODEL 31
REMARK VINA RESULT:    -7.462      3.471      4.717
REMARK INTER + INTRA:          -9.485
REMARK INTER:                  -9.862
REMARK INTRA:                   0.377
REMARK UNBOUND:                 0.377
REMARK  Name = 
REMARK  6 active torsions:
REMARK  status: ('A' for Active; 'I' for Inactive)
REMARK    1  A    between atoms: C_1  and  C_2
REMARK    2  A    between atoms: C_8  and  C_9
REMARK    3  A    between atoms: C_12  and  C_13
REMARK    4  A    between atoms: C_13  and  N_14
REMARK    5  A    between atoms: N_17  and  C_18
REMARK    6  A    between atoms: C_27  and  C_28
REMARK                            x       y       z     vdW  Elec       q    Type
REMARK                         _______ _______ _______ _____ _____    ______ ____
ROOT
ATOM      1  C   UNL     1      -1.347  10.192  18.658  0.00  0.00    -0.017 A 
ATOM      2  C   UNL     1      -0.394   9.854  17.689  0.00  0.00    -0.054 A 
ATOM      3  C   UNL     1       0.788   9.192  18.040  0.00  0.00    -0.056 A 
ATOM      4  C   UNL     1       1.053   8.838  19.374  0.00  0.00    -0.018 A 
ATOM      5  C   UNL     1       0.123   9.232  20.353  0.00  0.00    +0.042 A 
ATOM      6  C   UNL     1      -1.071   9.878  19.996  0.00  0.00    -0.042 A 
ATOM      7  H   UNL     1      -0.573  10.097  16.642  0.00  0.00    +0.062 HD
ATOM      8  H   UNL     1       1.500   8.945  17.254  0.00  0.00    +0.062 HD
ATOM      9  H   UNL     1      -1.785  10.149  20.773  0.00  0.00    +0.063 HD
ENDROOT
BRANCH   1  16
ATOM     10  C   UNL     1      -3.228  10.670  17.035  0.00  0.00    -0.043 A 
ATOM     11  C   UNL     1      -4.430  11.342  16.747  0.00  0.00    -0.056 A 
ATOM     12  C   UNL     1      -4.991  12.225  17.667  0.00  0.00    -0.026 A 
ATOM     13  C   UNL     1      -4.357  12.435  18.881  0.00  0.00    +0.124 A 
ATOM     14  F   UNL     1      -4.894  13.284  19.768  0.00  0.00    -0.205 F 
ATOM     15  C   UNL     1      -3.175  11.775  19.195  0.00  0.00    -0.018 A 
ATOM     16  C   UNL     1      -2.592  10.878  18.283  0.00  0.00    -0.012 A 
ATOM     17  H   UNL     1      -4.935  11.182  15.795  0.00  0.00    +0.062 HD
ATOM     18  H   UNL     1      -5.916  12.748  17.445  0.00  0.00    +0.065 HD
ATOM     19  H   UNL     1      -2.717  11.961  20.163  0.00  0.00    +0.065 HD
BRANCH  10  20
ATOM     20  C   UNL     1      -2.666   9.723  16.006  0.00  0.00    -0.039 C 
ATOM     21  H   UNL     1      -1.966   9.013  16.461  0.00  0.00    +0.028 HD
ATOM     22  H   UNL     1      -2.126  10.281  15.234  0.00  0.00    +0.028 HD
ATOM     23  H   UNL     1      -3.462   9.132  15.543  0.00  0.00    +0.028 HD
ENDBRANCH  10  20
ENDBRANCH   1  16
BRANCH   5  24
ATOM     24  C   UNL     1       0.330   8.996  21.800  0.00  0.00    +0.242 C 
ATOM     25  N   UNL     1      -0.708   8.414  22.470  0.00  0.00    -0.325 N 
ATOM     26  O   UNL     1       1.393   9.259  22.345  0.00  0.00    -0.270 OA
ATOM     27  H   UNL     1      -0.530   8.131  23.426  0.00  0.00    +0.145 HD
ATOM     28  H   UNL     1      -1.484   7.979  21.990  0.00  0.00    +0.145 HD
ENDBRANCH   5  24
BRANCH   4  29
ATOM     29  C   UNL     1       2.316   8.085  19.722  0.00  0.00    +0.039 C 
ATOM     30  H   UNL     1       2.112   7.245  20.394  0.00  0.00    +0.051 HD
ATOM     31  H   UNL     1       3.019   8.764  20.217  0.00  0.00    +0.051 HD
BRANCH  29  32
ATOM     32  N   UNL     1       2.949   7.503  18.556  0.00  0.00    -0.295 N 
ATOM     33  C   UNL     1       3.618   6.313  18.687  0.00  0.00    +0.300 C 
ATOM     34  O   UNL     1       3.815   5.747  19.752  0.00  0.00    -0.253 OA
ATOM     35  N   UNL     1       4.042   5.848  17.473  0.00  0.00    -0.293 N 
ATOM     36  H   UNL     1       2.430   7.580  17.693  0.00  0.00    +0.151 HD
ATOM     37  H   UNL     1       4.176   6.540  16.752  0.00  0.00    +0.151 HD
BRANCH  35  38
ATOM     38  C   UNL     1       4.839   4.645  17.383  0.00  0.00    +0.050 C 
ATOM     39  C   UNL     1       6.106   4.694  18.264  0.00  0.00    -0.026 C 
ATOM     40  C   UNL     1       7.219   5.314  17.407  0.00  0.00    -0.025 C 
ATOM     41  C   UNL     1       6.798   4.901  16.031  0.00  0.00    -0.042 A 
ATOM     42  C   UNL     1       7.552   4.908  14.871  0.00  0.00    -0.058 A 
ATOM     43  C   UNL     1       6.938   4.513  13.681  0.00  0.00    -0.061 A 
ATOM     44  C   UNL     1       5.587   4.131  13.662  0.00  0.00    -0.061 A 
ATOM     45  C   UNL     1       4.831   4.140  14.836  0.00  0.00    -0.057 A 
ATOM     46  C   UNL     1       5.450   4.523  16.016  0.00  0.00    -0.024 A 
ATOM     47  H   UNL     1       4.226   3.774  17.640  0.00  0.00    +0.055 HD
ATOM     48  H   UNL     1       5.968   5.233  19.208  0.00  0.00    +0.029 HD
ATOM     49  H   UNL     1       6.397   3.665  18.520  0.00  0.00    +0.029 HD
ATOM     50  H   UNL     1       7.220   6.407  17.488  0.00  0.00    +0.031 HD
ATOM     51  H   UNL     1       8.200   4.916  17.681  0.00  0.00    +0.031 HD
ATOM     52  H   UNL     1       8.594   5.209  14.880  0.00  0.00    +0.062 HD
ATOM     53  H   UNL     1       7.510   4.504  12.755  0.00  0.00    +0.062 HD
ATOM     54  H   UNL     1       5.126   3.831  12.725  0.00  0.00    +0.062 HD
ATOM     55  H   UNL     1       3.783   3.856  14.822  0.00  0.00    +0.062 HD
ENDBRANCH  35  38
ENDBRANCH  29  32
ENDBRANCH   4  29
TORSDOF 6
ENDMDL
MODEL 32
REMARK VINA RESULT:    -7.382      3.952     10.056
REMARK INTER + INTRA:          -9.379
REMARK INTER:                  -9.691
REMARK INTRA:                   0.312
REMARK UNBOUND:                 0.377
REMARK  Name = 
REMARK  6 active torsions:
REMARK  status: ('A' for Active; 'I' for Inactive)
REMARK    1  A    between atoms: C_1  and  C_2
REMARK    2  A    between atoms: C_8  and  C_9
REMARK    3  A    between atoms: C_12  and  C_13
REMARK    4  A    between atoms: C_13  and  N_14
REMARK    5  A    between atoms: N_17  and  C_18
REMARK    6  A    between atoms: C_27  and  C_28
REMARK                            x       y       z     vdW  Elec       q    Type
REMARK                         _______ _______ _______ _____ _____    ______ ____
ROOT
ATOM      1  C   UNL     1       4.391   5.904  17.521  0.00  0.00    -0.017 A 
ATOM      2  C   UNL     1       4.330   5.252  18.759  0.00  0.00    -0.054 A 
ATOM      3  C   UNL     1       3.437   5.673  19.752  0.00  0.00    -0.056 A 
ATOM      4  C   UNL     1       2.569   6.757  19.537  0.00  0.00    -0.018 A 
ATOM      5  C   UNL     1       2.676   7.448  18.315  0.00  0.00    +0.042 A 
ATOM      6  C   UNL     1       3.558   7.012  17.314  0.00  0.00    -0.042 A 
ATOM      7  H   UNL     1       4.975   4.397  18.956  0.00  0.00    +0.062 HD
ATOM      8  H   UNL     1       3.419   5.135  20.698  0.00  0.00    +0.062 HD
ATOM      9  H   UNL     1       3.601   7.551  16.369  0.00  0.00    +0.063 HD
ENDROOT
BRANCH   1  16
ATOM     10  C   UNL     1       6.718   5.680  16.553  0.00  0.00    -0.043 A 
ATOM     11  C   UNL     1       7.558   5.201  15.531  0.00  0.00    -0.056 A 
ATOM     12  C   UNL     1       7.029   4.523  14.434  0.00  0.00    -0.026 A 
ATOM     13  C   UNL     1       5.661   4.316  14.358  0.00  0.00    +0.124 A 
ATOM     14  F   UNL     1       5.150   3.664  13.305  0.00  0.00    -0.205 F 
ATOM     15  C   UNL     1       4.811   4.768  15.361  0.00  0.00    -0.018 A 
ATOM     16  C   UNL     1       5.323   5.452  16.478  0.00  0.00    -0.012 A 
ATOM     17  H   UNL     1       8.634   5.360  15.584  0.00  0.00    +0.062 HD
ATOM     18  H   UNL     1       7.675   4.157  13.642  0.00  0.00    +0.065 HD
ATOM     19  H   UNL     1       3.746   4.574  15.266  0.00  0.00    +0.065 HD
BRANCH  10  20
ATOM     20  C   UNL     1       7.341   6.404  17.719  0.00  0.00    -0.039 C 
ATOM     21  H   UNL     1       7.287   7.490  17.587  0.00  0.00    +0.028 HD
ATOM     22  H   UNL     1       8.396   6.128  17.815  0.00  0.00    +0.028 HD
ATOM     23  H   UNL     1       6.814   6.171  18.651  0.00  0.00    +0.028 HD
ENDBRANCH  10  20
ENDBRANCH   1  16
BRANCH   5  24
ATOM     24  C   UNL     1       1.881   8.657  18.004  0.00  0.00    +0.242 C 
ATOM     25  N   UNL     1       2.533   9.852  18.115  0.00  0.00    -0.325 N 
ATOM     26  O   UNL     1       0.724   8.579  17.615  0.00  0.00    -0.270 OA
ATOM     27  H   UNL     1       2.041  10.671  17.781  0.00  0.00    +0.145 HD
ATOM     28  H   UNL     1       3.539   9.911  18.199  0.00  0.00    +0.145 HD
ENDBRANCH   5  24
BRANCH   4  29
ATOM     29  C   UNL     1       1.585   7.165  20.607  0.00  0.00    +0.039 C 
ATOM     30  H   UNL     1       2.085   7.358  21.562  0.00  0.00    +0.051 HD
ATOM     31  H   UNL     1       0.854   6.362  20.754  0.00  0.00    +0.051 HD
BRANCH  29  32
ATOM     32  N   UNL     1       0.892   8.394  20.278  0.00  0.00    -0.295 N 
ATOM     33  C   UNL     1       0.833   9.395  21.213  0.00  0.00    +0.300 C 
ATOM     34  O   UNL     1       1.238   9.290  22.362  0.00  0.00    -0.253 OA
ATOM     35  N   UNL     1       0.257  10.522  20.695  0.00  0.00    -0.293 N 
ATOM     36  H   UNL     1       1.022   8.730  19.335  0.00  0.00    +0.151 HD
ATOM     37  H   UNL     1      -0.370  10.386  19.917  0.00  0.00    +0.151 HD
BRANCH  35  38
ATOM     38  C   UNL     1       0.021  11.679  21.530  0.00  0.00    +0.050 C 
ATOM     39  C   UNL     1      -1.479  11.966  21.754  0.00  0.00    -0.026 C 
ATOM     40  C   UNL     1      -1.930  12.888  20.611  0.00  0.00    -0.025 C 
ATOM     41  C   UNL     1      -0.660  13.616  20.301  0.00  0.00    -0.042 A 
ATOM     42  C   UNL     1      -0.502  14.780  19.568  0.00  0.00    -0.058 A 
ATOM     43  C   UNL     1       0.792  15.266  19.370  0.00  0.00    -0.061 A 
ATOM     44  C   UNL     1       1.903  14.583  19.891  0.00  0.00    -0.061 A 
ATOM     45  C   UNL     1       1.734  13.403  20.618  0.00  0.00    -0.057 A 
ATOM     46  C   UNL     1       0.446  12.932  20.819  0.00  0.00    -0.024 A 
ATOM     47  H   UNL     1       0.535  11.554  22.490  0.00  0.00    +0.055 HD
ATOM     48  H   UNL     1      -2.098  11.064  21.820  0.00  0.00    +0.029 HD
ATOM     49  H   UNL     1      -1.597  12.507  22.704  0.00  0.00    +0.029 HD
ATOM     50  H   UNL     1      -2.255  12.309  19.740  0.00  0.00    +0.031 HD
ATOM     51  H   UNL     1      -2.730  13.560  20.935  0.00  0.00    +0.031 HD
ATOM     52  H   UNL     1      -1.358  15.306  19.159  0.00  0.00    +0.062 HD
ATOM     53  H   UNL     1       0.943  16.182  18.803  0.00  0.00    +0.062 HD
ATOM     54  H   UNL     1       2.902  14.976  19.722  0.00  0.00    +0.062 HD
ATOM     55  H   UNL     1       2.593  12.869  21.011  0.00  0.00    +0.062 HD
ENDBRANCH  35  38
ENDBRANCH  29  32
ENDBRANCH   4  29
TORSDOF 6
ENDMDL
