MODEL 1
REMARK VINA RESULT:    -8.222      0.000      0.000
REMARK INTER + INTRA:         -13.003
REMARK INTER:                 -12.095
REMARK INTRA:                  -0.908
REMARK UNBOUND:                -0.695
REMARK  Name = 
REMARK  9 active torsions:
REMARK  status: ('A' for Active; 'I' for Inactive)
REMARK    1  A    between atoms: C_1  and  C_2
REMARK    2  A    between atoms: C_2  and  C_3
REMARK    3  A    between atoms: C_2  and  O_10
REMARK    4  A    between atoms: C_3  and  C_4
REMARK    5  A    between atoms: O_10  and  C_11
REMARK    6  A    between atoms: C_14  and  C_15
REMARK    7  A    between atoms: C_15  and  N_16
REMARK    8  A    between atoms: N_19  and  C_20
REMARK    9  A    between atoms: C_29  and  C_30
REMARK                            x       y       z     vdW  Elec       q    Type
REMARK                         _______ _______ _______ _____ _____    ______ ____
ROOT
ATOM      1  C   UNL     1       3.139   6.843  18.770  0.00  0.00    +0.122 A 
ATOM      2  C   UNL     1       2.977   7.723  17.689  0.00  0.00    -0.020 A 
ATOM      3  C   UNL     1       2.038   8.758  17.743  0.00  0.00    -0.053 A 
ATOM      4  C   UNL     1       1.259   8.945  18.901  0.00  0.00    -0.018 A 
ATOM      5  C   UNL     1       1.477   8.094  20.007  0.00  0.00    +0.045 A 
ATOM      6  C   UNL     1       2.396   7.037  19.934  0.00  0.00    -0.008 A 
ATOM      7  H   UNL     1       3.600   7.612  16.800  0.00  0.00    +0.065 HD
ATOM      8  H   UNL     1       1.937   9.438  16.889  0.00  0.00    +0.062 HD
ATOM      9  H   UNL     1       2.566   6.429  20.820  0.00  0.00    +0.066 HD
ENDROOT
BRANCH   5  10
ATOM     10  C   UNL     1       0.833   8.365  21.313  0.00  0.00    +0.242 C 
ATOM     11  N   UNL     1       1.649   8.854  22.292  0.00  0.00    -0.325 N 
ATOM     12  O   UNL     1      -0.360   8.157  21.477  0.00  0.00    -0.270 OA
ATOM     13  H   UNL     1       1.240   8.910  23.215  0.00  0.00    +0.145 HD
ATOM     14  H   UNL     1       2.649   8.769  22.226  0.00  0.00    +0.145 HD
ENDBRANCH   5  10
BRANCH   4  15
ATOM     15  C   UNL     1       0.253  10.065  18.946  0.00  0.00    +0.039 C 
ATOM     16  H   UNL     1       0.403  10.734  18.088  0.00  0.00    +0.051 HD
ATOM     17  H   UNL     1      -0.772   9.689  18.862  0.00  0.00    +0.051 HD
BRANCH  15  18
ATOM     18  N   UNL     1       0.379  10.823  20.165  0.00  0.00    -0.295 N 
ATOM     19  C   UNL     1      -0.500  11.843  20.409  0.00  0.00    +0.300 C 
ATOM     20  O   UNL     1      -1.347  12.232  19.615  0.00  0.00    -0.253 OA
ATOM     21  N   UNL     1      -0.280  12.396  21.640  0.00  0.00    -0.293 N 
ATOM     22  H   UNL     1       0.625  10.278  20.992  0.00  0.00    +0.151 HD
ATOM     23  H   UNL     1       0.676  12.323  21.975  0.00  0.00    +0.151 HD
BRANCH  21  24
ATOM     24  C   UNL     1      -0.993  13.590  22.032  0.00  0.00    +0.050 C 
ATOM     25  C   UNL     1      -0.138  14.538  22.906  0.00  0.00    -0.026 C 
ATOM     26  C   UNL     1      -1.109  15.267  23.843  0.00  0.00    -0.025 C 
ATOM     27  C   UNL     1      -2.193  14.246  23.996  0.00  0.00    -0.042 A 
ATOM     28  C   UNL     1      -3.187  14.198  24.963  0.00  0.00    -0.058 A 
ATOM     29  C   UNL     1      -4.135  13.172  24.897  0.00  0.00    -0.061 A 
ATOM     30  C   UNL     1      -4.086  12.222  23.862  0.00  0.00    -0.061 A 
ATOM     31  C   UNL     1      -3.088  12.288  22.882  0.00  0.00    -0.057 A 
ATOM     32  C   UNL     1      -2.137  13.298  22.966  0.00  0.00    -0.024 A 
ATOM     33  H   UNL     1      -1.357  14.115  21.140  0.00  0.00    +0.055 HD
ATOM     34  H   UNL     1       0.457  15.236  22.305  0.00  0.00    +0.029 HD
ATOM     35  H   UNL     1       0.577  13.960  23.511  0.00  0.00    +0.029 HD
ATOM     36  H   UNL     1      -0.627  15.520  24.793  0.00  0.00    +0.031 HD
ATOM     37  H   UNL     1      -1.507  16.172  23.373  0.00  0.00    +0.031 HD
ATOM     38  H   UNL     1      -3.231  14.938  25.755  0.00  0.00    +0.062 HD
ATOM     39  H   UNL     1      -4.919  13.110  25.651  0.00  0.00    +0.062 HD
ATOM     40  H   UNL     1      -4.837  11.435  23.819  0.00  0.00    +0.062 HD
ATOM     41  H   UNL     1      -3.063  11.566  22.069  0.00  0.00    +0.062 HD
ENDBRANCH  21  24
ENDBRANCH  15  18
ENDBRANCH   4  15
BRANCH   1  42
ATOM     42  O   UNL     1       4.116   5.902  18.614  0.00  0.00    -0.489 OA
BRANCH  42  43
ATOM     43  C   UNL     1       4.095   5.099  17.429  0.00  0.00    +0.101 C 
ATOM     44  H   UNL     1       3.340   5.470  16.724  0.00  0.00    +0.073 HD
BRANCH  43  45
ATOM     45  C   UNL     1       5.451   5.276  16.749  0.00  0.00    -0.027 C 
ATOM     46  H   UNL     1       5.660   6.340  16.613  0.00  0.00    +0.027 HD
ATOM     47  H   UNL     1       5.477   4.792  15.772  0.00  0.00    +0.027 HD
ATOM     48  H   UNL     1       6.271   4.886  17.364  0.00  0.00    +0.027 HD
ENDBRANCH  43  45
BRANCH  43  49
ATOM     49  C   UNL     1       3.798   3.623  17.747  0.00  0.00    +0.009 C 
ATOM     50  H   UNL     1       4.756   3.105  17.881  0.00  0.00    +0.035 HD
ATOM     51  H   UNL     1       3.322   3.147  16.887  0.00  0.00    +0.035 HD
BRANCH  49  52
ATOM     52  C   UNL     1       2.911   3.358  18.942  0.00  0.00    -0.044 A 
ATOM     53  C   UNL     1       1.514   3.528  18.850  0.00  0.00    -0.058 A 
ATOM     54  C   UNL     1       0.698   3.292  19.959  0.00  0.00    -0.061 A 
ATOM     55  C   UNL     1       1.266   2.881  21.172  0.00  0.00    -0.062 A 
ATOM     56  C   UNL     1       2.654   2.710  21.277  0.00  0.00    -0.061 A 
ATOM     57  C   UNL     1       3.470   2.952  20.171  0.00  0.00    -0.058 A 
ATOM     58  H   UNL     1       1.043   3.849  17.915  0.00  0.00    +0.062 HD
ATOM     59  H   UNL     1      -0.383   3.432  19.866  0.00  0.00    +0.062 HD
ATOM     60  H   UNL     1       0.631   2.691  22.031  0.00  0.00    +0.062 HD
ATOM     61  H   UNL     1       3.106   2.387  22.220  0.00  0.00    +0.062 HD
ATOM     62  H   UNL     1       4.548   2.818  20.276  0.00  0.00    +0.062 HD
ENDBRANCH  49  52
ENDBRANCH  43  49
ENDBRANCH  42  43
ENDBRANCH   1  42
TORSDOF 9
ENDMDL
MODEL 2
REMARK VINA RESULT:    -8.089      2.502      4.965
REMARK INTER + INTRA:         -12.804
REMARK INTER:                 -11.661
REMARK INTRA:                  -1.143
REMARK UNBOUND:                -0.695
REMARK  Name = 
REMARK  9 active torsions:
REMARK  status: ('A' for Active; 'I' for Inactive)
REMARK    1  A    between atoms: C_1  and  C_2
REMARK    2  A    between atoms: C_2  and  C_3
REMARK    3  A    between atoms: C_2  and  O_10
REMARK    4  A    between atoms: C_3  and  C_4
REMARK    5  A    between atoms: O_10  and  C_11
REMARK    6  A    between atoms: C_14  and  C_15
REMARK    7  A    between atoms: C_15  and  N_16
REMARK    8  A    between atoms: N_19  and  C_20
REMARK    9  A    between atoms: C_29  and  C_30
REMARK                            x       y       z     vdW  Elec       q    Type
REMARK                         _______ _______ _______ _____ _____    ______ ____
ROOT
ATOM      1  C   UNL     1       4.037   5.248  17.024  0.00  0.00    +0.122 A 
ATOM      2  C   UNL     1       3.809   6.491  17.633  0.00  0.00    -0.020 A 
ATOM      3  C   UNL     1       3.120   6.577  18.847  0.00  0.00    -0.053 A 
ATOM      4  C   UNL     1       2.669   5.407  19.488  0.00  0.00    -0.018 A 
ATOM      5  C   UNL     1       2.962   4.158  18.899  0.00  0.00    +0.045 A 
ATOM      6  C   UNL     1       3.624   4.080  17.664  0.00  0.00    -0.008 A 
ATOM      7  H   UNL     1       4.185   7.403  17.165  0.00  0.00    +0.065 HD
ATOM      8  H   UNL     1       2.963   7.560  19.308  0.00  0.00    +0.062 HD
ATOM      9  H   UNL     1       3.868   3.099  17.262  0.00  0.00    +0.066 HD
ENDROOT
BRANCH   5  10
ATOM     10  C   UNL     1       2.690   2.894  19.621  0.00  0.00    +0.242 C 
ATOM     11  N   UNL     1       1.540   2.245  19.278  0.00  0.00    -0.325 N 
ATOM     12  O   UNL     1       3.466   2.479  20.468  0.00  0.00    -0.270 OA
ATOM     13  H   UNL     1       1.289   1.459  19.864  0.00  0.00    +0.145 HD
ATOM     14  H   UNL     1       0.800   2.720  18.789  0.00  0.00    +0.145 HD
ENDBRANCH   5  10
BRANCH   4  15
ATOM     15  C   UNL     1       1.931   5.516  20.796  0.00  0.00    +0.039 C 
ATOM     16  H   UNL     1       1.477   4.549  21.050  0.00  0.00    +0.051 HD
ATOM     17  H   UNL     1       2.610   5.759  21.621  0.00  0.00    +0.051 HD
BRANCH  15  18
ATOM     18  N   UNL     1       0.900   6.520  20.725  0.00  0.00    -0.295 N 
ATOM     19  C   UNL     1       1.139   7.760  21.252  0.00  0.00    +0.300 C 
ATOM     20  O   UNL     1       2.148   8.064  21.875  0.00  0.00    -0.253 OA
ATOM     21  N   UNL     1       0.084   8.600  21.026  0.00  0.00    -0.293 N 
ATOM     22  H   UNL     1       0.365   6.533  19.856  0.00  0.00    +0.151 HD
ATOM     23  H   UNL     1      -0.816   8.139  20.938  0.00  0.00    +0.151 HD
BRANCH  21  24
ATOM     24  C   UNL     1       0.063   9.910  21.636  0.00  0.00    +0.050 C 
ATOM     25  C   UNL     1      -0.731   9.939  22.964  0.00  0.00    -0.026 C 
ATOM     26  C   UNL     1      -1.330  11.345  23.088  0.00  0.00    -0.025 C 
ATOM     27  C   UNL     1      -1.507  11.717  21.649  0.00  0.00    -0.042 A 
ATOM     28  C   UNL     1      -2.288  12.736  21.123  0.00  0.00    -0.058 A 
ATOM     29  C   UNL     1      -2.276  12.941  19.739  0.00  0.00    -0.061 A 
ATOM     30  C   UNL     1      -1.475  12.140  18.907  0.00  0.00    -0.061 A 
ATOM     31  C   UNL     1      -0.679  11.125  19.449  0.00  0.00    -0.057 A 
ATOM     32  C   UNL     1      -0.712  10.913  20.823  0.00  0.00    -0.024 A 
ATOM     33  H   UNL     1       1.089  10.263  21.795  0.00  0.00    +0.055 HD
ATOM     34  H   UNL     1      -0.107   9.679  23.828  0.00  0.00    +0.029 HD
ATOM     35  H   UNL     1      -1.548   9.202  22.938  0.00  0.00    +0.029 HD
ATOM     36  H   UNL     1      -2.275  11.324  23.640  0.00  0.00    +0.031 HD
ATOM     37  H   UNL     1      -0.630  12.032  23.573  0.00  0.00    +0.031 HD
ATOM     38  H   UNL     1      -2.897  13.361  21.767  0.00  0.00    +0.062 HD
ATOM     39  H   UNL     1      -2.889  13.730  19.304  0.00  0.00    +0.062 HD
ATOM     40  H   UNL     1      -1.470  12.319  17.833  0.00  0.00    +0.062 HD
ATOM     41  H   UNL     1      -0.042  10.519  18.807  0.00  0.00    +0.062 HD
ENDBRANCH  21  24
ENDBRANCH  15  18
ENDBRANCH   4  15
BRANCH   1  42
ATOM     42  O   UNL     1       4.758   5.290  15.865  0.00  0.00    -0.489 OA
BRANCH  42  43
ATOM     43  C   UNL     1       5.437   4.100  15.449  0.00  0.00    +0.101 C 
ATOM     44  H   UNL     1       4.889   3.207  15.781  0.00  0.00    +0.073 HD
BRANCH  43  45
ATOM     45  C   UNL     1       5.410   4.084  13.923  0.00  0.00    -0.027 C 
ATOM     46  H   UNL     1       4.774   3.268  13.572  0.00  0.00    +0.027 HD
ATOM     47  H   UNL     1       6.408   3.948  13.505  0.00  0.00    +0.027 HD
ATOM     48  H   UNL     1       4.973   5.003  13.512  0.00  0.00    +0.027 HD
ENDBRANCH  43  45
BRANCH  43  49
ATOM     49  C   UNL     1       6.871   4.040  16.002  0.00  0.00    +0.009 C 
ATOM     50  H   UNL     1       7.564   4.033  15.151  0.00  0.00    +0.035 HD
ATOM     51  H   UNL     1       7.030   3.092  16.520  0.00  0.00    +0.035 HD
BRANCH  49  52
ATOM     52  C   UNL     1       7.268   5.137  16.964  0.00  0.00    -0.044 A 
ATOM     53  C   UNL     1       7.339   6.478  16.532  0.00  0.00    -0.058 A 
ATOM     54  C   UNL     1       7.715   7.487  17.421  0.00  0.00    -0.061 A 
ATOM     55  C   UNL     1       8.023   7.171  18.751  0.00  0.00    -0.062 A 
ATOM     56  C   UNL     1       7.958   5.842  19.191  0.00  0.00    -0.061 A 
ATOM     57  C   UNL     1       7.588   4.832  18.302  0.00  0.00    -0.058 A 
ATOM     58  H   UNL     1       7.105   6.753  15.499  0.00  0.00    +0.062 HD
ATOM     59  H   UNL     1       7.766   8.520  17.065  0.00  0.00    +0.062 HD
ATOM     60  H   UNL     1       8.309   7.958  19.443  0.00  0.00    +0.062 HD
ATOM     61  H   UNL     1       8.194   5.587  20.229  0.00  0.00    +0.062 HD
ATOM     62  H   UNL     1       7.549   3.803  18.665  0.00  0.00    +0.062 HD
ENDBRANCH  49  52
ENDBRANCH  43  49
ENDBRANCH  42  43
ENDBRANCH   1  42
TORSDOF 9
ENDMDL
MODEL 3
REMARK VINA RESULT:    -8.041      2.580      4.543
REMARK INTER + INTRA:         -12.732
REMARK INTER:                 -10.807
REMARK INTRA:                  -1.925
REMARK UNBOUND:                -0.695
REMARK  Name = 
REMARK  9 active torsions:
REMARK  status: ('A' for Active; 'I' for Inactive)
REMARK    1  A    between atoms: C_1  and  C_2
REMARK    2  A    between atoms: C_2  and  C_3
REMARK    3  A    between atoms: C_2  and  O_10
REMARK    4  A    between atoms: C_3  and  C_4
REMARK    5  A    between atoms: O_10  and  C_11
REMARK    6  A    between atoms: C_14  and  C_15
REMARK    7  A    between atoms: C_15  and  N_16
REMARK    8  A    between atoms: N_19  and  C_20
REMARK    9  A    between atoms: C_29  and  C_30
REMARK                            x       y       z     vdW  Elec       q    Type
REMARK                         _______ _______ _______ _____ _____    ______ ____
ROOT
ATOM      1  C   UNL     1       2.194   5.155  18.756  0.00  0.00    +0.122 A 
ATOM      2  C   UNL     1       1.846   5.193  20.115  0.00  0.00    -0.020 A 
ATOM      3  C   UNL     1       1.732   6.412  20.790  0.00  0.00    -0.053 A 
ATOM      4  C   UNL     1       1.940   7.623  20.102  0.00  0.00    -0.018 A 
ATOM      5  C   UNL     1       2.225   7.574  18.719  0.00  0.00    +0.045 A 
ATOM      6  C   UNL     1       2.371   6.347  18.055  0.00  0.00    -0.008 A 
ATOM      7  H   UNL     1       1.647   4.263  20.651  0.00  0.00    +0.065 HD
ATOM      8  H   UNL     1       1.450   6.416  21.850  0.00  0.00    +0.062 HD
ATOM      9  H   UNL     1       2.549   6.351  16.983  0.00  0.00    +0.066 HD
ENDROOT
BRANCH   5  10
ATOM     10  C   UNL     1       2.256   8.811  17.906  0.00  0.00    +0.242 C 
ATOM     11  N   UNL     1       1.061   9.217  17.388  0.00  0.00    -0.325 N 
ATOM     12  O   UNL     1       3.303   9.415  17.727  0.00  0.00    -0.270 OA
ATOM     13  H   UNL     1       1.107   9.981  16.726  0.00  0.00    +0.145 HD
ATOM     14  H   UNL     1       0.282   8.585  17.321  0.00  0.00    +0.145 HD
ENDBRANCH   5  10
BRANCH   4  15
ATOM     15  C   UNL     1       1.811   8.928  20.842  0.00  0.00    +0.039 C 
ATOM     16  H   UNL     1       2.253   8.834  21.843  0.00  0.00    +0.051 HD
ATOM     17  H   UNL     1       2.362   9.731  20.340  0.00  0.00    +0.051 HD
BRANCH  15  18
ATOM     18  N   UNL     1       0.428   9.314  20.970  0.00  0.00    -0.295 N 
ATOM     19  C   UNL     1      -0.015  10.431  20.315  0.00  0.00    +0.300 C 
ATOM     20  O   UNL     1       0.706  11.197  19.688  0.00  0.00    -0.253 OA
ATOM     21  N   UNL     1      -1.361  10.598  20.487  0.00  0.00    -0.293 N 
ATOM     22  H   UNL     1      -0.239   8.543  20.977  0.00  0.00    +0.151 HD
ATOM     23  H   UNL     1      -1.731  10.212  21.350  0.00  0.00    +0.151 HD
BRANCH  21  24
ATOM     24  C   UNL     1      -2.004  11.802  20.012  0.00  0.00    +0.050 C 
ATOM     25  C   UNL     1      -3.007  12.388  21.033  0.00  0.00    -0.026 C 
ATOM     26  C   UNL     1      -4.106  13.084  20.221  0.00  0.00    -0.025 C 
ATOM     27  C   UNL     1      -4.107  12.266  18.966  0.00  0.00    -0.042 A 
ATOM     28  C   UNL     1      -5.087  12.212  17.987  0.00  0.00    -0.058 A 
ATOM     29  C   UNL     1      -4.866  11.407  16.864  0.00  0.00    -0.061 A 
ATOM     30  C   UNL     1      -3.667  10.687  16.729  0.00  0.00    -0.061 A 
ATOM     31  C   UNL     1      -2.677  10.761  17.715  0.00  0.00    -0.057 A 
ATOM     32  C   UNL     1      -2.913  11.545  18.839  0.00  0.00    -0.024 A 
ATOM     33  H   UNL     1      -1.246  12.549  19.747  0.00  0.00    +0.055 HD
ATOM     34  H   UNL     1      -2.526  13.071  21.745  0.00  0.00    +0.029 HD
ATOM     35  H   UNL     1      -3.459  11.583  21.632  0.00  0.00    +0.029 HD
ATOM     36  H   UNL     1      -5.066  13.053  20.747  0.00  0.00    +0.031 HD
ATOM     37  H   UNL     1      -3.836  14.120  19.996  0.00  0.00    +0.031 HD
ATOM     38  H   UNL     1      -6.008  12.777  18.086  0.00  0.00    +0.062 HD
ATOM     39  H   UNL     1      -5.627  11.343  16.087  0.00  0.00    +0.062 HD
ATOM     40  H   UNL     1      -3.506  10.073  15.844  0.00  0.00    +0.062 HD
ATOM     41  H   UNL     1      -1.740  10.220  17.601  0.00  0.00    +0.062 HD
ENDBRANCH  21  24
ENDBRANCH  15  18
ENDBRANCH   4  15
BRANCH   1  42
ATOM     42  O   UNL     1       2.231   3.908  18.199  0.00  0.00    -0.489 OA
BRANCH  42  43
ATOM     43  C   UNL     1       3.467   3.186  18.245  0.00  0.00    +0.101 C 
ATOM     44  H   UNL     1       3.957   3.321  19.218  0.00  0.00    +0.073 HD
BRANCH  43  45
ATOM     45  C   UNL     1       3.118   1.704  18.134  0.00  0.00    -0.027 C 
ATOM     46  H   UNL     1       3.207   1.229  19.114  0.00  0.00    +0.027 HD
ATOM     47  H   UNL     1       3.780   1.186  17.439  0.00  0.00    +0.027 HD
ATOM     48  H   UNL     1       2.079   1.551  17.820  0.00  0.00    +0.027 HD
ENDBRANCH  43  45
BRANCH  43  49
ATOM     49  C   UNL     1       4.431   3.637  17.133  0.00  0.00    +0.009 C 
ATOM     50  H   UNL     1       3.835   4.086  16.329  0.00  0.00    +0.035 HD
ATOM     51  H   UNL     1       4.918   2.766  16.690  0.00  0.00    +0.035 HD
BRANCH  49  52
ATOM     52  C   UNL     1       5.528   4.593  17.542  0.00  0.00    -0.044 A 
ATOM     53  C   UNL     1       6.198   5.370  16.574  0.00  0.00    -0.058 A 
ATOM     54  C   UNL     1       7.219   6.245  16.953  0.00  0.00    -0.061 A 
ATOM     55  C   UNL     1       7.580   6.357  18.302  0.00  0.00    -0.062 A 
ATOM     56  C   UNL     1       6.922   5.590  19.273  0.00  0.00    -0.061 A 
ATOM     57  C   UNL     1       5.907   4.710  18.894  0.00  0.00    -0.058 A 
ATOM     58  H   UNL     1       5.938   5.301  15.513  0.00  0.00    +0.062 HD
ATOM     59  H   UNL     1       7.728   6.837  16.187  0.00  0.00    +0.062 HD
ATOM     60  H   UNL     1       8.368   7.044  18.598  0.00  0.00    +0.062 HD
ATOM     61  H   UNL     1       7.196   5.673  20.330  0.00  0.00    +0.062 HD
ATOM     62  H   UNL     1       5.412   4.118  19.665  0.00  0.00    +0.062 HD
ENDBRANCH  49  52
ENDBRANCH  43  49
ENDBRANCH  42  43
ENDBRANCH   1  42
TORSDOF 9
ENDMDL
MODEL 4
REMARK VINA RESULT:    -7.987      2.497      4.667
REMARK INTER + INTRA:         -12.650
REMARK INTER:                 -11.768
REMARK INTRA:                  -0.882
REMARK UNBOUND:                -0.695
REMARK  Name = 
REMARK  9 active torsions:
REMARK  status: ('A' for Active; 'I' for Inactive)
REMARK    1  A    between atoms: C_1  and  C_2
REMARK    2  A    between atoms: C_2  and  C_3
REMARK    3  A    between atoms: C_2  and  O_10
REMARK    4  A    between atoms: C_3  and  C_4
REMARK    5  A    between atoms: O_10  and  C_11
REMARK    6  A    between atoms: C_14  and  C_15
REMARK    7  A    between atoms: C_15  and  N_16
REMARK    8  A    between atoms: N_19  and  C_20
REMARK    9  A    between atoms: C_29  and  C_30
REMARK                            x       y       z     vdW  Elec       q    Type
REMARK                         _______ _______ _______ _____ _____    ______ ____
ROOT
ATOM      1  C   UNL     1       3.933   4.902  18.048  0.00  0.00    +0.122 A 
ATOM      2  C   UNL     1       3.830   6.298  18.156  0.00  0.00    -0.020 A 
ATOM      3  C   UNL     1       2.955   6.881  19.077  0.00  0.00    -0.053 A 
ATOM      4  C   UNL     1       2.182   6.070  19.929  0.00  0.00    -0.018 A 
ATOM      5  C   UNL     1       2.342   4.668  19.857  0.00  0.00    +0.045 A 
ATOM      6  C   UNL     1       3.197   4.087  18.907  0.00  0.00    -0.008 A 
ATOM      7  H   UNL     1       4.451   6.938  17.526  0.00  0.00    +0.065 HD
ATOM      8  H   UNL     1       2.900   7.975  19.148  0.00  0.00    +0.062 HD
ATOM      9  H   UNL     1       3.324   3.008  18.910  0.00  0.00    +0.066 HD
ENDROOT
BRANCH   5  10
ATOM     10  C   UNL     1       1.709   3.778  20.856  0.00  0.00    +0.242 C 
ATOM     11  N   UNL     1       0.541   3.184  20.474  0.00  0.00    -0.325 N 
ATOM     12  O   UNL     1       2.223   3.602  21.951  0.00  0.00    -0.270 OA
ATOM     13  H   UNL     1       0.044   2.687  21.202  0.00  0.00    +0.145 HD
ATOM     14  H   UNL     1       0.008   3.537  19.698  0.00  0.00    +0.145 HD
ENDBRANCH   5  10
BRANCH   4  15
ATOM     15  C   UNL     1       1.246   6.713  20.918  0.00  0.00    +0.039 C 
ATOM     16  H   UNL     1       0.220   6.693  20.527  0.00  0.00    +0.051 HD
ATOM     17  H   UNL     1       1.222   6.163  21.865  0.00  0.00    +0.051 HD
BRANCH  15  18
ATOM     18  N   UNL     1       1.627   8.079  21.176  0.00  0.00    -0.295 N 
ATOM     19  C   UNL     1       0.782   9.088  20.805  0.00  0.00    +0.300 C 
ATOM     20  O   UNL     1      -0.255   8.926  20.174  0.00  0.00    -0.253 OA
ATOM     21  N   UNL     1       1.269  10.304  21.196  0.00  0.00    -0.293 N 
ATOM     22  H   UNL     1       2.099   8.237  22.067  0.00  0.00    +0.151 HD
ATOM     23  H   UNL     1       2.281  10.354  21.270  0.00  0.00    +0.151 HD
BRANCH  21  24
ATOM     24  C   UNL     1       0.611  11.517  20.765  0.00  0.00    +0.050 C 
ATOM     25  C   UNL     1       1.584  12.713  20.639  0.00  0.00    -0.026 C 
ATOM     26  C   UNL     1       0.771  13.976  20.953  0.00  0.00    -0.025 C 
ATOM     27  C   UNL     1      -0.254  13.438  21.902  0.00  0.00    -0.042 A 
ATOM     28  C   UNL     1      -1.070  14.152  22.767  0.00  0.00    -0.058 A 
ATOM     29  C   UNL     1      -1.997  13.449  23.544  0.00  0.00    -0.061 A 
ATOM     30  C   UNL     1      -2.106  12.052  23.433  0.00  0.00    -0.061 A 
ATOM     31  C   UNL     1      -1.288  11.343  22.546  0.00  0.00    -0.057 A 
ATOM     32  C   UNL     1      -0.355  12.045  21.793  0.00  0.00    -0.024 A 
ATOM     33  H   UNL     1       0.093  11.341  19.815  0.00  0.00    +0.055 HD
ATOM     34  H   UNL     1       2.057  12.763  19.651  0.00  0.00    +0.029 HD
ATOM     35  H   UNL     1       2.400  12.622  21.371  0.00  0.00    +0.029 HD
ATOM     36  H   UNL     1       1.401  14.750  21.402  0.00  0.00    +0.031 HD
ATOM     37  H   UNL     1       0.284  14.366  20.053  0.00  0.00    +0.031 HD
ATOM     38  H   UNL     1      -0.993  15.231  22.844  0.00  0.00    +0.062 HD
ATOM     39  H   UNL     1      -2.642  13.989  24.237  0.00  0.00    +0.062 HD
ATOM     40  H   UNL     1      -2.839  11.521  24.038  0.00  0.00    +0.062 HD
ATOM     41  H   UNL     1      -1.388  10.264  22.445  0.00  0.00    +0.062 HD
ENDBRANCH  21  24
ENDBRANCH  15  18
ENDBRANCH   4  15
BRANCH   1  42
ATOM     42  O   UNL     1       4.853   4.454  17.143  0.00  0.00    -0.489 OA
BRANCH  42  43
ATOM     43  C   UNL     1       5.976   5.293  16.852  0.00  0.00    +0.101 C 
ATOM     44  H   UNL     1       6.084   6.073  17.617  0.00  0.00    +0.073 HD
BRANCH  43  45
ATOM     45  C   UNL     1       7.221   4.415  16.947  0.00  0.00    -0.027 C 
ATOM     46  H   UNL     1       7.244   3.713  16.109  0.00  0.00    +0.027 HD
ATOM     47  H   UNL     1       7.241   3.844  17.876  0.00  0.00    +0.027 HD
ATOM     48  H   UNL     1       8.143   5.004  16.869  0.00  0.00    +0.027 HD
ENDBRANCH  43  45
BRANCH  43  49
ATOM     49  C   UNL     1       5.844   5.961  15.472  0.00  0.00    +0.009 C 
ATOM     50  H   UNL     1       6.510   6.834  15.452  0.00  0.00    +0.035 HD
ATOM     51  H   UNL     1       4.834   6.357  15.347  0.00  0.00    +0.035 HD
BRANCH  49  52
ATOM     52  C   UNL     1       6.126   5.087  14.271  0.00  0.00    -0.044 A 
ATOM     53  C   UNL     1       5.202   4.099  13.872  0.00  0.00    -0.058 A 
ATOM     54  C   UNL     1       5.470   3.286  12.768  0.00  0.00    -0.061 A 
ATOM     55  C   UNL     1       6.661   3.451  12.049  0.00  0.00    -0.062 A 
ATOM     56  C   UNL     1       7.587   4.429  12.437  0.00  0.00    -0.061 A 
ATOM     57  C   UNL     1       7.323   5.237  13.543  0.00  0.00    -0.058 A 
ATOM     58  H   UNL     1       4.265   3.947  14.416  0.00  0.00    +0.062 HD
ATOM     59  H   UNL     1       4.741   2.524  12.477  0.00  0.00    +0.062 HD
ATOM     60  H   UNL     1       6.865   2.824  11.186  0.00  0.00    +0.062 HD
ATOM     61  H   UNL     1       8.519   4.566  11.879  0.00  0.00    +0.062 HD
ATOM     62  H   UNL     1       8.061   5.988  13.832  0.00  0.00    +0.062 HD
ENDBRANCH  49  52
ENDBRANCH  43  49
ENDBRANCH  42  43
ENDBRANCH   1  42
TORSDOF 9
ENDMDL
MODEL 5
REMARK VINA RESULT:    -7.958      2.731      5.574
REMARK INTER + INTRA:         -12.607
REMARK INTER:                 -11.673
REMARK INTRA:                  -0.934
REMARK UNBOUND:                -0.695
REMARK  Name = 
REMARK  9 active torsions:
REMARK  status: ('A' for Active; 'I' for Inactive)
REMARK    1  A    between atoms: C_1  and  C_2
REMARK    2  A    between atoms: C_2  and  C_3
REMARK    3  A    between atoms: C_2  and  O_10
REMARK    4  A    between atoms: C_3  and  C_4
REMARK    5  A    between atoms: O_10  and  C_11
REMARK    6  A    between atoms: C_14  and  C_15
REMARK    7  A    between atoms: C_15  and  N_16
REMARK    8  A    between atoms: N_19  and  C_20
REMARK    9  A    between atoms: C_29  and  C_30
REMARK                            x       y       z     vdW  Elec       q    Type
REMARK                         _______ _______ _______ _____ _____    ______ ____
ROOT
ATOM      1  C   UNL     1       4.414   4.473  16.203  0.00  0.00    +0.122 A 
ATOM      2  C   UNL     1       4.281   5.721  16.830  0.00  0.00    -0.020 A 
ATOM      3  C   UNL     1       3.870   5.811  18.163  0.00  0.00    -0.053 A 
ATOM      4  C   UNL     1       3.609   4.641  18.903  0.00  0.00    -0.018 A 
ATOM      5  C   UNL     1       3.810   3.389  18.281  0.00  0.00    +0.045 A 
ATOM      6  C   UNL     1       4.190   3.306  16.933  0.00  0.00    -0.008 A 
ATOM      7  H   UNL     1       4.516   6.633  16.279  0.00  0.00    +0.065 HD
ATOM      8  H   UNL     1       3.783   6.798  18.634  0.00  0.00    +0.062 HD
ATOM      9  H   UNL     1       4.374   2.325  16.501  0.00  0.00    +0.066 HD
ENDROOT
BRANCH   5  10
ATOM     10  C   UNL     1       3.744   2.134  19.062  0.00  0.00    +0.242 C 
ATOM     11  N   UNL     1       4.892   1.766  19.702  0.00  0.00    -0.325 N 
ATOM     12  O   UNL     1       2.710   1.484  19.117  0.00  0.00    -0.270 OA
ATOM     13  H   UNL     1       4.885   0.845  20.120  0.00  0.00    +0.145 HD
ATOM     14  H   UNL     1       5.781   2.154  19.438  0.00  0.00    +0.145 HD
ENDBRANCH   5  10
BRANCH   4  15
ATOM     15  C   UNL     1       3.170   4.755  20.339  0.00  0.00    +0.039 C 
ATOM     16  H   UNL     1       2.260   4.160  20.499  0.00  0.00    +0.051 HD
ATOM     17  H   UNL     1       3.923   4.348  21.023  0.00  0.00    +0.051 HD
BRANCH  15  18
ATOM     18  N   UNL     1       2.906   6.127  20.691  0.00  0.00    -0.295 N 
ATOM     19  C   UNL     1       1.788   6.739  20.195  0.00  0.00    +0.300 C 
ATOM     20  O   UNL     1       1.023   6.233  19.384  0.00  0.00    -0.253 OA
ATOM     21  N   UNL     1       1.660   8.006  20.694  0.00  0.00    -0.293 N 
ATOM     22  H   UNL     1       3.125   6.378  21.656  0.00  0.00    +0.151 HD
ATOM     23  H   UNL     1       2.535   8.452  20.951  0.00  0.00    +0.151 HD
BRANCH  21  24
ATOM     24  C   UNL     1       0.635   8.884  20.177  0.00  0.00    +0.050 C 
ATOM     25  C   UNL     1       1.198   9.966  19.226  0.00  0.00    -0.026 C 
ATOM     26  C   UNL     1       0.294  11.196  19.374  0.00  0.00    -0.025 C 
ATOM     27  C   UNL     1      -0.164  11.055  20.792  0.00  0.00    -0.042 A 
ATOM     28  C   UNL     1      -0.747  12.022  21.598  0.00  0.00    -0.058 A 
ATOM     29  C   UNL     1      -1.143  11.664  22.891  0.00  0.00    -0.061 A 
ATOM     30  C   UNL     1      -0.967  10.348  23.352  0.00  0.00    -0.061 A 
ATOM     31  C   UNL     1      -0.392   9.376  22.525  0.00  0.00    -0.057 A 
ATOM     32  C   UNL     1       0.019   9.744  21.249  0.00  0.00    -0.024 A 
ATOM     33  H   UNL     1      -0.140   8.295  19.673  0.00  0.00    +0.055 HD
ATOM     34  H   UNL     1       1.254   9.619  18.187  0.00  0.00    +0.029 HD
ATOM     35  H   UNL     1       2.223  10.238  19.518  0.00  0.00    +0.029 HD
ATOM     36  H   UNL     1       0.852  12.121  19.198  0.00  0.00    +0.031 HD
ATOM     37  H   UNL     1      -0.562  11.142  18.694  0.00  0.00    +0.031 HD
ATOM     38  H   UNL     1      -0.893  13.035  21.239  0.00  0.00    +0.062 HD
ATOM     39  H   UNL     1      -1.595  12.410  23.545  0.00  0.00    +0.062 HD
ATOM     40  H   UNL     1      -1.289  10.083  24.358  0.00  0.00    +0.062 HD
ATOM     41  H   UNL     1      -0.275   8.352  22.874  0.00  0.00    +0.062 HD
ENDBRANCH  21  24
ENDBRANCH  15  18
ENDBRANCH   4  15
BRANCH   1  42
ATOM     42  O   UNL     1       4.864   4.513  14.914  0.00  0.00    -0.489 OA
BRANCH  42  43
ATOM     43  C   UNL     1       6.177   4.010  14.642  0.00  0.00    +0.101 C 
ATOM     44  H   UNL     1       6.388   3.128  15.261  0.00  0.00    +0.073 HD
BRANCH  43  45
ATOM     45  C   UNL     1       6.179   3.536  13.191  0.00  0.00    -0.027 C 
ATOM     46  H   UNL     1       7.199   3.299  12.880  0.00  0.00    +0.027 HD
ATOM     47  H   UNL     1       5.781   4.297  12.519  0.00  0.00    +0.027 HD
ATOM     48  H   UNL     1       5.605   2.610  13.064  0.00  0.00    +0.027 HD
ENDBRANCH  43  45
BRANCH  43  49
ATOM     49  C   UNL     1       7.259   5.073  14.903  0.00  0.00    +0.009 C 
ATOM     50  H   UNL     1       7.013   5.962  14.308  0.00  0.00    +0.035 HD
ATOM     51  H   UNL     1       8.222   4.722  14.527  0.00  0.00    +0.035 HD
BRANCH  49  52
ATOM     52  C   UNL     1       7.472   5.477  16.345  0.00  0.00    -0.044 A 
ATOM     53  C   UNL     1       7.638   4.498  17.346  0.00  0.00    -0.058 A 
ATOM     54  C   UNL     1       7.824   4.874  18.678  0.00  0.00    -0.061 A 
ATOM     55  C   UNL     1       7.850   6.231  19.026  0.00  0.00    -0.062 A 
ATOM     56  C   UNL     1       7.684   7.213  18.040  0.00  0.00    -0.061 A 
ATOM     57  C   UNL     1       7.491   6.838  16.710  0.00  0.00    -0.058 A 
ATOM     58  H   UNL     1       7.622   3.431  17.103  0.00  0.00    +0.062 HD
ATOM     59  H   UNL     1       7.949   4.099  19.440  0.00  0.00    +0.062 HD
ATOM     60  H   UNL     1       8.002   6.523  20.061  0.00  0.00    +0.062 HD
ATOM     61  H   UNL     1       7.705   8.276  18.303  0.00  0.00    +0.062 HD
ATOM     62  H   UNL     1       7.359   7.619  15.959  0.00  0.00    +0.062 HD
ENDBRANCH  49  52
ENDBRANCH  43  49
ENDBRANCH  42  43
ENDBRANCH   1  42
TORSDOF 9
ENDMDL
MODEL 6
REMARK VINA RESULT:    -7.895      2.106      9.879
REMARK INTER + INTRA:         -12.513
REMARK INTER:                 -11.436
REMARK INTRA:                  -1.077
REMARK UNBOUND:                -0.695
REMARK  Name = 
REMARK  9 active torsions:
REMARK  status: ('A' for Active; 'I' for Inactive)
REMARK    1  A    between atoms: C_1  and  C_2
REMARK    2  A    between atoms: C_2  and  C_3
REMARK    3  A    between atoms: C_2  and  O_10
REMARK    4  A    between atoms: C_3  and  C_4
REMARK    5  A    between atoms: O_10  and  C_11
REMARK    6  A    between atoms: C_14  and  C_15
REMARK    7  A    between atoms: C_15  and  N_16
REMARK    8  A    between atoms: N_19  and  C_20
REMARK    9  A    between atoms: C_29  and  C_30
REMARK                            x       y       z     vdW  Elec       q    Type
REMARK                         _______ _______ _______ _____ _____    ______ ____
ROOT
ATOM      1  C   UNL     1      -1.777  12.161  21.766  0.00  0.00    +0.122 A 
ATOM      2  C   UNL     1      -0.582  11.579  22.219  0.00  0.00    -0.020 A 
ATOM      3  C   UNL     1       0.198  10.793  21.366  0.00  0.00    -0.053 A 
ATOM      4  C   UNL     1      -0.196  10.596  20.028  0.00  0.00    -0.018 A 
ATOM      5  C   UNL     1      -1.365  11.240  19.566  0.00  0.00    +0.045 A 
ATOM      6  C   UNL     1      -2.161  12.001  20.435  0.00  0.00    -0.008 A 
ATOM      7  H   UNL     1      -0.247  11.754  23.243  0.00  0.00    +0.065 HD
ATOM      8  H   UNL     1       1.132  10.356  21.741  0.00  0.00    +0.062 HD
ATOM      9  H   UNL     1      -3.031  12.515  20.033  0.00  0.00    +0.066 HD
ENDROOT
BRANCH   5  10
ATOM     10  C   UNL     1      -1.718  11.233  18.129  0.00  0.00    +0.242 C 
ATOM     11  N   UNL     1      -1.319  12.322  17.409  0.00  0.00    -0.325 N 
ATOM     12  O   UNL     1      -2.330  10.295  17.640  0.00  0.00    -0.270 OA
ATOM     13  H   UNL     1      -1.676  12.378  16.464  0.00  0.00    +0.145 HD
ATOM     14  H   UNL     1      -1.061  13.180  17.864  0.00  0.00    +0.145 HD
ENDBRANCH   5  10
BRANCH   4  15
ATOM     15  C   UNL     1       0.657   9.748  19.122  0.00  0.00    +0.039 C 
ATOM     16  H   UNL     1       0.027   9.264  18.364  0.00  0.00    +0.051 HD
ATOM     17  H   UNL     1       1.383  10.355  18.570  0.00  0.00    +0.051 HD
BRANCH  15  18
ATOM     18  N   UNL     1       1.359   8.738  19.870  0.00  0.00    -0.295 N 
ATOM     19  C   UNL     1       2.046   7.765  19.197  0.00  0.00    +0.300 C 
ATOM     20  O   UNL     1       2.036   7.628  17.980  0.00  0.00    -0.253 OA
ATOM     21  N   UNL     1       2.711   6.944  20.064  0.00  0.00    -0.293 N 
ATOM     22  H   UNL     1       1.827   9.069  20.714  0.00  0.00    +0.151 HD
ATOM     23  H   UNL     1       2.288   6.863  20.983  0.00  0.00    +0.151 HD
BRANCH  21  24
ATOM     24  C   UNL     1       3.369   5.755  19.570  0.00  0.00    +0.050 C 
ATOM     25  C   UNL     1       3.843   5.900  18.104  0.00  0.00    -0.026 C 
ATOM     26  C   UNL     1       3.782   4.499  17.483  0.00  0.00    -0.025 C 
ATOM     27  C   UNL     1       2.662   3.880  18.261  0.00  0.00    -0.042 A 
ATOM     28  C   UNL     1       1.936   2.740  17.948  0.00  0.00    -0.058 A 
ATOM     29  C   UNL     1       0.953   2.308  18.843  0.00  0.00    -0.061 A 
ATOM     30  C   UNL     1       0.721   3.007  20.040  0.00  0.00    -0.061 A 
ATOM     31  C   UNL     1       1.470   4.147  20.354  0.00  0.00    -0.057 A 
ATOM     32  C   UNL     1       2.431   4.584  19.450  0.00  0.00    -0.024 A 
ATOM     33  H   UNL     1       4.212   5.500  20.222  0.00  0.00    +0.055 HD
ATOM     34  H   UNL     1       4.845   6.339  18.031  0.00  0.00    +0.029 HD
ATOM     35  H   UNL     1       3.169   6.568  17.547  0.00  0.00    +0.029 HD
ATOM     36  H   UNL     1       3.573   4.551  16.409  0.00  0.00    +0.031 HD
ATOM     37  H   UNL     1       4.712   3.948  17.656  0.00  0.00    +0.031 HD
ATOM     38  H   UNL     1       2.123   2.194  17.029  0.00  0.00    +0.062 HD
ATOM     39  H   UNL     1       0.364   1.420  18.613  0.00  0.00    +0.062 HD
ATOM     40  H   UNL     1      -0.042   2.652  20.731  0.00  0.00    +0.062 HD
ATOM     41  H   UNL     1       1.306   4.677  21.291  0.00  0.00    +0.062 HD
ENDBRANCH  21  24
ENDBRANCH  15  18
ENDBRANCH   4  15
BRANCH   1  42
ATOM     42  O   UNL     1      -2.427  12.942  22.679  0.00  0.00    -0.489 OA
BRANCH  42  43
ATOM     43  C   UNL     1      -2.624  14.325  22.363  0.00  0.00    +0.101 C 
ATOM     44  H   UNL     1      -3.020  14.437  21.345  0.00  0.00    +0.073 HD
BRANCH  43  45
ATOM     45  C   UNL     1      -3.702  14.847  23.310  0.00  0.00    -0.027 C 
ATOM     46  H   UNL     1      -3.730  15.939  23.273  0.00  0.00    +0.027 HD
ATOM     47  H   UNL     1      -3.515  14.541  24.340  0.00  0.00    +0.027 HD
ATOM     48  H   UNL     1      -4.703  14.511  23.013  0.00  0.00    +0.027 HD
ENDBRANCH  43  45
BRANCH  43  49
ATOM     49  C   UNL     1      -1.316  15.128  22.480  0.00  0.00    +0.009 C 
ATOM     50  H   UNL     1      -0.804  14.812  23.398  0.00  0.00    +0.035 HD
ATOM     51  H   UNL     1      -1.542  16.187  22.617  0.00  0.00    +0.035 HD
BRANCH  49  52
ATOM     52  C   UNL     1      -0.360  15.030  21.313  0.00  0.00    -0.044 A 
ATOM     53  C   UNL     1       0.999  14.717  21.523  0.00  0.00    -0.058 A 
ATOM     54  C   UNL     1       1.881  14.638  20.444  0.00  0.00    -0.061 A 
ATOM     55  C   UNL     1       1.418  14.868  19.142  0.00  0.00    -0.062 A 
ATOM     56  C   UNL     1       0.070  15.182  18.920  0.00  0.00    -0.061 A 
ATOM     57  C   UNL     1      -0.811  15.267  19.999  0.00  0.00    -0.058 A 
ATOM     58  H   UNL     1       1.388  14.534  22.530  0.00  0.00    +0.062 HD
ATOM     59  H   UNL     1       2.932  14.396  20.629  0.00  0.00    +0.062 HD
ATOM     60  H   UNL     1       2.103  14.799  18.302  0.00  0.00    +0.062 HD
ATOM     61  H   UNL     1      -0.301  15.360  17.905  0.00  0.00    +0.062 HD
ATOM     62  H   UNL     1      -1.855  15.518  19.804  0.00  0.00    +0.062 HD
ENDBRANCH  49  52
ENDBRANCH  43  49
ENDBRANCH  42  43
ENDBRANCH   1  42
TORSDOF 9
ENDMDL
MODEL 7
REMARK VINA RESULT:    -7.880      3.397      4.763
REMARK INTER + INTRA:         -12.490
REMARK INTER:                 -12.003
REMARK INTRA:                  -0.488
REMARK UNBOUND:                -0.695
REMARK  Name = 
REMARK  9 active torsions:
REMARK  status: ('A' for Active; 'I' for Inactive)
REMARK    1  A    between atoms: C_1  and  C_2
REMARK    2  A    between atoms: C_2  and  C_3
REMARK    3  A    between atoms: C_2  and  O_10
REMARK    4  A    between atoms: C_3  and  C_4
REMARK    5  A    between atoms: O_10  and  C_11
REMARK    6  A    between atoms: C_14  and  C_15
REMARK    7  A    between atoms: C_15  and  N_16
REMARK    8  A    between atoms: N_19  and  C_20
REMARK    9  A    between atoms: C_29  and  C_30
REMARK                            x       y       z     vdW  Elec       q    Type
REMARK                         _______ _______ _______ _____ _____    ______ ____
ROOT
ATOM      1  C   UNL     1       2.774   7.046  18.909  0.00  0.00    +0.122 A 
ATOM      2  C   UNL     1       2.716   8.001  17.882  0.00  0.00    -0.020 A 
ATOM      3  C   UNL     1       1.918   9.142  18.011  0.00  0.00    -0.053 A 
ATOM      4  C   UNL     1       1.181   9.360  19.192  0.00  0.00    -0.018 A 
ATOM      5  C   UNL     1       1.299   8.425  20.243  0.00  0.00    +0.045 A 
ATOM      6  C   UNL     1       2.074   7.265  20.095  0.00  0.00    -0.008 A 
ATOM      7  H   UNL     1       3.311   7.863  16.978  0.00  0.00    +0.065 HD
ATOM      8  H   UNL     1       1.897   9.879  17.198  0.00  0.00    +0.062 HD
ATOM      9  H   UNL     1       2.173   6.590  20.942  0.00  0.00    +0.066 HD
ENDROOT
BRANCH   5  10
ATOM     10  C   UNL     1       0.709   8.699  21.573  0.00  0.00    +0.242 C 
ATOM     11  N   UNL     1      -0.540   8.195  21.790  0.00  0.00    -0.325 N 
ATOM     12  O   UNL     1       1.326   9.341  22.411  0.00  0.00    -0.270 OA
ATOM     13  H   UNL     1      -0.993   8.497  22.642  0.00  0.00    +0.145 HD
ATOM     14  H   UNL     1      -1.126   7.910  21.023  0.00  0.00    +0.145 HD
ENDBRANCH   5  10
BRANCH   4  15
ATOM     15  C   UNL     1       0.329  10.595  19.316  0.00  0.00    +0.039 C 
ATOM     16  H   UNL     1       0.064  10.968  18.318  0.00  0.00    +0.051 HD
ATOM     17  H   UNL     1      -0.619  10.380  19.822  0.00  0.00    +0.051 HD
BRANCH  15  18
ATOM     18  N   UNL     1       1.023  11.630  20.040  0.00  0.00    -0.295 N 
ATOM     19  C   UNL     1       1.569  12.676  19.347  0.00  0.00    +0.300 C 
ATOM     20  O   UNL     1       1.594  12.759  18.126  0.00  0.00    -0.253 OA
ATOM     21  N   UNL     1       2.117  13.595  20.198  0.00  0.00    -0.293 N 
ATOM     22  H   UNL     1       0.602  11.894  20.931  0.00  0.00    +0.151 HD
ATOM     23  H   UNL     1       2.441  13.216  21.083  0.00  0.00    +0.151 HD
BRANCH  21  24
ATOM     24  C   UNL     1       2.885  14.699  19.669  0.00  0.00    +0.050 C 
ATOM     25  C   UNL     1       3.145  14.574  18.150  0.00  0.00    -0.026 C 
ATOM     26  C   UNL     1       4.492  15.255  17.877  0.00  0.00    -0.025 C 
ATOM     27  C   UNL     1       5.203  15.031  19.175  0.00  0.00    -0.042 A 
ATOM     28  C   UNL     1       6.562  15.142  19.431  0.00  0.00    -0.058 A 
ATOM     29  C   UNL     1       7.015  14.930  20.737  0.00  0.00    -0.061 A 
ATOM     30  C   UNL     1       6.107  14.630  21.766  0.00  0.00    -0.061 A 
ATOM     31  C   UNL     1       4.736  14.535  21.501  0.00  0.00    -0.057 A 
ATOM     32  C   UNL     1       4.295  14.726  20.196  0.00  0.00    -0.024 A 
ATOM     33  H   UNL     1       2.379  15.646  19.895  0.00  0.00    +0.055 HD
ATOM     34  H   UNL     1       2.335  15.008  17.551  0.00  0.00    +0.029 HD
ATOM     35  H   UNL     1       3.213  13.515  17.859  0.00  0.00    +0.029 HD
ATOM     36  H   UNL     1       5.004  14.791  17.027  0.00  0.00    +0.031 HD
ATOM     37  H   UNL     1       4.364  16.326  17.695  0.00  0.00    +0.031 HD
ATOM     38  H   UNL     1       7.261  15.386  18.638  0.00  0.00    +0.062 HD
ATOM     39  H   UNL     1       8.080  15.004  20.958  0.00  0.00    +0.062 HD
ATOM     40  H   UNL     1       6.475  14.477  22.780  0.00  0.00    +0.062 HD
ATOM     41  H   UNL     1       4.031  14.323  22.302  0.00  0.00    +0.062 HD
ENDBRANCH  21  24
ENDBRANCH  15  18
ENDBRANCH   4  15
BRANCH   1  42
ATOM     42  O   UNL     1       3.620   5.998  18.683  0.00  0.00    -0.489 OA
BRANCH  42  43
ATOM     43  C   UNL     1       3.532   5.320  17.425  0.00  0.00    +0.101 C 
ATOM     44  H   UNL     1       2.860   5.857  16.743  0.00  0.00    +0.073 HD
BRANCH  43  45
ATOM     45  C   UNL     1       4.923   5.370  16.796  0.00  0.00    -0.027 C 
ATOM     46  H   UNL     1       5.275   4.355  16.595  0.00  0.00    +0.027 HD
ATOM     47  H   UNL     1       5.643   5.861  17.452  0.00  0.00    +0.027 HD
ATOM     48  H   UNL     1       4.915   5.882  15.826  0.00  0.00    +0.027 HD
ENDBRANCH  43  45
BRANCH  43  49
ATOM     49  C   UNL     1       3.025   3.876  17.591  0.00  0.00    +0.009 C 
ATOM     50  H   UNL     1       3.826   3.196  17.272  0.00  0.00    +0.035 HD
ATOM     51  H   UNL     1       2.193   3.695  16.908  0.00  0.00    +0.035 HD
BRANCH  49  52
ATOM     52  C   UNL     1       2.553   3.484  18.973  0.00  0.00    -0.044 A 
ATOM     53  C   UNL     1       1.208   3.675  19.351  0.00  0.00    -0.058 A 
ATOM     54  C   UNL     1       0.777   3.321  20.632  0.00  0.00    -0.061 A 
ATOM     55  C   UNL     1       1.682   2.770  21.548  0.00  0.00    -0.062 A 
ATOM     56  C   UNL     1       3.022   2.577  21.184  0.00  0.00    -0.061 A 
ATOM     57  C   UNL     1       3.454   2.936  19.907  0.00  0.00    -0.058 A 
ATOM     58  H   UNL     1       0.480   4.105  18.656  0.00  0.00    +0.062 HD
ATOM     59  H   UNL     1      -0.270   3.480  20.906  0.00  0.00    +0.062 HD
ATOM     60  H   UNL     1       1.345   2.488  22.541  0.00  0.00    +0.062 HD
ATOM     61  H   UNL     1       3.735   2.145  21.894  0.00  0.00    +0.062 HD
ATOM     62  H   UNL     1       4.503   2.783  19.647  0.00  0.00    +0.062 HD
ENDBRANCH  49  52
ENDBRANCH  43  49
ENDBRANCH  42  43
ENDBRANCH   1  42
TORSDOF 9
ENDMDL
MODEL 8
REMARK VINA RESULT:    -7.829      2.634      5.238
REMARK INTER + INTRA:         -12.414
REMARK INTER:                 -12.137
REMARK INTRA:                  -0.277
REMARK UNBOUND:                -0.695
REMARK  Name = 
REMARK  9 active torsions:
REMARK  status: ('A' for Active; 'I' for Inactive)
REMARK    1  A    between atoms: C_1  and  C_2
REMARK    2  A    between atoms: C_2  and  C_3
REMARK    3  A    between atoms: C_2  and  O_10
REMARK    4  A    between atoms: C_3  and  C_4
REMARK    5  A    between atoms: O_10  and  C_11
REMARK    6  A    between atoms: C_14  and  C_15
REMARK    7  A    between atoms: C_15  and  N_16
REMARK    8  A    between atoms: N_19  and  C_20
REMARK    9  A    between atoms: C_29  and  C_30
REMARK                            x       y       z     vdW  Elec       q    Type
REMARK                         _______ _______ _______ _____ _____    ______ ____
ROOT
ATOM      1  C   UNL     1       3.901   4.730  17.881  0.00  0.00    +0.122 A 
ATOM      2  C   UNL     1       3.818   6.120  18.057  0.00  0.00    -0.020 A 
ATOM      3  C   UNL     1       2.963   6.670  19.017  0.00  0.00    -0.053 A 
ATOM      4  C   UNL     1       2.191   5.828  19.841  0.00  0.00    -0.018 A 
ATOM      5  C   UNL     1       2.332   4.430  19.700  0.00  0.00    +0.045 A 
ATOM      6  C   UNL     1       3.167   3.885  18.712  0.00  0.00    -0.008 A 
ATOM      7  H   UNL     1       4.438   6.782  17.450  0.00  0.00    +0.065 HD
ATOM      8  H   UNL     1       2.923   7.760  19.141  0.00  0.00    +0.062 HD
ATOM      9  H   UNL     1       3.280   2.805  18.662  0.00  0.00    +0.066 HD
ENDROOT
BRANCH   5  10
ATOM     10  C   UNL     1       1.702   3.502  20.665  0.00  0.00    +0.242 C 
ATOM     11  N   UNL     1       0.512   2.955  20.280  0.00  0.00    -0.325 N 
ATOM     12  O   UNL     1       2.236   3.255  21.736  0.00  0.00    -0.270 OA
ATOM     13  H   UNL     1       0.020   2.431  20.992  0.00  0.00    +0.145 HD
ATOM     14  H   UNL     1      -0.031   3.362  19.537  0.00  0.00    +0.145 HD
ENDBRANCH   5  10
BRANCH   4  15
ATOM     15  C   UNL     1       1.277   6.436  20.872  0.00  0.00    +0.039 C 
ATOM     16  H   UNL     1       0.242   6.425  20.505  0.00  0.00    +0.051 HD
ATOM     17  H   UNL     1       1.276   5.854  21.800  0.00  0.00    +0.051 HD
BRANCH  15  18
ATOM     18  N   UNL     1       1.662   7.793  21.167  0.00  0.00    -0.295 N 
ATOM     19  C   UNL     1       0.692   8.710  21.468  0.00  0.00    +0.300 C 
ATOM     20  O   UNL     1      -0.511   8.488  21.416  0.00  0.00    -0.253 OA
ATOM     21  N   UNL     1       1.244   9.918  21.794  0.00  0.00    -0.293 N 
ATOM     22  H   UNL     1       2.515   7.893  21.718  0.00  0.00    +0.151 HD
ATOM     23  H   UNL     1       2.145  10.104  21.366  0.00  0.00    +0.151 HD
BRANCH  21  24
ATOM     24  C   UNL     1       0.393  11.069  21.991  0.00  0.00    +0.050 C 
ATOM     25  C   UNL     1      -0.783  10.786  22.956  0.00  0.00    -0.026 C 
ATOM     26  C   UNL     1      -1.945  11.681  22.507  0.00  0.00    -0.025 C 
ATOM     27  C   UNL     1      -1.680  11.792  21.038  0.00  0.00    -0.042 A 
ATOM     28  C   UNL     1      -2.554  12.212  20.045  0.00  0.00    -0.058 A 
ATOM     29  C   UNL     1      -2.085  12.283  18.729  0.00  0.00    -0.061 A 
ATOM     30  C   UNL     1      -0.753  11.952  18.428  0.00  0.00    -0.061 A 
ATOM     31  C   UNL     1       0.125  11.545  19.440  0.00  0.00    -0.057 A 
ATOM     32  C   UNL     1      -0.354  11.456  20.742  0.00  0.00    -0.024 A 
ATOM     33  H   UNL     1       0.990  11.915  22.352  0.00  0.00    +0.055 HD
ATOM     34  H   UNL     1      -0.513  10.958  24.005  0.00  0.00    +0.029 HD
ATOM     35  H   UNL     1      -1.094   9.733  22.883  0.00  0.00    +0.029 HD
ATOM     36  H   UNL     1      -2.911  11.216  22.730  0.00  0.00    +0.031 HD
ATOM     37  H   UNL     1      -1.889  12.668  22.977  0.00  0.00    +0.031 HD
ATOM     38  H   UNL     1      -3.579  12.478  20.279  0.00  0.00    +0.062 HD
ATOM     39  H   UNL     1      -2.757  12.602  17.932  0.00  0.00    +0.062 HD
ATOM     40  H   UNL     1      -0.401  12.022  17.400  0.00  0.00    +0.062 HD
ATOM     41  H   UNL     1       1.162  11.309  19.210  0.00  0.00    +0.062 HD
ENDBRANCH  21  24
ENDBRANCH  15  18
ENDBRANCH   4  15
BRANCH   1  42
ATOM     42  O   UNL     1       4.803   4.314  16.944  0.00  0.00    -0.489 OA
BRANCH  42  43
ATOM     43  C   UNL     1       5.903   5.178  16.637  0.00  0.00    +0.101 C 
ATOM     44  H   UNL     1       5.994   5.971  17.392  0.00  0.00    +0.073 HD
BRANCH  43  45
ATOM     45  C   UNL     1       7.171   4.334  16.736  0.00  0.00    -0.027 C 
ATOM     46  H   UNL     1       7.363   3.841  15.780  0.00  0.00    +0.027 HD
ATOM     47  H   UNL     1       7.084   3.568  17.508  0.00  0.00    +0.027 HD
ATOM     48  H   UNL     1       8.056   4.948  16.940  0.00  0.00    +0.027 HD
ENDBRANCH  43  45
BRANCH  43  49
ATOM     49  C   UNL     1       5.748   5.826  15.249  0.00  0.00    +0.009 C 
ATOM     50  H   UNL     1       6.367   6.732  15.226  0.00  0.00    +0.035 HD
ATOM     51  H   UNL     1       4.720   6.166  15.112  0.00  0.00    +0.035 HD
BRANCH  49  52
ATOM     52  C   UNL     1       6.085   4.956  14.059  0.00  0.00    -0.044 A 
ATOM     53  C   UNL     1       7.294   5.139  13.357  0.00  0.00    -0.058 A 
ATOM     54  C   UNL     1       7.597   4.341  12.252  0.00  0.00    -0.061 A 
ATOM     55  C   UNL     1       6.700   3.349  11.837  0.00  0.00    -0.062 A 
ATOM     56  C   UNL     1       5.494   3.158  12.526  0.00  0.00    -0.061 A 
ATOM     57  C   UNL     1       5.187   3.959  13.626  0.00  0.00    -0.058 A 
ATOM     58  H   UNL     1       8.013   5.908  13.659  0.00  0.00    +0.062 HD
ATOM     59  H   UNL     1       8.540   4.501  11.720  0.00  0.00    +0.062 HD
ATOM     60  H   UNL     1       6.940   2.723  10.982  0.00  0.00    +0.062 HD
ATOM     61  H   UNL     1       4.788   2.383  12.210  0.00  0.00    +0.062 HD
ATOM     62  H   UNL     1       4.241   3.797  14.145  0.00  0.00    +0.062 HD
ENDBRANCH  49  52
ENDBRANCH  43  49
ENDBRANCH  42  43
ENDBRANCH   1  42
TORSDOF 9
ENDMDL
MODEL 9
REMARK VINA RESULT:    -7.803      1.459      2.320
REMARK INTER + INTRA:         -12.376
REMARK INTER:                 -10.983
REMARK INTRA:                  -1.393
REMARK UNBOUND:                -0.695
REMARK  Name = 
REMARK  9 active torsions:
REMARK  status: ('A' for Active; 'I' for Inactive)
REMARK    1  A    between atoms: C_1  and  C_2
REMARK    2  A    between atoms: C_2  and  C_3
REMARK    3  A    between atoms: C_2  and  O_10
REMARK    4  A    between atoms: C_3  and  C_4
REMARK    5  A    between atoms: O_10  and  C_11
REMARK    6  A    between atoms: C_14  and  C_15
REMARK    7  A    between atoms: C_15  and  N_16
REMARK    8  A    between atoms: N_19  and  C_20
REMARK    9  A    between atoms: C_29  and  C_30
REMARK                            x       y       z     vdW  Elec       q    Type
REMARK                         _______ _______ _______ _____ _____    ______ ____
ROOT
ATOM      1  C   UNL     1       4.141   6.481  18.245  0.00  0.00    +0.122 A 
ATOM      2  C   UNL     1       3.711   5.891  19.443  0.00  0.00    -0.020 A 
ATOM      3  C   UNL     1       2.632   6.424  20.156  0.00  0.00    -0.053 A 
ATOM      4  C   UNL     1       1.946   7.551  19.661  0.00  0.00    -0.018 A 
ATOM      5  C   UNL     1       2.347   8.096  18.422  0.00  0.00    +0.045 A 
ATOM      6  C   UNL     1       3.451   7.577  17.728  0.00  0.00    -0.008 A 
ATOM      7  H   UNL     1       4.211   4.996  19.818  0.00  0.00    +0.065 HD
ATOM      8  H   UNL     1       2.309   5.939  21.085  0.00  0.00    +0.062 HD
ATOM      9  H   UNL     1       3.703   7.997  16.758  0.00  0.00    +0.066 HD
ENDROOT
BRANCH   5  10
ATOM     10  C   UNL     1       1.543   9.148  17.760  0.00  0.00    +0.242 C 
ATOM     11  N   UNL     1       2.125  10.379  17.672  0.00  0.00    -0.325 N 
ATOM     12  O   UNL     1       0.428   8.902  17.324  0.00  0.00    -0.270 OA
ATOM     13  H   UNL     1       1.526  11.125  17.343  0.00  0.00    +0.145 HD
ATOM     14  H   UNL     1       2.907  10.628  18.255  0.00  0.00    +0.145 HD
ENDBRANCH   5  10
BRANCH   4  15
ATOM     15  C   UNL     1       0.785   8.111  20.439  0.00  0.00    +0.039 C 
ATOM     16  H   UNL     1      -0.091   8.208  19.783  0.00  0.00    +0.051 HD
ATOM     17  H   UNL     1       0.484   7.441  21.251  0.00  0.00    +0.051 HD
BRANCH  15  18
ATOM     18  N   UNL     1       1.109   9.402  20.991  0.00  0.00    -0.295 N 
ATOM     19  C   UNL     1       0.240  10.443  20.808  0.00  0.00    +0.300 C 
ATOM     20  O   UNL     1      -0.772  10.387  20.120  0.00  0.00    -0.253 OA
ATOM     21  N   UNL     1       0.671  11.563  21.463  0.00  0.00    -0.293 N 
ATOM     22  H   UNL     1       1.548   9.383  21.912  0.00  0.00    +0.151 HD
ATOM     23  H   UNL     1       1.677  11.625  21.583  0.00  0.00    +0.151 HD
BRANCH  21  24
ATOM     24  C   UNL     1      -0.018  12.820  21.271  0.00  0.00    +0.050 C 
ATOM     25  C   UNL     1       0.888  14.044  21.542  0.00  0.00    -0.026 C 
ATOM     26  C   UNL     1      -0.027  15.160  22.064  0.00  0.00    -0.025 C 
ATOM     27  C   UNL     1      -1.101  14.367  22.741  0.00  0.00    -0.042 A 
ATOM     28  C   UNL     1      -2.037  14.815  23.662  0.00  0.00    -0.058 A 
ATOM     29  C   UNL     1      -2.988  13.909  24.142  0.00  0.00    -0.061 A 
ATOM     30  C   UNL     1      -3.001  12.580  23.686  0.00  0.00    -0.061 A 
ATOM     31  C   UNL     1      -2.061  12.142  22.746  0.00  0.00    -0.057 A 
ATOM     32  C   UNL     1      -1.106  13.042  22.288  0.00  0.00    -0.024 A 
ATOM     33  H   UNL     1      -0.432  12.865  20.257  0.00  0.00    +0.055 HD
ATOM     34  H   UNL     1       1.448  14.354  20.652  0.00  0.00    +0.029 HD
ATOM     35  H   UNL     1       1.636  13.805  22.312  0.00  0.00    +0.029 HD
ATOM     36  H   UNL     1       0.510  15.821  22.752  0.00  0.00    +0.031 HD
ATOM     37  H   UNL     1      -0.450  15.742  21.240  0.00  0.00    +0.031 HD
ATOM     38  H   UNL     1      -2.034  15.844  24.005  0.00  0.00    +0.062 HD
ATOM     39  H   UNL     1      -3.727  14.237  24.873  0.00  0.00    +0.062 HD
ATOM     40  H   UNL     1      -3.753  11.889  24.063  0.00  0.00    +0.062 HD
ATOM     41  H   UNL     1      -2.084  11.118  22.376  0.00  0.00    +0.062 HD
ENDBRANCH  21  24
ENDBRANCH  15  18
ENDBRANCH   4  15
BRANCH   1  42
ATOM     42  O   UNL     1       5.175   5.844  17.620  0.00  0.00    -0.489 OA
BRANCH  42  43
ATOM     43  C   UNL     1       4.895   5.133  16.409  0.00  0.00    +0.101 C 
ATOM     44  H   UNL     1       3.991   5.531  15.928  0.00  0.00    +0.073 HD
BRANCH  43  45
ATOM     45  C   UNL     1       6.054   5.409  15.455  0.00  0.00    -0.027 C 
ATOM     46  H   UNL     1       5.702   5.364  14.422  0.00  0.00    +0.027 HD
ATOM     47  H   UNL     1       6.857   4.681  15.577  0.00  0.00    +0.027 HD
ATOM     48  H   UNL     1       6.463   6.418  15.589  0.00  0.00    +0.027 HD
ENDBRANCH  43  45
BRANCH  43  49
ATOM     49  C   UNL     1       4.703   3.628  16.665  0.00  0.00    +0.009 C 
ATOM     50  H   UNL     1       5.642   3.229  17.069  0.00  0.00    +0.035 HD
ATOM     51  H   UNL     1       4.545   3.108  15.717  0.00  0.00    +0.035 HD
BRANCH  49  52
ATOM     52  C   UNL     1       3.560   3.240  17.574  0.00  0.00    -0.044 A 
ATOM     53  C   UNL     1       3.788   2.434  18.709  0.00  0.00    -0.058 A 
ATOM     54  C   UNL     1       2.728   2.069  19.541  0.00  0.00    -0.061 A 
ATOM     55  C   UNL     1       1.428   2.506  19.253  0.00  0.00    -0.062 A 
ATOM     56  C   UNL     1       1.188   3.306  18.127  0.00  0.00    -0.061 A 
ATOM     57  C   UNL     1       2.246   3.665  17.292  0.00  0.00    -0.058 A 
ATOM     58  H   UNL     1       4.793   2.078  18.957  0.00  0.00    +0.062 HD
ATOM     59  H   UNL     1       2.926   1.441  20.415  0.00  0.00    +0.062 HD
ATOM     60  H   UNL     1       0.605   2.228  19.905  0.00  0.00    +0.062 HD
ATOM     61  H   UNL     1       0.176   3.654  17.896  0.00  0.00    +0.062 HD
ATOM     62  H   UNL     1       2.036   4.284  16.418  0.00  0.00    +0.062 HD
ENDBRANCH  49  52
ENDBRANCH  43  49
ENDBRANCH  42  43
ENDBRANCH   1  42
TORSDOF 9
ENDMDL
MODEL 10
REMARK VINA RESULT:    -7.791      2.783      9.336
REMARK INTER + INTRA:         -12.357
REMARK INTER:                 -10.656
REMARK INTRA:                  -1.702
REMARK UNBOUND:                -0.695
REMARK  Name = 
REMARK  9 active torsions:
REMARK  status: ('A' for Active; 'I' for Inactive)
REMARK    1  A    between atoms: C_1  and  C_2
REMARK    2  A    between atoms: C_2  and  C_3
REMARK    3  A    between atoms: C_2  and  O_10
REMARK    4  A    between atoms: C_3  and  C_4
REMARK    5  A    between atoms: O_10  and  C_11
REMARK    6  A    between atoms: C_14  and  C_15
REMARK    7  A    between atoms: C_15  and  N_16
REMARK    8  A    between atoms: N_19  and  C_20
REMARK    9  A    between atoms: C_29  and  C_30
REMARK                            x       y       z     vdW  Elec       q    Type
REMARK                         _______ _______ _______ _____ _____    ______ ____
ROOT
ATOM      1  C   UNL     1      -1.823  12.111  20.117  0.00  0.00    +0.122 A 
ATOM      2  C   UNL     1      -1.649  11.581  21.404  0.00  0.00    -0.020 A 
ATOM      3  C   UNL     1      -0.473  10.908  21.748  0.00  0.00    -0.053 A 
ATOM      4  C   UNL     1       0.568  10.778  20.808  0.00  0.00    -0.018 A 
ATOM      5  C   UNL     1       0.408  11.373  19.537  0.00  0.00    +0.045 A 
ATOM      6  C   UNL     1      -0.788  12.017  19.187  0.00  0.00    -0.008 A 
ATOM      7  H   UNL     1      -2.433  11.706  22.154  0.00  0.00    +0.065 HD
ATOM      8  H   UNL     1      -0.358  10.511  22.765  0.00  0.00    +0.062 HD
ATOM      9  H   UNL     1      -0.857  12.498  18.214  0.00  0.00    +0.066 HD
ENDROOT
BRANCH   5  10
ATOM     10  C   UNL     1       1.538  11.441  18.583  0.00  0.00    +0.242 C 
ATOM     11  N   UNL     1       1.616  10.426  17.675  0.00  0.00    -0.325 N 
ATOM     12  O   UNL     1       2.339  12.363  18.627  0.00  0.00    -0.270 OA
ATOM     13  H   UNL     1       2.459  10.402  17.116  0.00  0.00    +0.145 HD
ATOM     14  H   UNL     1       1.124   9.560  17.818  0.00  0.00    +0.145 HD
ENDBRANCH   5  10
BRANCH   4  15
ATOM     15  C   UNL     1       1.830  10.053  21.195  0.00  0.00    +0.039 C 
ATOM     16  H   UNL     1       2.576  10.152  20.396  0.00  0.00    +0.051 HD
ATOM     17  H   UNL     1       2.285  10.489  22.091  0.00  0.00    +0.051 HD
BRANCH  15  18
ATOM     18  N   UNL     1       1.570   8.656  21.431  0.00  0.00    -0.295 N 
ATOM     19  C   UNL     1       1.758   7.761  20.414  0.00  0.00    +0.300 C 
ATOM     20  O   UNL     1       2.048   8.071  19.265  0.00  0.00    -0.253 OA
ATOM     21  N   UNL     1       1.539   6.481  20.839  0.00  0.00    -0.293 N 
ATOM     22  H   UNL     1       1.856   8.310  22.348  0.00  0.00    +0.151 HD
ATOM     23  H   UNL     1       0.886   6.394  21.612  0.00  0.00    +0.151 HD
BRANCH  21  24
ATOM     24  C   UNL     1       1.529   5.395  19.884  0.00  0.00    +0.050 C 
ATOM     25  C   UNL     1       0.794   4.141  20.413  0.00  0.00    -0.026 C 
ATOM     26  C   UNL     1       1.471   2.928  19.761  0.00  0.00    -0.025 C 
ATOM     27  C   UNL     1       2.868   3.435  19.576  0.00  0.00    -0.042 A 
ATOM     28  C   UNL     1       4.014   2.696  19.323  0.00  0.00    -0.058 A 
ATOM     29  C   UNL     1       5.221   3.379  19.139  0.00  0.00    -0.061 A 
ATOM     30  C   UNL     1       5.262   4.782  19.192  0.00  0.00    -0.061 A 
ATOM     31  C   UNL     1       4.096   5.519  19.431  0.00  0.00    -0.057 A 
ATOM     32  C   UNL     1       2.904   4.834  19.635  0.00  0.00    -0.024 A 
ATOM     33  H   UNL     1       1.082   5.734  18.942  0.00  0.00    +0.055 HD
ATOM     34  H   UNL     1      -0.282   4.171  20.207  0.00  0.00    +0.029 HD
ATOM     35  H   UNL     1       0.900   4.066  21.505  0.00  0.00    +0.029 HD
ATOM     36  H   UNL     1       1.422   2.050  20.414  0.00  0.00    +0.031 HD
ATOM     37  H   UNL     1       1.021   2.698  18.791  0.00  0.00    +0.031 HD
ATOM     38  H   UNL     1       3.981   1.614  19.272  0.00  0.00    +0.062 HD
ATOM     39  H   UNL     1       6.136   2.818  18.948  0.00  0.00    +0.062 HD
ATOM     40  H   UNL     1       6.208   5.299  19.037  0.00  0.00    +0.062 HD
ATOM     41  H   UNL     1       4.123   6.607  19.451  0.00  0.00    +0.062 HD
ENDBRANCH  21  24
ENDBRANCH  15  18
ENDBRANCH   4  15
BRANCH   1  42
ATOM     42  O   UNL     1      -2.995  12.783  19.916  0.00  0.00    -0.489 OA
BRANCH  42  43
ATOM     43  C   UNL     1      -4.218  12.040  19.988  0.00  0.00    +0.101 C 
ATOM     44  H   UNL     1      -4.031  11.024  20.358  0.00  0.00    +0.073 HD
BRANCH  43  45
ATOM     45  C   UNL     1      -5.094  12.730  21.032  0.00  0.00    -0.027 C 
ATOM     46  H   UNL     1      -6.119  12.808  20.661  0.00  0.00    +0.027 HD
ATOM     47  H   UNL     1      -4.732  13.733  21.260  0.00  0.00    +0.027 HD
ATOM     48  H   UNL     1      -5.154  12.151  21.961  0.00  0.00    +0.027 HD
ENDBRANCH  43  45
BRANCH  43  49
ATOM     49  C   UNL     1      -4.912  11.953  18.618  0.00  0.00    +0.009 C 
ATOM     50  H   UNL     1      -5.119  12.976  18.276  0.00  0.00    +0.035 HD
ATOM     51  H   UNL     1      -5.888  11.475  18.726  0.00  0.00    +0.035 HD
BRANCH  49  52
ATOM     52  C   UNL     1      -4.172  11.201  17.535  0.00  0.00    -0.044 A 
ATOM     53  C   UNL     1      -4.233  11.633  16.194  0.00  0.00    -0.058 A 
ATOM     54  C   UNL     1      -3.556  10.930  15.194  0.00  0.00    -0.061 A 
ATOM     55  C   UNL     1      -2.810   9.790  15.522  0.00  0.00    -0.062 A 
ATOM     56  C   UNL     1      -2.744   9.350  16.851  0.00  0.00    -0.061 A 
ATOM     57  C   UNL     1      -3.425  10.049  17.849  0.00  0.00    -0.058 A 
ATOM     58  H   UNL     1      -4.809  12.519  15.909  0.00  0.00    +0.062 HD
ATOM     59  H   UNL     1      -3.618  11.280  14.160  0.00  0.00    +0.062 HD
ATOM     60  H   UNL     1      -2.278   9.248  14.745  0.00  0.00    +0.062 HD
ATOM     61  H   UNL     1      -2.161   8.462  17.117  0.00  0.00    +0.062 HD
ATOM     62  H   UNL     1      -3.364   9.686  18.877  0.00  0.00    +0.062 HD
ENDBRANCH  49  52
ENDBRANCH  43  49
ENDBRANCH  42  43
ENDBRANCH   1  42
TORSDOF 9
ENDMDL
MODEL 11
REMARK VINA RESULT:    -7.733      3.949     10.607
REMARK INTER + INTRA:         -12.270
REMARK INTER:                 -11.600
REMARK INTRA:                  -0.670
REMARK UNBOUND:                -0.695
REMARK  Name = 
REMARK  9 active torsions:
REMARK  status: ('A' for Active; 'I' for Inactive)
REMARK    1  A    between atoms: C_1  and  C_2
REMARK    2  A    between atoms: C_2  and  C_3
REMARK    3  A    between atoms: C_2  and  O_10
REMARK    4  A    between atoms: C_3  and  C_4
REMARK    5  A    between atoms: O_10  and  C_11
REMARK    6  A    between atoms: C_14  and  C_15
REMARK    7  A    between atoms: C_15  and  N_16
REMARK    8  A    between atoms: N_19  and  C_20
REMARK    9  A    between atoms: C_29  and  C_30
REMARK                            x       y       z     vdW  Elec       q    Type
REMARK                         _______ _______ _______ _____ _____    ______ ____
ROOT
ATOM      1  C   UNL     1       1.951   6.957  20.354  0.00  0.00    +0.122 A 
ATOM      2  C   UNL     1       1.856   6.932  18.954  0.00  0.00    -0.020 A 
ATOM      3  C   UNL     1       1.882   5.720  18.257  0.00  0.00    -0.053 A 
ATOM      4  C   UNL     1       1.979   4.503  18.959  0.00  0.00    -0.018 A 
ATOM      5  C   UNL     1       2.008   4.537  20.371  0.00  0.00    +0.045 A 
ATOM      6  C   UNL     1       2.014   5.758  21.063  0.00  0.00    -0.008 A 
ATOM      7  H   UNL     1       1.743   7.866  18.401  0.00  0.00    +0.065 HD
ATOM      8  H   UNL     1       1.797   5.726  17.163  0.00  0.00    +0.062 HD
ATOM      9  H   UNL     1       1.996   5.743  22.150  0.00  0.00    +0.066 HD
ENDROOT
BRANCH   5  10
ATOM     10  C   UNL     1       1.909   3.291  21.164  0.00  0.00    +0.242 C 
ATOM     11  N   UNL     1       3.090   2.752  21.582  0.00  0.00    -0.325 N 
ATOM     12  O   UNL     1       0.820   2.796  21.417  0.00  0.00    -0.270 OA
ATOM     13  H   UNL     1       3.029   1.834  22.004  0.00  0.00    +0.145 HD
ATOM     14  H   UNL     1       3.962   3.013  21.152  0.00  0.00    +0.145 HD
ENDBRANCH   5  10
BRANCH   4  15
ATOM     15  C   UNL     1       2.004   3.206  18.195  0.00  0.00    +0.039 C 
ATOM     16  H   UNL     1       2.442   2.414  18.818  0.00  0.00    +0.051 HD
ATOM     17  H   UNL     1       0.993   2.869  17.942  0.00  0.00    +0.051 HD
BRANCH  15  18
ATOM     18  N   UNL     1       2.773   3.336  16.983  0.00  0.00    -0.295 N 
ATOM     19  C   UNL     1       4.130   3.485  17.068  0.00  0.00    +0.300 C 
ATOM     20  O   UNL     1       4.748   3.612  18.118  0.00  0.00    -0.253 OA
ATOM     21  N   UNL     1       4.699   3.515  15.826  0.00  0.00    -0.293 N 
ATOM     22  H   UNL     1       2.467   2.746  16.209  0.00  0.00    +0.151 HD
ATOM     23  H   UNL     1       4.094   3.863  15.088  0.00  0.00    +0.151 HD
BRANCH  21  24
ATOM     24  C   UNL     1       6.104   3.825  15.683  0.00  0.00    +0.050 C 
ATOM     25  C   UNL     1       6.480   5.194  16.298  0.00  0.00    -0.026 C 
ATOM     26  C   UNL     1       7.650   5.740  15.470  0.00  0.00    -0.025 C 
ATOM     27  C   UNL     1       7.373   5.132  14.131  0.00  0.00    -0.042 A 
ATOM     28  C   UNL     1       7.900   5.503  12.902  0.00  0.00    -0.058 A 
ATOM     29  C   UNL     1       7.537   4.766  11.770  0.00  0.00    -0.061 A 
ATOM     30  C   UNL     1       6.671   3.666  11.883  0.00  0.00    -0.061 A 
ATOM     31  C   UNL     1       6.156   3.291  13.129  0.00  0.00    -0.057 A 
ATOM     32  C   UNL     1       6.504   4.040  14.247  0.00  0.00    -0.024 A 
ATOM     33  H   UNL     1       6.708   3.025  16.128  0.00  0.00    +0.055 HD
ATOM     34  H   UNL     1       6.729   5.118  17.363  0.00  0.00    +0.029 HD
ATOM     35  H   UNL     1       5.633   5.892  16.225  0.00  0.00    +0.029 HD
ATOM     36  H   UNL     1       7.642   6.835  15.449  0.00  0.00    +0.031 HD
ATOM     37  H   UNL     1       8.609   5.382  15.857  0.00  0.00    +0.031 HD
ATOM     38  H   UNL     1       8.578   6.345  12.817  0.00  0.00    +0.062 HD
ATOM     39  H   UNL     1       7.933   5.046  10.794  0.00  0.00    +0.062 HD
ATOM     40  H   UNL     1       6.405   3.097  10.993  0.00  0.00    +0.062 HD
ATOM     41  H   UNL     1       5.502   2.425  13.220  0.00  0.00    +0.062 HD
ENDBRANCH  21  24
ENDBRANCH  15  18
ENDBRANCH   4  15
BRANCH   1  42
ATOM     42  O   UNL     1       1.869   8.197  20.921  0.00  0.00    -0.489 OA
BRANCH  42  43
ATOM     43  C   UNL     1       0.604   8.868  20.895  0.00  0.00    +0.101 C 
ATOM     44  H   UNL     1      -0.167   8.222  20.455  0.00  0.00    +0.073 HD
BRANCH  43  45
ATOM     45  C   UNL     1       0.197   9.104  22.348  0.00  0.00    -0.027 C 
ATOM     46  H   UNL     1      -0.322   8.223  22.734  0.00  0.00    +0.027 HD
ATOM     47  H   UNL     1      -0.465   9.964  22.445  0.00  0.00    +0.027 HD
ATOM     48  H   UNL     1       1.069   9.247  22.998  0.00  0.00    +0.027 HD
ENDBRANCH  43  45
BRANCH  43  49
ATOM     49  C   UNL     1       0.673  10.180  20.095  0.00  0.00    +0.009 C 
ATOM     50  H   UNL     1       1.587  10.161  19.489  0.00  0.00    +0.035 HD
ATOM     51  H   UNL     1       0.787  11.025  20.777  0.00  0.00    +0.035 HD
BRANCH  49  52
ATOM     52  C   UNL     1      -0.512  10.490  19.208  0.00  0.00    -0.044 A 
ATOM     53  C   UNL     1      -0.676   9.827  17.974  0.00  0.00    -0.058 A 
ATOM     54  C   UNL     1      -1.766  10.123  17.152  0.00  0.00    -0.061 A 
ATOM     55  C   UNL     1      -2.705  11.082  17.553  0.00  0.00    -0.062 A 
ATOM     56  C   UNL     1      -2.552  11.749  18.776  0.00  0.00    -0.061 A 
ATOM     57  C   UNL     1      -1.460  11.458  19.595  0.00  0.00    -0.058 A 
ATOM     58  H   UNL     1       0.043   9.074  17.636  0.00  0.00    +0.062 HD
ATOM     59  H   UNL     1      -1.874   9.598  16.198  0.00  0.00    +0.062 HD
ATOM     60  H   UNL     1      -3.557  11.306  16.917  0.00  0.00    +0.062 HD
ATOM     61  H   UNL     1      -3.283  12.498  19.098  0.00  0.00    +0.062 HD
ATOM     62  H   UNL     1      -1.357  11.993  20.540  0.00  0.00    +0.062 HD
ENDBRANCH  49  52
ENDBRANCH  43  49
ENDBRANCH  42  43
ENDBRANCH   1  42
TORSDOF 9
ENDMDL
MODEL 12
REMARK VINA RESULT:    -7.717      2.801      5.028
REMARK INTER + INTRA:         -12.247
REMARK INTER:                 -12.031
REMARK INTRA:                  -0.216
REMARK UNBOUND:                -0.695
REMARK  Name = 
REMARK  9 active torsions:
REMARK  status: ('A' for Active; 'I' for Inactive)
REMARK    1  A    between atoms: C_1  and  C_2
REMARK    2  A    between atoms: C_2  and  C_3
REMARK    3  A    between atoms: C_2  and  O_10
REMARK    4  A    between atoms: C_3  and  C_4
REMARK    5  A    between atoms: O_10  and  C_11
REMARK    6  A    between atoms: C_14  and  C_15
REMARK    7  A    between atoms: C_15  and  N_16
REMARK    8  A    between atoms: N_19  and  C_20
REMARK    9  A    between atoms: C_29  and  C_30
REMARK                            x       y       z     vdW  Elec       q    Type
REMARK                         _______ _______ _______ _____ _____    ______ ____
ROOT
ATOM      1  C   UNL     1       3.288   4.583  17.561  0.00  0.00    +0.122 A 
ATOM      2  C   UNL     1       3.366   5.981  17.646  0.00  0.00    -0.020 A 
ATOM      3  C   UNL     1       2.821   6.663  18.739  0.00  0.00    -0.053 A 
ATOM      4  C   UNL     1       2.207   5.946  19.784  0.00  0.00    -0.018 A 
ATOM      5  C   UNL     1       2.192   4.536  19.719  0.00  0.00    +0.045 A 
ATOM      6  C   UNL     1       2.711   3.859  18.604  0.00  0.00    -0.008 A 
ATOM      7  H   UNL     1       3.872   6.546  16.861  0.00  0.00    +0.065 HD
ATOM      8  H   UNL     1       2.903   7.756  18.787  0.00  0.00    +0.062 HD
ATOM      9  H   UNL     1       2.718   2.772  18.609  0.00  0.00    +0.066 HD
ENDROOT
BRANCH   5  10
ATOM     10  C   UNL     1       1.742   3.726  20.873  0.00  0.00    +0.242 C 
ATOM     11  N   UNL     1       0.565   3.054  20.711  0.00  0.00    -0.325 N 
ATOM     12  O   UNL     1       2.405   3.677  21.899  0.00  0.00    -0.270 OA
ATOM     13  H   UNL     1       0.194   2.614  21.543  0.00  0.00    +0.145 HD
ATOM     14  H   UNL     1      -0.083   3.310  19.986  0.00  0.00    +0.145 HD
ENDBRANCH   5  10
BRANCH   4  15
ATOM     15  C   UNL     1       1.627   6.694  20.955  0.00  0.00    +0.039 C 
ATOM     16  H   UNL     1       0.565   6.440  21.071  0.00  0.00    +0.051 HD
ATOM     17  H   UNL     1       2.112   6.408  21.895  0.00  0.00    +0.051 HD
BRANCH  15  18
ATOM     18  N   UNL     1       1.756   8.118  20.773  0.00  0.00    -0.295 N 
ATOM     19  C   UNL     1       0.656   8.914  20.941  0.00  0.00    +0.300 C 
ATOM     20  O   UNL     1      -0.476   8.496  21.149  0.00  0.00    -0.253 OA
ATOM     21  N   UNL     1       0.982  10.235  20.806  0.00  0.00    -0.293 N 
ATOM     22  H   UNL     1       2.623   8.524  21.127  0.00  0.00    +0.151 HD
ATOM     23  H   UNL     1       1.779  10.418  20.204  0.00  0.00    +0.151 HD
BRANCH  21  24
ATOM     24  C   UNL     1      -0.061  11.236  20.788  0.00  0.00    +0.050 C 
ATOM     25  C   UNL     1      -1.145  10.952  19.723  0.00  0.00    -0.026 C 
ATOM     26  C   UNL     1      -1.681  12.315  19.267  0.00  0.00    -0.025 C 
ATOM     27  C   UNL     1      -0.478  13.184  19.462  0.00  0.00    -0.042 A 
ATOM     28  C   UNL     1      -0.246  14.447  18.936  0.00  0.00    -0.058 A 
ATOM     29  C   UNL     1       0.937  15.108  19.283  0.00  0.00    -0.061 A 
ATOM     30  C   UNL     1       1.857  14.509  20.160  0.00  0.00    -0.061 A 
ATOM     31  C   UNL     1       1.606  13.242  20.698  0.00  0.00    -0.057 A 
ATOM     32  C   UNL     1       0.439  12.581  20.332  0.00  0.00    -0.024 A 
ATOM     33  H   UNL     1      -0.513  11.318  21.784  0.00  0.00    +0.055 HD
ATOM     34  H   UNL     1      -1.943  10.302  20.102  0.00  0.00    +0.029 HD
ATOM     35  H   UNL     1      -0.706  10.432  18.858  0.00  0.00    +0.029 HD
ATOM     36  H   UNL     1      -2.014  12.280  18.224  0.00  0.00    +0.031 HD
ATOM     37  H   UNL     1      -2.500  12.653  19.909  0.00  0.00    +0.031 HD
ATOM     38  H   UNL     1      -0.962  14.913  18.268  0.00  0.00    +0.062 HD
ATOM     39  H   UNL     1       1.143  16.097  18.874  0.00  0.00    +0.062 HD
ATOM     40  H   UNL     1       2.768  15.041  20.428  0.00  0.00    +0.062 HD
ATOM     41  H   UNL     1       2.308  12.787  21.394  0.00  0.00    +0.062 HD
ENDBRANCH  21  24
ENDBRANCH  15  18
ENDBRANCH   4  15
BRANCH   1  42
ATOM     42  O   UNL     1       3.894   4.031  16.469  0.00  0.00    -0.489 OA
BRANCH  42  43
ATOM     43  C   UNL     1       5.310   4.198  16.328  0.00  0.00    +0.101 C 
ATOM     44  H   UNL     1       5.832   3.833  17.223  0.00  0.00    +0.073 HD
BRANCH  43  45
ATOM     45  C   UNL     1       5.749   3.303  15.172  0.00  0.00    -0.027 C 
ATOM     46  H   UNL     1       6.681   3.680  14.745  0.00  0.00    +0.027 HD
ATOM     47  H   UNL     1       4.997   3.269  14.382  0.00  0.00    +0.027 HD
ATOM     48  H   UNL     1       5.964   2.280  15.505  0.00  0.00    +0.027 HD
ENDBRANCH  43  45
BRANCH  43  49
ATOM     49  C   UNL     1       5.689   5.671  16.094  0.00  0.00    +0.009 C 
ATOM     50  H   UNL     1       4.763   6.260  16.075  0.00  0.00    +0.035 HD
ATOM     51  H   UNL     1       6.134   5.786  15.104  0.00  0.00    +0.035 HD
BRANCH  49  52
ATOM     52  C   UNL     1       6.654   6.282  17.084  0.00  0.00    -0.044 A 
ATOM     53  C   UNL     1       7.123   5.534  18.183  0.00  0.00    -0.058 A 
ATOM     54  C   UNL     1       8.007   6.106  19.101  0.00  0.00    -0.061 A 
ATOM     55  C   UNL     1       8.436   7.429  18.931  0.00  0.00    -0.062 A 
ATOM     56  C   UNL     1       7.976   8.183  17.843  0.00  0.00    -0.061 A 
ATOM     57  C   UNL     1       7.087   7.615  16.929  0.00  0.00    -0.058 A 
ATOM     58  H   UNL     1       6.804   4.499  18.342  0.00  0.00    +0.062 HD
ATOM     59  H   UNL     1       8.357   5.509  19.949  0.00  0.00    +0.062 HD
ATOM     60  H   UNL     1       9.129   7.870  19.641  0.00  0.00    +0.062 HD
ATOM     61  H   UNL     1       8.308   9.217  17.701  0.00  0.00    +0.062 HD
ATOM     62  H   UNL     1       6.737   8.221  16.092  0.00  0.00    +0.062 HD
ENDBRANCH  49  52
ENDBRANCH  43  49
ENDBRANCH  42  43
ENDBRANCH   1  42
TORSDOF 9
ENDMDL
MODEL 13
REMARK VINA RESULT:    -7.681      2.271      4.163
REMARK INTER + INTRA:         -12.192
REMARK INTER:                 -10.893
REMARK INTRA:                  -1.300
REMARK UNBOUND:                -0.695
REMARK  Name = 
REMARK  9 active torsions:
REMARK  status: ('A' for Active; 'I' for Inactive)
REMARK    1  A    between atoms: C_1  and  C_2
REMARK    2  A    between atoms: C_2  and  C_3
REMARK    3  A    between atoms: C_2  and  O_10
REMARK    4  A    between atoms: C_3  and  C_4
REMARK    5  A    between atoms: O_10  and  C_11
REMARK    6  A    between atoms: C_14  and  C_15
REMARK    7  A    between atoms: C_15  and  N_16
REMARK    8  A    between atoms: N_19  and  C_20
REMARK    9  A    between atoms: C_29  and  C_30
REMARK                            x       y       z     vdW  Elec       q    Type
REMARK                         _______ _______ _______ _____ _____    ______ ____
ROOT
ATOM      1  C   UNL     1       3.450   5.376  17.739  0.00  0.00    +0.122 A 
ATOM      2  C   UNL     1       3.389   6.753  18.003  0.00  0.00    -0.020 A 
ATOM      3  C   UNL     1       2.663   7.240  19.094  0.00  0.00    -0.053 A 
ATOM      4  C   UNL     1       2.002   6.347  19.960  0.00  0.00    -0.018 A 
ATOM      5  C   UNL     1       2.125   4.960  19.722  0.00  0.00    +0.045 A 
ATOM      6  C   UNL     1       2.828   4.478  18.607  0.00  0.00    -0.008 A 
ATOM      7  H   UNL     1       3.927   7.453  17.361  0.00  0.00    +0.065 HD
ATOM      8  H   UNL     1       2.638   8.320  19.285  0.00  0.00    +0.062 HD
ATOM      9  H   UNL     1       2.935   3.404  18.480  0.00  0.00    +0.066 HD
ENDROOT
BRANCH   5  10
ATOM     10  C   UNL     1       1.623   3.973  20.704  0.00  0.00    +0.242 C 
ATOM     11  N   UNL     1       0.480   3.313  20.359  0.00  0.00    -0.325 N 
ATOM     12  O   UNL     1       2.217   3.778  21.754  0.00  0.00    -0.270 OA
ATOM     13  H   UNL     1       0.067   2.743  21.085  0.00  0.00    +0.145 HD
ATOM     14  H   UNL     1      -0.126   3.666  19.638  0.00  0.00    +0.145 HD
ENDBRANCH   5  10
BRANCH   4  15
ATOM     15  C   UNL     1       1.226   6.887  21.131  0.00  0.00    +0.039 C 
ATOM     16  H   UNL     1       0.149   6.828  20.924  0.00  0.00    +0.051 HD
ATOM     17  H   UNL     1       1.395   6.291  22.035  0.00  0.00    +0.051 HD
BRANCH  15  18
ATOM     18  N   UNL     1       1.583   8.257  21.399  0.00  0.00    -0.295 N 
ATOM     19  C   UNL     1       0.754   9.258  20.969  0.00  0.00    +0.300 C 
ATOM     20  O   UNL     1      -0.243   9.083  20.280  0.00  0.00    -0.253 OA
ATOM     21  N   UNL     1       1.210  10.481  21.377  0.00  0.00    -0.293 N 
ATOM     22  H   UNL     1       2.000   8.427  22.314  0.00  0.00    +0.151 HD
ATOM     23  H   UNL     1       2.215  10.538  21.510  0.00  0.00    +0.151 HD
BRANCH  21  24
ATOM     24  C   UNL     1       0.570  11.685  20.897  0.00  0.00    +0.050 C 
ATOM     25  C   UNL     1       1.556  12.868  20.751  0.00  0.00    -0.026 C 
ATOM     26  C   UNL     1       0.750  14.147  21.010  0.00  0.00    -0.025 C 
ATOM     27  C   UNL     1      -0.296  13.648  21.958  0.00  0.00    -0.042 A 
ATOM     28  C   UNL     1      -1.121  14.396  22.786  0.00  0.00    -0.058 A 
ATOM     29  C   UNL     1      -2.067  13.726  23.568  0.00  0.00    -0.061 A 
ATOM     30  C   UNL     1      -2.187  12.327  23.499  0.00  0.00    -0.061 A 
ATOM     31  C   UNL     1      -1.361  11.583  22.649  0.00  0.00    -0.057 A 
ATOM     32  C   UNL     1      -0.408  12.254  21.891  0.00  0.00    -0.024 A 
ATOM     33  H   UNL     1       0.067  11.484  19.944  0.00  0.00    +0.055 HD
ATOM     34  H   UNL     1       2.047  12.883  19.770  0.00  0.00    +0.029 HD
ATOM     35  H   UNL     1       2.359  12.793  21.499  0.00  0.00    +0.029 HD
ATOM     36  H   UNL     1       1.379  14.929  21.446  0.00  0.00    +0.031 HD
ATOM     37  H   UNL     1       0.282  14.513  20.091  0.00  0.00    +0.031 HD
ATOM     38  H   UNL     1      -1.035  15.476  22.830  0.00  0.00    +0.062 HD
ATOM     39  H   UNL     1      -2.719  14.293  24.232  0.00  0.00    +0.062 HD
ATOM     40  H   UNL     1      -2.936  11.822  24.107  0.00  0.00    +0.062 HD
ATOM     41  H   UNL     1      -1.468  10.503  22.580  0.00  0.00    +0.062 HD
ENDBRANCH  21  24
ENDBRANCH  15  18
ENDBRANCH   4  15
BRANCH   1  42
ATOM     42  O   UNL     1       4.226   5.021  16.673  0.00  0.00    -0.489 OA
BRANCH  42  43
ATOM     43  C   UNL     1       5.243   4.033  16.878  0.00  0.00    +0.101 C 
ATOM     44  H   UNL     1       5.284   3.735  17.934  0.00  0.00    +0.073 HD
BRANCH  43  45
ATOM     45  C   UNL     1       4.822   2.794  16.092  0.00  0.00    -0.027 C 
ATOM     46  H   UNL     1       3.806   2.506  16.371  0.00  0.00    +0.027 HD
ATOM     47  H   UNL     1       5.486   1.951  16.286  0.00  0.00    +0.027 HD
ATOM     48  H   UNL     1       4.793   2.985  15.012  0.00  0.00    +0.027 HD
ENDBRANCH  43  45
BRANCH  43  49
ATOM     49  C   UNL     1       6.629   4.546  16.449  0.00  0.00    +0.009 C 
ATOM     50  H   UNL     1       6.569   4.846  15.395  0.00  0.00    +0.035 HD
ATOM     51  H   UNL     1       7.353   3.730  16.484  0.00  0.00    +0.035 HD
BRANCH  49  52
ATOM     52  C   UNL     1       7.208   5.681  17.263  0.00  0.00    -0.044 A 
ATOM     53  C   UNL     1       7.246   6.991  16.741  0.00  0.00    -0.058 A 
ATOM     54  C   UNL     1       7.791   8.035  17.492  0.00  0.00    -0.061 A 
ATOM     55  C   UNL     1       8.301   7.786  18.772  0.00  0.00    -0.062 A 
ATOM     56  C   UNL     1       8.270   6.488  19.302  0.00  0.00    -0.061 A 
ATOM     57  C   UNL     1       7.732   5.443  18.550  0.00  0.00    -0.058 A 
ATOM     58  H   UNL     1       6.855   7.214  15.743  0.00  0.00    +0.062 HD
ATOM     59  H   UNL     1       7.813   9.043  17.067  0.00  0.00    +0.062 HD
ATOM     60  H   UNL     1       8.717   8.599  19.358  0.00  0.00    +0.062 HD
ATOM     61  H   UNL     1       8.664   6.285  20.303  0.00  0.00    +0.062 HD
ATOM     62  H   UNL     1       7.722   4.439  18.978  0.00  0.00    +0.062 HD
ENDBRANCH  49  52
ENDBRANCH  43  49
ENDBRANCH  42  43
ENDBRANCH   1  42
TORSDOF 9
ENDMDL
MODEL 14
REMARK VINA RESULT:    -7.653      2.683     10.151
REMARK INTER + INTRA:         -12.150
REMARK INTER:                 -10.116
REMARK INTRA:                  -2.034
REMARK UNBOUND:                -0.695
REMARK  Name = 
REMARK  9 active torsions:
REMARK  status: ('A' for Active; 'I' for Inactive)
REMARK    1  A    between atoms: C_1  and  C_2
REMARK    2  A    between atoms: C_2  and  C_3
REMARK    3  A    between atoms: C_2  and  O_10
REMARK    4  A    between atoms: C_3  and  C_4
REMARK    5  A    between atoms: O_10  and  C_11
REMARK    6  A    between atoms: C_14  and  C_15
REMARK    7  A    between atoms: C_15  and  N_16
REMARK    8  A    between atoms: N_19  and  C_20
REMARK    9  A    between atoms: C_29  and  C_30
REMARK                            x       y       z     vdW  Elec       q    Type
REMARK                         _______ _______ _______ _____ _____    ______ ____
ROOT
ATOM      1  C   UNL     1      -0.438  11.534  21.371  0.00  0.00    +0.122 A 
ATOM      2  C   UNL     1       0.800  10.877  21.299  0.00  0.00    -0.020 A 
ATOM      3  C   UNL     1       1.177  10.186  20.143  0.00  0.00    -0.053 A 
ATOM      4  C   UNL     1       0.325  10.166  19.022  0.00  0.00    -0.018 A 
ATOM      5  C   UNL     1      -0.889  10.885  19.083  0.00  0.00    +0.045 A 
ATOM      6  C   UNL     1      -1.277  11.548  20.257  0.00  0.00    -0.008 A 
ATOM      7  H   UNL     1       1.485  10.916  22.148  0.00  0.00    +0.065 HD
ATOM      8  H   UNL     1       2.155   9.689  20.109  0.00  0.00    +0.062 HD
ATOM      9  H   UNL     1      -2.199  12.125  20.252  0.00  0.00    +0.066 HD
ENDROOT
BRANCH   5  10
ATOM     10  C   UNL     1      -1.727  11.064  17.876  0.00  0.00    +0.242 C 
ATOM     11  N   UNL     1      -1.554  12.233  17.195  0.00  0.00    -0.325 N 
ATOM     12  O   UNL     1      -2.518  10.198  17.530  0.00  0.00    -0.270 OA
ATOM     13  H   UNL     1      -2.219  12.411  16.454  0.00  0.00    +0.145 HD
ATOM     14  H   UNL     1      -1.110  13.026  17.627  0.00  0.00    +0.145 HD
ENDBRANCH   5  10
BRANCH   4  15
ATOM     15  C   UNL     1       0.747   9.420  17.784  0.00  0.00    +0.039 C 
ATOM     16  H   UNL     1       0.068   8.576  17.608  0.00  0.00    +0.051 HD
ATOM     17  H   UNL     1       0.682  10.053  16.892  0.00  0.00    +0.051 HD
BRANCH  15  18
ATOM     18  N   UNL     1       2.094   8.926  17.913  0.00  0.00    -0.295 N 
ATOM     19  C   UNL     1       2.319   7.578  17.851  0.00  0.00    +0.300 C 
ATOM     20  O   UNL     1       1.436   6.732  17.784  0.00  0.00    -0.253 OA
ATOM     21  N   UNL     1       3.656   7.300  17.914  0.00  0.00    -0.293 N 
ATOM     22  H   UNL     1       2.810   9.489  17.452  0.00  0.00    +0.151 HD
ATOM     23  H   UNL     1       4.210   7.987  18.416  0.00  0.00    +0.151 HD
BRANCH  21  24
ATOM     24  C   UNL     1       4.103   5.930  18.024  0.00  0.00    +0.050 C 
ATOM     25  C   UNL     1       4.906   5.665  19.319  0.00  0.00    -0.026 C 
ATOM     26  C   UNL     1       5.917   4.559  18.991  0.00  0.00    -0.025 C 
ATOM     27  C   UNL     1       6.157   4.803  17.534  0.00  0.00    -0.042 A 
ATOM     28  C   UNL     1       7.200   4.328  16.752  0.00  0.00    -0.058 A 
ATOM     29  C   UNL     1       7.210   4.643  15.389  0.00  0.00    -0.061 A 
ATOM     30  C   UNL     1       6.174   5.408  14.827  0.00  0.00    -0.061 A 
ATOM     31  C   UNL     1       5.119   5.870  15.621  0.00  0.00    -0.057 A 
ATOM     32  C   UNL     1       5.126   5.571  16.979  0.00  0.00    -0.024 A 
ATOM     33  H   UNL     1       3.243   5.252  17.960  0.00  0.00    +0.055 HD
ATOM     34  H   UNL     1       4.260   5.394  20.163  0.00  0.00    +0.029 HD
ATOM     35  H   UNL     1       5.452   6.571  19.624  0.00  0.00    +0.029 HD
ATOM     36  H   UNL     1       6.826   4.663  19.594  0.00  0.00    +0.031 HD
ATOM     37  H   UNL     1       5.481   3.567  19.142  0.00  0.00    +0.031 HD
ATOM     38  H   UNL     1       7.993   3.727  17.184  0.00  0.00    +0.062 HD
ATOM     39  H   UNL     1       8.024   4.287  14.758  0.00  0.00    +0.062 HD
ATOM     40  H   UNL     1       6.192   5.637  13.762  0.00  0.00    +0.062 HD
ATOM     41  H   UNL     1       4.306   6.445  15.182  0.00  0.00    +0.062 HD
ENDBRANCH  21  24
ENDBRANCH  15  18
ENDBRANCH   4  15
BRANCH   1  42
ATOM     42  O   UNL     1      -0.673  12.208  22.535  0.00  0.00    -0.489 OA
BRANCH  42  43
ATOM     43  C   UNL     1      -1.069  13.582  22.450  0.00  0.00    +0.101 C 
ATOM     44  H   UNL     1      -1.711  13.745  21.574  0.00  0.00    +0.073 HD
BRANCH  43  45
ATOM     45  C   UNL     1      -1.927  13.873  23.679  0.00  0.00    -0.027 C 
ATOM     46  H   UNL     1      -2.388  12.948  24.036  0.00  0.00    +0.027 HD
ATOM     47  H   UNL     1      -2.720  14.588  23.455  0.00  0.00    +0.027 HD
ATOM     48  H   UNL     1      -1.328  14.252  24.515  0.00  0.00    +0.027 HD
ENDBRANCH  43  45
BRANCH  43  49
ATOM     49  C   UNL     1       0.147  14.520  22.359  0.00  0.00    +0.009 C 
ATOM     50  H   UNL     1       0.802  14.310  23.214  0.00  0.00    +0.035 HD
ATOM     51  H   UNL     1      -0.174  15.556  22.481  0.00  0.00    +0.035 HD
BRANCH  49  52
ATOM     52  C   UNL     1       0.952  14.458  21.081  0.00  0.00    -0.044 A 
ATOM     53  C   UNL     1       0.342  14.723  19.837  0.00  0.00    -0.058 A 
ATOM     54  C   UNL     1       1.086  14.654  18.657  0.00  0.00    -0.061 A 
ATOM     55  C   UNL     1       2.446  14.323  18.704  0.00  0.00    -0.062 A 
ATOM     56  C   UNL     1       3.063  14.055  19.935  0.00  0.00    -0.061 A 
ATOM     57  C   UNL     1       2.319  14.118  21.113  0.00  0.00    -0.058 A 
ATOM     58  H   UNL     1      -0.719  14.983  19.770  0.00  0.00    +0.062 HD
ATOM     59  H   UNL     1       0.594  14.862  17.702  0.00  0.00    +0.062 HD
ATOM     60  H   UNL     1       3.026  14.277  17.787  0.00  0.00    +0.062 HD
ATOM     61  H   UNL     1       4.126  13.798  19.981  0.00  0.00    +0.062 HD
ATOM     62  H   UNL     1       2.817  13.900  22.060  0.00  0.00    +0.062 HD
ENDBRANCH  49  52
ENDBRANCH  43  49
ENDBRANCH  42  43
ENDBRANCH   1  42
TORSDOF 9
ENDMDL
MODEL 15
REMARK VINA RESULT:    -7.634      3.571      5.506
REMARK INTER + INTRA:         -12.122
REMARK INTER:                 -11.973
REMARK INTRA:                  -0.150
REMARK UNBOUND:                -0.695
REMARK  Name = 
REMARK  9 active torsions:
REMARK  status: ('A' for Active; 'I' for Inactive)
REMARK    1  A    between atoms: C_1  and  C_2
REMARK    2  A    between atoms: C_2  and  C_3
REMARK    3  A    between atoms: C_2  and  O_10
REMARK    4  A    between atoms: C_3  and  C_4
REMARK    5  A    between atoms: O_10  and  C_11
REMARK    6  A    between atoms: C_14  and  C_15
REMARK    7  A    between atoms: C_15  and  N_16
REMARK    8  A    between atoms: N_19  and  C_20
REMARK    9  A    between atoms: C_29  and  C_30
REMARK                            x       y       z     vdW  Elec       q    Type
REMARK                         _______ _______ _______ _____ _____    ______ ____
ROOT
ATOM      1  C   UNL     1       2.441   7.232  18.718  0.00  0.00    +0.122 A 
ATOM      2  C   UNL     1       2.302   8.271  17.785  0.00  0.00    -0.020 A 
ATOM      3  C   UNL     1       1.596   9.433  18.108  0.00  0.00    -0.053 A 
ATOM      4  C   UNL     1       1.036   9.586  19.392  0.00  0.00    -0.018 A 
ATOM      5  C   UNL     1       1.239   8.562  20.343  0.00  0.00    +0.045 A 
ATOM      6  C   UNL     1       1.920   7.383  20.002  0.00  0.00    -0.008 A 
ATOM      7  H   UNL     1       2.762   8.181  16.799  0.00  0.00    +0.065 HD
ATOM      8  H   UNL     1       1.509  10.235  17.365  0.00  0.00    +0.062 HD
ATOM      9  H   UNL     1       2.091   6.637  20.773  0.00  0.00    +0.066 HD
ENDROOT
BRANCH   5  10
ATOM     10  C   UNL     1       0.848   8.752  21.759  0.00  0.00    +0.242 C 
ATOM     11  N   UNL     1       1.865   9.008  22.631  0.00  0.00    -0.325 N 
ATOM     12  O   UNL     1      -0.324   8.681  22.099  0.00  0.00    -0.270 OA
ATOM     13  H   UNL     1       1.614   9.003  23.611  0.00  0.00    +0.145 HD
ATOM     14  H   UNL     1       2.821   8.804  22.391  0.00  0.00    +0.145 HD
ENDBRANCH   5  10
BRANCH   4  15
ATOM     15  C   UNL     1       0.280  10.845  19.727  0.00  0.00    +0.039 C 
ATOM     16  H   UNL     1      -0.165  11.266  18.815  0.00  0.00    +0.051 HD
ATOM     17  H   UNL     1      -0.554  10.643  20.407  0.00  0.00    +0.051 HD
BRANCH  15  18
ATOM     18  N   UNL     1       1.150  11.825  20.326  0.00  0.00    -0.295 N 
ATOM     19  C   UNL     1       1.635  12.846  19.555  0.00  0.00    +0.300 C 
ATOM     20  O   UNL     1       1.458  12.945  18.347  0.00  0.00    -0.253 OA
ATOM     21  N   UNL     1       2.375  13.717  20.304  0.00  0.00    -0.293 N 
ATOM     22  H   UNL     1       0.903  12.102  21.276  0.00  0.00    +0.151 HD
ATOM     23  H   UNL     1       2.820  13.307  21.119  0.00  0.00    +0.151 HD
BRANCH  21  24
ATOM     24  C   UNL     1       3.110  14.781  19.657  0.00  0.00    +0.050 C 
ATOM     25  C   UNL     1       3.343  14.516  18.151  0.00  0.00    -0.026 C 
ATOM     26  C   UNL     1       4.670  15.192  17.786  0.00  0.00    -0.025 C 
ATOM     27  C   UNL     1       5.411  15.107  19.084  0.00  0.00    -0.042 A 
ATOM     28  C   UNL     1       6.772  15.267  19.299  0.00  0.00    -0.058 A 
ATOM     29  C   UNL     1       7.255  15.189  20.610  0.00  0.00    -0.061 A 
ATOM     30  C   UNL     1       6.373  14.970  21.682  0.00  0.00    -0.061 A 
ATOM     31  C   UNL     1       5.000  14.825  21.456  0.00  0.00    -0.057 A 
ATOM     32  C   UNL     1       4.530  14.883  20.149  0.00  0.00    -0.024 A 
ATOM     33  H   UNL     1       2.589  15.734  19.803  0.00  0.00    +0.055 HD
ATOM     34  H   UNL     1       2.513  14.876  17.531  0.00  0.00    +0.029 HD
ATOM     35  H   UNL     1       3.428  13.436  17.960  0.00  0.00    +0.029 HD
ATOM     36  H   UNL     1       5.175  14.660  16.973  0.00  0.00    +0.031 HD
ATOM     37  H   UNL     1       4.517  16.240  17.507  0.00  0.00    +0.031 HD
ATOM     38  H   UNL     1       7.451  15.447  18.472  0.00  0.00    +0.062 HD
ATOM     39  H   UNL     1       8.322  15.302  20.801  0.00  0.00    +0.062 HD
ATOM     40  H   UNL     1       6.764  14.921  22.697  0.00  0.00    +0.062 HD
ATOM     41  H   UNL     1       4.314  14.678  22.288  0.00  0.00    +0.062 HD
ENDBRANCH  21  24
ENDBRANCH  15  18
ENDBRANCH   4  15
BRANCH   1  42
ATOM     42  O   UNL     1       3.189   6.169  18.299  0.00  0.00    -0.489 OA
BRANCH  42  43
ATOM     43  C   UNL     1       2.747   4.853  18.652  0.00  0.00    +0.101 C 
ATOM     44  H   UNL     1       2.335   4.845  19.670  0.00  0.00    +0.073 HD
BRANCH  43  45
ATOM     45  C   UNL     1       1.595   4.506  17.712  0.00  0.00    -0.027 C 
ATOM     46  H   UNL     1       1.889   3.686  17.053  0.00  0.00    +0.027 HD
ATOM     47  H   UNL     1       1.308   5.358  17.095  0.00  0.00    +0.027 HD
ATOM     48  H   UNL     1       0.714   4.148  18.260  0.00  0.00    +0.027 HD
ENDBRANCH  43  45
BRANCH  43  49
ATOM     49  C   UNL     1       3.890   3.827  18.567  0.00  0.00    +0.009 C 
ATOM     50  H   UNL     1       3.456   2.856  18.296  0.00  0.00    +0.035 HD
ATOM     51  H   UNL     1       4.336   3.687  19.554  0.00  0.00    +0.035 HD
BRANCH  49  52
ATOM     52  C   UNL     1       5.020   4.155  17.618  0.00  0.00    -0.044 A 
ATOM     53  C   UNL     1       4.843   4.034  16.224  0.00  0.00    -0.058 A 
ATOM     54  C   UNL     1       5.892   4.328  15.351  0.00  0.00    -0.061 A 
ATOM     55  C   UNL     1       7.129   4.749  15.857  0.00  0.00    -0.062 A 
ATOM     56  C   UNL     1       7.318   4.871  17.241  0.00  0.00    -0.061 A 
ATOM     57  C   UNL     1       6.272   4.571  18.114  0.00  0.00    -0.058 A 
ATOM     58  H   UNL     1       3.888   3.707  15.801  0.00  0.00    +0.062 HD
ATOM     59  H   UNL     1       5.735   4.226  14.273  0.00  0.00    +0.062 HD
ATOM     60  H   UNL     1       7.942   4.985  15.177  0.00  0.00    +0.062 HD
ATOM     61  H   UNL     1       8.280   5.202  17.645  0.00  0.00    +0.062 HD
ATOM     62  H   UNL     1       6.442   4.668  19.188  0.00  0.00    +0.062 HD
ENDBRANCH  49  52
ENDBRANCH  43  49
ENDBRANCH  42  43
ENDBRANCH   1  42
TORSDOF 9
ENDMDL
MODEL 16
REMARK VINA RESULT:    -7.546      3.989      9.475
REMARK INTER + INTRA:         -11.990
REMARK INTER:                 -10.570
REMARK INTRA:                  -1.421
REMARK UNBOUND:                -0.695
REMARK  Name = 
REMARK  9 active torsions:
REMARK  status: ('A' for Active; 'I' for Inactive)
REMARK    1  A    between atoms: C_1  and  C_2
REMARK    2  A    between atoms: C_2  and  C_3
REMARK    3  A    between atoms: C_2  and  O_10
REMARK    4  A    between atoms: C_3  and  C_4
REMARK    5  A    between atoms: O_10  and  C_11
REMARK    6  A    between atoms: C_14  and  C_15
REMARK    7  A    between atoms: C_15  and  N_16
REMARK    8  A    between atoms: N_19  and  C_20
REMARK    9  A    between atoms: C_29  and  C_30
REMARK                            x       y       z     vdW  Elec       q    Type
REMARK                         _______ _______ _______ _____ _____    ______ ____
ROOT
ATOM      1  C   UNL     1       2.444  13.492  20.389  0.00  0.00    +0.122 A 
ATOM      2  C   UNL     1       2.668  13.313  19.016  0.00  0.00    -0.020 A 
ATOM      3  C   UNL     1       2.031  12.284  18.315  0.00  0.00    -0.053 A 
ATOM      4  C   UNL     1       1.132  11.427  18.980  0.00  0.00    -0.018 A 
ATOM      5  C   UNL     1       0.865  11.658  20.347  0.00  0.00    +0.045 A 
ATOM      6  C   UNL     1       1.532  12.671  21.053  0.00  0.00    -0.008 A 
ATOM      7  H   UNL     1       3.334  13.993  18.481  0.00  0.00    +0.065 HD
ATOM      8  H   UNL     1       2.215  12.171  17.239  0.00  0.00    +0.062 HD
ATOM      9  H   UNL     1       1.269  12.844  22.093  0.00  0.00    +0.066 HD
ENDROOT
BRANCH   5  10
ATOM     10  C   UNL     1      -0.213  10.921  21.045  0.00  0.00    +0.242 C 
ATOM     11  N   UNL     1       0.121   9.691  21.533  0.00  0.00    -0.325 N 
ATOM     12  O   UNL     1      -1.327  11.408  21.166  0.00  0.00    -0.270 OA
ATOM     13  H   UNL     1      -0.647   9.136  21.887  0.00  0.00    +0.145 HD
ATOM     14  H   UNL     1       0.938   9.205  21.202  0.00  0.00    +0.145 HD
ENDBRANCH   5  10
BRANCH   4  15
ATOM     15  C   UNL     1       0.452  10.326  18.211  0.00  0.00    +0.039 C 
ATOM     16  H   UNL     1      -0.132   9.698  18.897  0.00  0.00    +0.051 HD
ATOM     17  H   UNL     1      -0.262  10.725  17.483  0.00  0.00    +0.051 HD
BRANCH  15  18
ATOM     18  N   UNL     1       1.416   9.506  17.522  0.00  0.00    -0.295 N 
ATOM     19  C   UNL     1       2.049   8.504  18.206  0.00  0.00    +0.300 C 
ATOM     20  O   UNL     1       1.926   8.301  19.407  0.00  0.00    -0.253 OA
ATOM     21  N   UNL     1       2.866   7.785  17.379  0.00  0.00    -0.293 N 
ATOM     22  H   UNL     1       1.174   9.265  16.560  0.00  0.00    +0.151 HD
ATOM     23  H   UNL     1       3.230   8.303  16.584  0.00  0.00    +0.151 HD
BRANCH  21  24
ATOM     24  C   UNL     1       3.748   6.781  17.930  0.00  0.00    +0.050 C 
ATOM     25  C   UNL     1       5.048   6.610  17.109  0.00  0.00    -0.026 C 
ATOM     26  C   UNL     1       5.474   5.145  17.261  0.00  0.00    -0.025 C 
ATOM     27  C   UNL     1       4.150   4.471  17.450  0.00  0.00    -0.042 A 
ATOM     28  C   UNL     1       3.858   3.121  17.329  0.00  0.00    -0.058 A 
ATOM     29  C   UNL     1       2.553   2.694  17.593  0.00  0.00    -0.061 A 
ATOM     30  C   UNL     1       1.568   3.615  17.990  0.00  0.00    -0.061 A 
ATOM     31  C   UNL     1       1.877   4.973  18.124  0.00  0.00    -0.057 A 
ATOM     32  C   UNL     1       3.171   5.394  17.839  0.00  0.00    -0.024 A 
ATOM     33  H   UNL     1       3.983   7.026  18.973  0.00  0.00    +0.055 HD
ATOM     34  H   UNL     1       5.836   7.303  17.426  0.00  0.00    +0.029 HD
ATOM     35  H   UNL     1       4.859   6.820  16.045  0.00  0.00    +0.029 HD
ATOM     36  H   UNL     1       6.005   4.793  16.371  0.00  0.00    +0.031 HD
ATOM     37  H   UNL     1       6.099   5.005  18.148  0.00  0.00    +0.031 HD
ATOM     38  H   UNL     1       4.621   2.409  17.034  0.00  0.00    +0.062 HD
ATOM     39  H   UNL     1       2.299   1.638  17.496  0.00  0.00    +0.062 HD
ATOM     40  H   UNL     1       0.559   3.265  18.201  0.00  0.00    +0.062 HD
ATOM     41  H   UNL     1       1.120   5.683  18.451  0.00  0.00    +0.062 HD
ENDBRANCH  21  24
ENDBRANCH  15  18
ENDBRANCH   4  15
BRANCH   1  42
ATOM     42  O   UNL     1       3.089  14.556  20.951  0.00  0.00    -0.489 OA
BRANCH  42  43
ATOM     43  C   UNL     1       4.446  14.376  21.373  0.00  0.00    +0.101 C 
ATOM     44  H   UNL     1       4.772  13.343  21.193  0.00  0.00    +0.073 HD
BRANCH  43  45
ATOM     45  C   UNL     1       5.308  15.267  20.482  0.00  0.00    -0.027 C 
ATOM     46  H   UNL     1       6.365  15.105  20.709  0.00  0.00    +0.027 HD
ATOM     47  H   UNL     1       5.082  16.323  20.630  0.00  0.00    +0.027 HD
ATOM     48  H   UNL     1       5.189  15.021  19.420  0.00  0.00    +0.027 HD
ENDBRANCH  43  45
BRANCH  43  49
ATOM     49  C   UNL     1       4.626  14.704  22.865  0.00  0.00    +0.009 C 
ATOM     50  H   UNL     1       3.655  14.579  23.361  0.00  0.00    +0.035 HD
ATOM     51  H   UNL     1       4.886  15.758  22.985  0.00  0.00    +0.035 HD
BRANCH  49  52
ATOM     52  C   UNL     1       5.675  13.907  23.608  0.00  0.00    -0.044 A 
ATOM     53  C   UNL     1       6.274  14.424  24.775  0.00  0.00    -0.058 A 
ATOM     54  C   UNL     1       7.250  13.689  25.452  0.00  0.00    -0.061 A 
ATOM     55  C   UNL     1       7.637  12.431  24.974  0.00  0.00    -0.062 A 
ATOM     56  C   UNL     1       7.050  11.907  23.814  0.00  0.00    -0.061 A 
ATOM     57  C   UNL     1       6.079  12.643  23.133  0.00  0.00    -0.058 A 
ATOM     58  H   UNL     1       5.992  15.405  25.170  0.00  0.00    +0.062 HD
ATOM     59  H   UNL     1       7.704  14.109  26.355  0.00  0.00    +0.062 HD
ATOM     60  H   UNL     1       8.391  11.857  25.506  0.00  0.00    +0.062 HD
ATOM     61  H   UNL     1       7.345  10.923  23.435  0.00  0.00    +0.062 HD
ATOM     62  H   UNL     1       5.639  12.220  22.229  0.00  0.00    +0.062 HD
ENDBRANCH  49  52
ENDBRANCH  43  49
ENDBRANCH  42  43
ENDBRANCH   1  42
TORSDOF 9
ENDMDL
MODEL 17
REMARK VINA RESULT:    -7.545      1.800      3.512
REMARK INTER + INTRA:         -11.989
REMARK INTER:                 -11.450
REMARK INTRA:                  -0.538
REMARK UNBOUND:                -0.695
REMARK  Name = 
REMARK  9 active torsions:
REMARK  status: ('A' for Active; 'I' for Inactive)
REMARK    1  A    between atoms: C_1  and  C_2
REMARK    2  A    between atoms: C_2  and  C_3
REMARK    3  A    between atoms: C_2  and  O_10
REMARK    4  A    between atoms: C_3  and  C_4
REMARK    5  A    between atoms: O_10  and  C_11
REMARK    6  A    between atoms: C_14  and  C_15
REMARK    7  A    between atoms: C_15  and  N_16
REMARK    8  A    between atoms: N_19  and  C_20
REMARK    9  A    between atoms: C_29  and  C_30
REMARK                            x       y       z     vdW  Elec       q    Type
REMARK                         _______ _______ _______ _____ _____    ______ ____
ROOT
ATOM      1  C   UNL     1       2.371   6.017  18.493  0.00  0.00    +0.122 A 
ATOM      2  C   UNL     1       2.194   5.871  19.877  0.00  0.00    -0.020 A 
ATOM      3  C   UNL     1       1.830   6.963  20.670  0.00  0.00    -0.053 A 
ATOM      4  C   UNL     1       1.611   8.223  20.081  0.00  0.00    -0.018 A 
ATOM      5  C   UNL     1       1.728   8.343  18.679  0.00  0.00    +0.045 A 
ATOM      6  C   UNL     1       2.126   7.251  17.892  0.00  0.00    -0.008 A 
ATOM      7  H   UNL     1       2.325   4.892  20.341  0.00  0.00    +0.065 HD
ATOM      8  H   UNL     1       1.688   6.821  21.749  0.00  0.00    +0.062 HD
ATOM      9  H   UNL     1       2.165   7.372  16.812  0.00  0.00    +0.066 HD
ENDROOT
BRANCH   5  10
ATOM     10  C   UNL     1       1.318   9.585  17.985  0.00  0.00    +0.242 C 
ATOM     11  N   UNL     1       2.320  10.462  17.686  0.00  0.00    -0.325 N 
ATOM     12  O   UNL     1       0.146   9.788  17.707  0.00  0.00    -0.270 OA
ATOM     13  H   UNL     1       2.024  11.364  17.337  0.00  0.00    +0.145 HD
ATOM     14  H   UNL     1       3.213  10.407  18.146  0.00  0.00    +0.145 HD
ENDBRANCH   5  10
BRANCH   4  15
ATOM     15  C   UNL     1       1.217   9.389  20.949  0.00  0.00    +0.039 C 
ATOM     16  H   UNL     1       1.236   9.091  22.005  0.00  0.00    +0.051 HD
ATOM     17  H   UNL     1       1.927  10.218  20.854  0.00  0.00    +0.051 HD
BRANCH  15  18
ATOM     18  N   UNL     1      -0.103   9.860  20.613  0.00  0.00    -0.295 N 
ATOM     19  C   UNL     1      -0.376  11.197  20.699  0.00  0.00    +0.300 C 
ATOM     20  O   UNL     1       0.403  12.036  21.136  0.00  0.00    -0.253 OA
ATOM     21  N   UNL     1      -1.645  11.468  20.271  0.00  0.00    -0.293 N 
ATOM     22  H   UNL     1      -0.540   9.396  19.816  0.00  0.00    +0.151 HD
ATOM     23  H   UNL     1      -2.305  10.704  20.385  0.00  0.00    +0.151 HD
BRANCH  21  24
ATOM     24  C   UNL     1      -2.191  12.797  20.427  0.00  0.00    +0.050 C 
ATOM     25  C   UNL     1      -1.148  13.907  20.163  0.00  0.00    -0.026 C 
ATOM     26  C   UNL     1      -1.536  15.096  21.050  0.00  0.00    -0.025 C 
ATOM     27  C   UNL     1      -2.190  14.401  22.204  0.00  0.00    -0.042 A 
ATOM     28  C   UNL     1      -2.465  14.916  23.462  0.00  0.00    -0.058 A 
ATOM     29  C   UNL     1      -3.127  14.101  24.387  0.00  0.00    -0.061 A 
ATOM     30  C   UNL     1      -3.518  12.797  24.036  0.00  0.00    -0.061 A 
ATOM     31  C   UNL     1      -3.249  12.293  22.759  0.00  0.00    -0.057 A 
ATOM     32  C   UNL     1      -2.572  13.100  21.852  0.00  0.00    -0.024 A 
ATOM     33  H   UNL     1      -3.060  12.922  19.769  0.00  0.00    +0.055 HD
ATOM     34  H   UNL     1      -1.094  14.185  19.103  0.00  0.00    +0.029 HD
ATOM     35  H   UNL     1      -0.141  13.563  20.445  0.00  0.00    +0.029 HD
ATOM     36  H   UNL     1      -0.653  15.673  21.347  0.00  0.00    +0.031 HD
ATOM     37  H   UNL     1      -2.255  15.749  20.546  0.00  0.00    +0.031 HD
ATOM     38  H   UNL     1      -2.174  15.926  23.729  0.00  0.00    +0.062 HD
ATOM     39  H   UNL     1      -3.346  14.482  25.384  0.00  0.00    +0.062 HD
ATOM     40  H   UNL     1      -4.041  12.179  24.764  0.00  0.00    +0.062 HD
ATOM     41  H   UNL     1      -3.571  11.291  22.480  0.00  0.00    +0.062 HD
ENDBRANCH  21  24
ENDBRANCH  15  18
ENDBRANCH   4  15
BRANCH   1  42
ATOM     42  O   UNL     1       2.683   4.869  17.821  0.00  0.00    -0.489 OA
BRANCH  42  43
ATOM     43  C   UNL     1       3.849   4.145  18.229  0.00  0.00    +0.101 C 
ATOM     44  H   UNL     1       4.171   4.464  19.230  0.00  0.00    +0.073 HD
BRANCH  43  45
ATOM     45  C   UNL     1       3.441   2.679  18.349  0.00  0.00    -0.027 C 
ATOM     46  H   UNL     1       2.420   2.548  17.982  0.00  0.00    +0.027 HD
ATOM     47  H   UNL     1       3.484   2.333  19.382  0.00  0.00    +0.027 HD
ATOM     48  H   UNL     1       4.069   2.028  17.728  0.00  0.00    +0.027 HD
ENDBRANCH  43  45
BRANCH  43  49
ATOM     49  C   UNL     1       5.015   4.342  17.244  0.00  0.00    +0.009 C 
ATOM     50  H   UNL     1       4.592   4.606  16.266  0.00  0.00    +0.035 HD
ATOM     51  H   UNL     1       5.537   3.395  17.094  0.00  0.00    +0.035 HD
BRANCH  49  52
ATOM     52  C   UNL     1       6.060   5.363  17.633  0.00  0.00    -0.044 A 
ATOM     53  C   UNL     1       6.116   6.614  16.985  0.00  0.00    -0.058 A 
ATOM     54  C   UNL     1       7.089   7.551  17.339  0.00  0.00    -0.061 A 
ATOM     55  C   UNL     1       8.016   7.251  18.346  0.00  0.00    -0.062 A 
ATOM     56  C   UNL     1       7.972   6.010  18.997  0.00  0.00    -0.061 A 
ATOM     57  C   UNL     1       7.003   5.071  18.638  0.00  0.00    -0.058 A 
ATOM     58  H   UNL     1       5.405   6.874  16.194  0.00  0.00    +0.062 HD
ATOM     59  H   UNL     1       7.117   8.515  16.823  0.00  0.00    +0.062 HD
ATOM     60  H   UNL     1       8.768   7.983  18.627  0.00  0.00    +0.062 HD
ATOM     61  H   UNL     1       8.690   5.769  19.787  0.00  0.00    +0.062 HD
ATOM     62  H   UNL     1       6.990   4.109  19.154  0.00  0.00    +0.062 HD
ENDBRANCH  49  52
ENDBRANCH  43  49
ENDBRANCH  42  43
ENDBRANCH   1  42
TORSDOF 9
ENDMDL
MODEL 18
REMARK VINA RESULT:    -7.543      2.737      5.410
REMARK INTER + INTRA:         -11.986
REMARK INTER:                 -11.705
REMARK INTRA:                  -0.282
REMARK UNBOUND:                -0.695
REMARK  Name = 
REMARK  9 active torsions:
REMARK  status: ('A' for Active; 'I' for Inactive)
REMARK    1  A    between atoms: C_1  and  C_2
REMARK    2  A    between atoms: C_2  and  C_3
REMARK    3  A    between atoms: C_2  and  O_10
REMARK    4  A    between atoms: C_3  and  C_4
REMARK    5  A    between atoms: O_10  and  C_11
REMARK    6  A    between atoms: C_14  and  C_15
REMARK    7  A    between atoms: C_15  and  N_16
REMARK    8  A    between atoms: N_19  and  C_20
REMARK    9  A    between atoms: C_29  and  C_30
REMARK                            x       y       z     vdW  Elec       q    Type
REMARK                         _______ _______ _______ _____ _____    ______ ____
ROOT
ATOM      1  C   UNL     1       3.979   4.800  18.007  0.00  0.00    +0.122 A 
ATOM      2  C   UNL     1       3.968   6.197  18.136  0.00  0.00    -0.020 A 
ATOM      3  C   UNL     1       3.139   6.822  19.073  0.00  0.00    -0.053 A 
ATOM      4  C   UNL     1       2.322   6.050  19.921  0.00  0.00    -0.018 A 
ATOM      5  C   UNL     1       2.390   4.642  19.826  0.00  0.00    +0.045 A 
ATOM      6  C   UNL     1       3.198   4.022  18.862  0.00  0.00    -0.008 A 
ATOM      7  H   UNL     1       4.624   6.805  17.511  0.00  0.00    +0.065 HD
ATOM      8  H   UNL     1       3.156   7.916  19.161  0.00  0.00    +0.062 HD
ATOM      9  H   UNL     1       3.256   2.936  18.847  0.00  0.00    +0.066 HD
ENDROOT
BRANCH   5  10
ATOM     10  C   UNL     1       1.708   3.781  20.818  0.00  0.00    +0.242 C 
ATOM     11  N   UNL     1       0.517   3.243  20.426  0.00  0.00    -0.325 N 
ATOM     12  O   UNL     1       2.206   3.577  21.916  0.00  0.00    -0.270 OA
ATOM     13  H   UNL     1      -0.009   2.769  21.149  0.00  0.00    +0.145 HD
ATOM     14  H   UNL     1       0.006   3.623  19.647  0.00  0.00    +0.145 HD
ENDBRANCH   5  10
BRANCH   4  15
ATOM     15  C   UNL     1       1.437   6.738  20.926  0.00  0.00    +0.039 C 
ATOM     16  H   UNL     1       0.384   6.516  20.709  0.00  0.00    +0.051 HD
ATOM     17  H   UNL     1       1.622   6.371  21.941  0.00  0.00    +0.051 HD
BRANCH  15  18
ATOM     18  N   UNL     1       1.636   8.165  20.898  0.00  0.00    -0.295 N 
ATOM     19  C   UNL     1       0.550   8.991  20.994  0.00  0.00    +0.300 C 
ATOM     20  O   UNL     1      -0.612   8.608  21.012  0.00  0.00    -0.253 OA
ATOM     21  N   UNL     1       0.934  10.303  21.028  0.00  0.00    -0.293 N 
ATOM     22  H   UNL     1       2.460   8.498  21.399  0.00  0.00    +0.151 HD
ATOM     23  H   UNL     1       1.810  10.503  20.555  0.00  0.00    +0.151 HD
BRANCH  21  24
ATOM     24  C   UNL     1      -0.063  11.348  20.968  0.00  0.00    +0.050 C 
ATOM     25  C   UNL     1      -1.163  11.066  19.919  0.00  0.00    -0.026 C 
ATOM     26  C   UNL     1      -1.640  12.429  19.404  0.00  0.00    -0.025 C 
ATOM     27  C   UNL     1      -0.399  13.253  19.558  0.00  0.00    -0.042 A 
ATOM     28  C   UNL     1      -0.114  14.479  18.976  0.00  0.00    -0.058 A 
ATOM     29  C   UNL     1       1.098  15.102  19.292  0.00  0.00    -0.061 A 
ATOM     30  C   UNL     1       1.995  14.502  20.192  0.00  0.00    -0.061 A 
ATOM     31  C   UNL     1       1.690  13.272  20.786  0.00  0.00    -0.057 A 
ATOM     32  C   UNL     1       0.494  12.648  20.452  0.00  0.00    -0.024 A 
ATOM     33  H   UNL     1      -0.507  11.494  21.960  0.00  0.00    +0.055 HD
ATOM     34  H   UNL     1      -1.988  10.469  20.328  0.00  0.00    +0.029 HD
ATOM     35  H   UNL     1      -0.751  10.489  19.077  0.00  0.00    +0.029 HD
ATOM     36  H   UNL     1      -1.979  12.364  18.365  0.00  0.00    +0.031 HD
ATOM     37  H   UNL     1      -2.441  12.831  20.033  0.00  0.00    +0.031 HD
ATOM     38  H   UNL     1      -0.811  14.947  18.290  0.00  0.00    +0.062 HD
ATOM     39  H   UNL     1       1.347  16.061  18.839  0.00  0.00    +0.062 HD
ATOM     40  H   UNL     1       2.930  15.004  20.435  0.00  0.00    +0.062 HD
ATOM     41  H   UNL     1       2.375  12.817  21.500  0.00  0.00    +0.062 HD
ENDBRANCH  21  24
ENDBRANCH  15  18
ENDBRANCH   4  15
BRANCH   1  42
ATOM     42  O   UNL     1       4.861   4.306  17.089  0.00  0.00    -0.489 OA
BRANCH  42  43
ATOM     43  C   UNL     1       5.941   5.149  16.671  0.00  0.00    +0.101 C 
ATOM     44  H   UNL     1       6.110   5.951  17.402  0.00  0.00    +0.073 HD
BRANCH  43  45
ATOM     45  C   UNL     1       7.201   4.287  16.672  0.00  0.00    -0.027 C 
ATOM     46  H   UNL     1       7.878   4.621  17.463  0.00  0.00    +0.027 HD
ATOM     47  H   UNL     1       7.729   4.346  15.720  0.00  0.00    +0.027 HD
ATOM     48  H   UNL     1       6.978   3.236  16.892  0.00  0.00    +0.027 HD
ENDBRANCH  43  45
BRANCH  43  49
ATOM     49  C   UNL     1       5.672   5.777  15.293  0.00  0.00    +0.009 C 
ATOM     50  H   UNL     1       6.195   6.741  15.251  0.00  0.00    +0.035 HD
ATOM     51  H   UNL     1       4.611   6.012  15.193  0.00  0.00    +0.035 HD
BRANCH  49  52
ATOM     52  C   UNL     1       6.053   4.946  14.088  0.00  0.00    -0.044 A 
ATOM     53  C   UNL     1       7.262   5.187  13.404  0.00  0.00    -0.058 A 
ATOM     54  C   UNL     1       7.606   4.424  12.286  0.00  0.00    -0.061 A 
ATOM     55  C   UNL     1       6.749   3.410  11.839  0.00  0.00    -0.062 A 
ATOM     56  C   UNL     1       5.543   3.162  12.510  0.00  0.00    -0.061 A 
ATOM     57  C   UNL     1       5.196   3.928  13.624  0.00  0.00    -0.058 A 
ATOM     58  H   UNL     1       7.950   5.974  13.731  0.00  0.00    +0.062 HD
ATOM     59  H   UNL     1       8.548   4.629  11.768  0.00  0.00    +0.062 HD
ATOM     60  H   UNL     1       7.020   2.812  10.974  0.00  0.00    +0.062 HD
ATOM     61  H   UNL     1       4.868   2.370  12.169  0.00  0.00    +0.062 HD
ATOM     62  H   UNL     1       4.250   3.722  14.128  0.00  0.00    +0.062 HD
ENDBRANCH  49  52
ENDBRANCH  43  49
ENDBRANCH  42  43
ENDBRANCH   1  42
TORSDOF 9
ENDMDL
MODEL 19
REMARK VINA RESULT:    -7.500      2.552     10.154
REMARK INTER + INTRA:         -11.922
REMARK INTER:                 -10.742
REMARK INTRA:                  -1.180
REMARK UNBOUND:                -0.695
REMARK  Name = 
REMARK  9 active torsions:
REMARK  status: ('A' for Active; 'I' for Inactive)
REMARK    1  A    between atoms: C_1  and  C_2
REMARK    2  A    between atoms: C_2  and  C_3
REMARK    3  A    between atoms: C_2  and  O_10
REMARK    4  A    between atoms: C_3  and  C_4
REMARK    5  A    between atoms: O_10  and  C_11
REMARK    6  A    between atoms: C_14  and  C_15
REMARK    7  A    between atoms: C_15  and  N_16
REMARK    8  A    between atoms: N_19  and  C_20
REMARK    9  A    between atoms: C_29  and  C_30
REMARK                            x       y       z     vdW  Elec       q    Type
REMARK                         _______ _______ _______ _____ _____    ______ ____
ROOT
ATOM      1  C   UNL     1      -0.247  10.863  21.617  0.00  0.00    +0.122 A 
ATOM      2  C   UNL     1      -0.119   9.816  22.543  0.00  0.00    -0.020 A 
ATOM      3  C   UNL     1       0.364   8.566  22.146  0.00  0.00    -0.053 A 
ATOM      4  C   UNL     1       0.754   8.350  20.809  0.00  0.00    -0.018 A 
ATOM      5  C   UNL     1       0.682   9.430  19.902  0.00  0.00    +0.045 A 
ATOM      6  C   UNL     1       0.165  10.673  20.299  0.00  0.00    -0.008 A 
ATOM      7  H   UNL     1      -0.383   9.981  23.589  0.00  0.00    +0.065 HD
ATOM      8  H   UNL     1       0.464   7.766  22.890  0.00  0.00    +0.062 HD
ATOM      9  H   UNL     1       0.164  11.491  19.583  0.00  0.00    +0.066 HD
ENDROOT
BRANCH   5  10
ATOM     10  C   UNL     1       1.260   9.320  18.544  0.00  0.00    +0.242 C 
ATOM     11  N   UNL     1       0.365   9.245  17.516  0.00  0.00    -0.325 N 
ATOM     12  O   UNL     1       2.471   9.303  18.379  0.00  0.00    -0.270 OA
ATOM     13  H   UNL     1       0.757   9.035  16.608  0.00  0.00    +0.145 HD
ATOM     14  H   UNL     1      -0.596   8.997  17.681  0.00  0.00    +0.145 HD
ENDBRANCH   5  10
BRANCH   4  15
ATOM     15  C   UNL     1       1.274   6.998  20.398  0.00  0.00    +0.039 C 
ATOM     16  H   UNL     1       1.147   6.283  21.222  0.00  0.00    +0.051 HD
ATOM     17  H   UNL     1       0.709   6.591  19.552  0.00  0.00    +0.051 HD
BRANCH  15  18
ATOM     18  N   UNL     1       2.668   7.068  20.042  0.00  0.00    -0.295 N 
ATOM     19  C   UNL     1       3.302   5.937  19.605  0.00  0.00    +0.300 C 
ATOM     20  O   UNL     1       2.792   4.824  19.579  0.00  0.00    -0.253 OA
ATOM     21  N   UNL     1       4.592   6.208  19.241  0.00  0.00    -0.293 N 
ATOM     22  H   UNL     1       2.949   7.919  19.553  0.00  0.00    +0.151 HD
ATOM     23  H   UNL     1       5.015   6.994  19.725  0.00  0.00    +0.151 HD
BRANCH  21  24
ATOM     24  C   UNL     1       5.487   5.125  18.901  0.00  0.00    +0.050 C 
ATOM     25  C   UNL     1       6.965   5.445  19.228  0.00  0.00    -0.026 C 
ATOM     26  C   UNL     1       7.816   4.689  18.201  0.00  0.00    -0.025 C 
ATOM     27  C   UNL     1       6.894   4.654  17.022  0.00  0.00    -0.042 A 
ATOM     28  C   UNL     1       7.212   4.381  15.700  0.00  0.00    -0.058 A 
ATOM     29  C   UNL     1       6.181   4.357  14.756  0.00  0.00    -0.061 A 
ATOM     30  C   UNL     1       4.851   4.589  15.147  0.00  0.00    -0.061 A 
ATOM     31  C   UNL     1       4.538   4.848  16.486  0.00  0.00    -0.057 A 
ATOM     32  C   UNL     1       5.571   4.891  17.416  0.00  0.00    -0.024 A 
ATOM     33  H   UNL     1       5.171   4.208  19.411  0.00  0.00    +0.055 HD
ATOM     34  H   UNL     1       7.231   5.180  20.258  0.00  0.00    +0.029 HD
ATOM     35  H   UNL     1       7.155   6.524  19.126  0.00  0.00    +0.029 HD
ATOM     36  H   UNL     1       8.750   5.221  17.993  0.00  0.00    +0.031 HD
ATOM     37  H   UNL     1       8.034   3.671  18.541  0.00  0.00    +0.031 HD
ATOM     38  H   UNL     1       8.237   4.191  15.401  0.00  0.00    +0.062 HD
ATOM     39  H   UNL     1       6.410   4.154  13.710  0.00  0.00    +0.062 HD
ATOM     40  H   UNL     1       4.058   4.558  14.401  0.00  0.00    +0.062 HD
ATOM     41  H   UNL     1       3.506   5.006  16.792  0.00  0.00    +0.062 HD
ENDBRANCH  21  24
ENDBRANCH  15  18
ENDBRANCH   4  15
BRANCH   1  42
ATOM     42  O   UNL     1      -0.688  12.048  22.134  0.00  0.00    -0.489 OA
BRANCH  42  43
ATOM     43  C   UNL     1      -2.090  12.332  22.068  0.00  0.00    +0.101 C 
ATOM     44  H   UNL     1      -2.671  11.401  22.019  0.00  0.00    +0.073 HD
BRANCH  43  45
ATOM     45  C   UNL     1      -2.467  13.013  23.382  0.00  0.00    -0.027 C 
ATOM     46  H   UNL     1      -1.651  13.661  23.710  0.00  0.00    +0.027 HD
ATOM     47  H   UNL     1      -2.667  12.284  24.169  0.00  0.00    +0.027 HD
ATOM     48  H   UNL     1      -3.341  13.665  23.268  0.00  0.00    +0.027 HD
ENDBRANCH  43  45
BRANCH  43  49
ATOM     49  C   UNL     1      -2.437  13.202  20.847  0.00  0.00    +0.009 C 
ATOM     50  H   UNL     1      -1.513  13.678  20.496  0.00  0.00    +0.035 HD
ATOM     51  H   UNL     1      -3.094  14.019  21.149  0.00  0.00    +0.035 HD
BRANCH  49  52
ATOM     52  C   UNL     1      -3.112  12.500  19.690  0.00  0.00    -0.044 A 
ATOM     53  C   UNL     1      -4.516  12.383  19.644  0.00  0.00    -0.058 A 
ATOM     54  C   UNL     1      -5.136  11.725  18.580  0.00  0.00    -0.061 A 
ATOM     55  C   UNL     1      -4.362  11.178  17.548  0.00  0.00    -0.062 A 
ATOM     56  C   UNL     1      -2.965  11.287  17.583  0.00  0.00    -0.061 A 
ATOM     57  C   UNL     1      -2.345  11.939  18.650  0.00  0.00    -0.058 A 
ATOM     58  H   UNL     1      -5.145  12.800  20.437  0.00  0.00    +0.062 HD
ATOM     59  H   UNL     1      -6.227  11.644  18.564  0.00  0.00    +0.062 HD
ATOM     60  H   UNL     1      -4.845  10.673  16.717  0.00  0.00    +0.062 HD
ATOM     61  H   UNL     1      -2.352  10.865  16.780  0.00  0.00    +0.062 HD
ATOM     62  H   UNL     1      -1.255  12.007  18.661  0.00  0.00    +0.062 HD
ENDBRANCH  49  52
ENDBRANCH  43  49
ENDBRANCH  42  43
ENDBRANCH   1  42
TORSDOF 9
ENDMDL
MODEL 20
REMARK VINA RESULT:    -7.424      2.148      4.009
REMARK INTER + INTRA:         -11.807
REMARK INTER:                 -10.503
REMARK INTRA:                  -1.304
REMARK UNBOUND:                -0.695
REMARK  Name = 
REMARK  9 active torsions:
REMARK  status: ('A' for Active; 'I' for Inactive)
REMARK    1  A    between atoms: C_1  and  C_2
REMARK    2  A    between atoms: C_2  and  C_3
REMARK    3  A    between atoms: C_2  and  O_10
REMARK    4  A    between atoms: C_3  and  C_4
REMARK    5  A    between atoms: O_10  and  C_11
REMARK    6  A    between atoms: C_14  and  C_15
REMARK    7  A    between atoms: C_15  and  N_16
REMARK    8  A    between atoms: N_19  and  C_20
REMARK    9  A    between atoms: C_29  and  C_30
REMARK                            x       y       z     vdW  Elec       q    Type
REMARK                         _______ _______ _______ _____ _____    ______ ____
ROOT
ATOM      1  C   UNL     1       4.764   5.697  18.708  0.00  0.00    +0.122 A 
ATOM      2  C   UNL     1       4.723   6.573  17.613  0.00  0.00    -0.020 A 
ATOM      3  C   UNL     1       3.615   7.397  17.397  0.00  0.00    -0.053 A 
ATOM      4  C   UNL     1       2.532   7.375  18.297  0.00  0.00    -0.018 A 
ATOM      5  C   UNL     1       2.613   6.537  19.431  0.00  0.00    +0.045 A 
ATOM      6  C   UNL     1       3.713   5.688  19.625  0.00  0.00    -0.008 A 
ATOM      7  H   UNL     1       5.572   6.626  16.928  0.00  0.00    +0.065 HD
ATOM      8  H   UNL     1       3.611   8.080  16.538  0.00  0.00    +0.062 HD
ATOM      9  H   UNL     1       3.758   5.089  20.531  0.00  0.00    +0.066 HD
ENDROOT
BRANCH   5  10
ATOM     10  C   UNL     1       1.602   6.618  20.509  0.00  0.00    +0.242 C 
ATOM     11  N   UNL     1       1.626   7.751  21.270  0.00  0.00    -0.325 N 
ATOM     12  O   UNL     1       0.802   5.711  20.686  0.00  0.00    -0.270 OA
ATOM     13  H   UNL     1       1.028   7.745  22.085  0.00  0.00    +0.145 HD
ATOM     14  H   UNL     1       2.435   8.349  21.286  0.00  0.00    +0.145 HD
ENDBRANCH   5  10
BRANCH   4  15
ATOM     15  C   UNL     1       1.346   8.270  18.052  0.00  0.00    +0.039 C 
ATOM     16  H   UNL     1       1.116   8.299  16.979  0.00  0.00    +0.051 HD
ATOM     17  H   UNL     1       0.446   7.888  18.546  0.00  0.00    +0.051 HD
BRANCH  15  18
ATOM     18  N   UNL     1       1.605   9.609  18.517  0.00  0.00    -0.295 N 
ATOM     19  C   UNL     1       0.551  10.446  18.760  0.00  0.00    +0.300 C 
ATOM     20  O   UNL     1      -0.619  10.174  18.520  0.00  0.00    -0.253 OA
ATOM     21  N   UNL     1       0.980  11.642  19.265  0.00  0.00    -0.293 N 
ATOM     22  H   UNL     1       2.369   9.695  19.189  0.00  0.00    +0.151 HD
ATOM     23  H   UNL     1       1.919  11.910  18.985  0.00  0.00    +0.151 HD
BRANCH  21  24
ATOM     24  C   UNL     1       0.043  12.728  19.443  0.00  0.00    +0.050 C 
ATOM     25  C   UNL     1       0.695  14.118  19.250  0.00  0.00    -0.026 C 
ATOM     26  C   UNL     1      -0.066  15.090  20.160  0.00  0.00    -0.025 C 
ATOM     27  C   UNL     1      -0.499  14.180  21.267  0.00  0.00    -0.042 A 
ATOM     28  C   UNL     1      -0.952  14.532  22.530  0.00  0.00    -0.058 A 
ATOM     29  C   UNL     1      -1.350  13.515  23.404  0.00  0.00    -0.061 A 
ATOM     30  C   UNL     1      -1.306  12.170  23.000  0.00  0.00    -0.061 A 
ATOM     31  C   UNL     1      -0.862  11.826  21.718  0.00  0.00    -0.057 A 
ATOM     32  C   UNL     1      -0.448  12.840  20.862  0.00  0.00    -0.024 A 
ATOM     33  H   UNL     1      -0.804  12.603  18.758  0.00  0.00    +0.055 HD
ATOM     34  H   UNL     1       0.685  14.441  18.202  0.00  0.00    +0.029 HD
ATOM     35  H   UNL     1       1.751  14.092  19.558  0.00  0.00    +0.029 HD
ATOM     36  H   UNL     1       0.584  15.899  20.506  0.00  0.00    +0.031 HD
ATOM     37  H   UNL     1      -0.941  15.506  19.650  0.00  0.00    +0.031 HD
ATOM     38  H   UNL     1      -0.997  15.571  22.837  0.00  0.00    +0.062 HD
ATOM     39  H   UNL     1      -1.701  13.768  24.404  0.00  0.00    +0.062 HD
ATOM     40  H   UNL     1      -1.628  11.391  23.689  0.00  0.00    +0.062 HD
ATOM     41  H   UNL     1      -0.847  10.786  21.398  0.00  0.00    +0.062 HD
ENDBRANCH  21  24
ENDBRANCH  15  18
ENDBRANCH   4  15
BRANCH   1  42
ATOM     42  O   UNL     1       5.918   4.977  18.836  0.00  0.00    -0.489 OA
BRANCH  42  43
ATOM     43  C   UNL     1       7.099   5.478  18.200  0.00  0.00    +0.101 C 
ATOM     44  H   UNL     1       6.881   6.409  17.660  0.00  0.00    +0.073 HD
BRANCH  43  45
ATOM     45  C   UNL     1       8.081   5.840  19.312  0.00  0.00    -0.027 C 
ATOM     46  H   UNL     1       7.642   6.603  19.960  0.00  0.00    +0.027 HD
ATOM     47  H   UNL     1       9.018   6.226  18.911  0.00  0.00    +0.027 HD
ATOM     48  H   UNL     1       8.297   4.983  19.962  0.00  0.00    +0.027 HD
ENDBRANCH  43  45
BRANCH  43  49
ATOM     49  C   UNL     1       7.693   4.456  17.215  0.00  0.00    +0.009 C 
ATOM     50  H   UNL     1       7.680   3.471  17.699  0.00  0.00    +0.035 HD
ATOM     51  H   UNL     1       8.746   4.683  17.035  0.00  0.00    +0.035 HD
BRANCH  49  52
ATOM     52  C   UNL     1       7.027   4.360  15.861  0.00  0.00    -0.044 A 
ATOM     53  C   UNL     1       5.810   3.664  15.709  0.00  0.00    -0.058 A 
ATOM     54  C   UNL     1       5.203   3.569  14.455  0.00  0.00    -0.061 A 
ATOM     55  C   UNL     1       5.800   4.170  13.340  0.00  0.00    -0.062 A 
ATOM     56  C   UNL     1       7.011   4.863  13.478  0.00  0.00    -0.061 A 
ATOM     57  C   UNL     1       7.621   4.953  14.729  0.00  0.00    -0.058 A 
ATOM     58  H   UNL     1       5.322   3.184  16.563  0.00  0.00    +0.062 HD
ATOM     59  H   UNL     1       4.260   3.022  14.358  0.00  0.00    +0.062 HD
ATOM     60  H   UNL     1       5.324   4.102  12.366  0.00  0.00    +0.062 HD
ATOM     61  H   UNL     1       7.483   5.338  12.612  0.00  0.00    +0.062 HD
ATOM     62  H   UNL     1       8.566   5.493  14.814  0.00  0.00    +0.062 HD
ENDBRANCH  49  52
ENDBRANCH  43  49
ENDBRANCH  42  43
ENDBRANCH   1  42
TORSDOF 9
ENDMDL
MODEL 21
REMARK VINA RESULT:    -7.412      2.969      5.309
REMARK INTER + INTRA:         -11.790
REMARK INTER:                 -12.547
REMARK INTRA:                   0.757
REMARK UNBOUND:                -0.695
REMARK  Name = 
REMARK  9 active torsions:
REMARK  status: ('A' for Active; 'I' for Inactive)
REMARK    1  A    between atoms: C_1  and  C_2
REMARK    2  A    between atoms: C_2  and  C_3
REMARK    3  A    between atoms: C_2  and  O_10
REMARK    4  A    between atoms: C_3  and  C_4
REMARK    5  A    between atoms: O_10  and  C_11
REMARK    6  A    between atoms: C_14  and  C_15
REMARK    7  A    between atoms: C_15  and  N_16
REMARK    8  A    between atoms: N_19  and  C_20
REMARK    9  A    between atoms: C_29  and  C_30
REMARK                            x       y       z     vdW  Elec       q    Type
REMARK                         _______ _______ _______ _____ _____    ______ ____
ROOT
ATOM      1  C   UNL     1       4.484   5.561  17.163  0.00  0.00    +0.122 A 
ATOM      2  C   UNL     1       4.436   6.954  17.006  0.00  0.00    -0.020 A 
ATOM      3  C   UNL     1       3.503   7.722  17.710  0.00  0.00    -0.053 A 
ATOM      4  C   UNL     1       2.614   7.103  18.610  0.00  0.00    -0.018 A 
ATOM      5  C   UNL     1       2.716   5.708  18.809  0.00  0.00    +0.045 A 
ATOM      6  C   UNL     1       3.631   4.939  18.075  0.00  0.00    -0.008 A 
ATOM      7  H   UNL     1       5.143   7.450  16.339  0.00  0.00    +0.065 HD
ATOM      8  H   UNL     1       3.491   8.811  17.576  0.00  0.00    +0.062 HD
ATOM      9  H   UNL     1       3.709   3.875  18.286  0.00  0.00    +0.066 HD
ENDROOT
BRANCH   5  10
ATOM     10  C   UNL     1       1.949   5.036  19.882  0.00  0.00    +0.242 C 
ATOM     11  N   UNL     1       2.382   5.258  21.157  0.00  0.00    -0.325 N 
ATOM     12  O   UNL     1       0.986   4.331  19.615  0.00  0.00    -0.270 OA
ATOM     13  H   UNL     1       1.944   4.694  21.873  0.00  0.00    +0.145 HD
ATOM     14  H   UNL     1       3.306   5.610  21.338  0.00  0.00    +0.145 HD
ENDBRANCH   5  10
BRANCH   4  15
ATOM     15  C   UNL     1       1.617   7.943  19.363  0.00  0.00    +0.039 C 
ATOM     16  H   UNL     1       0.670   7.397  19.464  0.00  0.00    +0.051 HD
ATOM     17  H   UNL     1       1.957   8.153  20.383  0.00  0.00    +0.051 HD
BRANCH  15  18
ATOM     18  N   UNL     1       1.374   9.190  18.682  0.00  0.00    -0.295 N 
ATOM     19  C   UNL     1       0.379  10.013  19.133  0.00  0.00    +0.300 C 
ATOM     20  O   UNL     1      -0.401   9.727  20.033  0.00  0.00    -0.253 OA
ATOM     21  N   UNL     1       0.344  11.178  18.418  0.00  0.00    -0.293 N 
ATOM     22  H   UNL     1       2.210   9.682  18.365  0.00  0.00    +0.151 HD
ATOM     23  H   UNL     1       0.687  11.103  17.465  0.00  0.00    +0.151 HD
BRANCH  21  24
ATOM     24  C   UNL     1      -0.732  12.120  18.626  0.00  0.00    +0.050 C 
ATOM     25  C   UNL     1      -1.140  12.243  20.113  0.00  0.00    -0.026 C 
ATOM     26  C   UNL     1      -2.637  12.578  20.132  0.00  0.00    -0.025 C 
ATOM     27  C   UNL     1      -3.104  11.911  18.875  0.00  0.00    -0.042 A 
ATOM     28  C   UNL     1      -4.405  11.598  18.511  0.00  0.00    -0.058 A 
ATOM     29  C   UNL     1      -4.626  11.009  17.262  0.00  0.00    -0.061 A 
ATOM     30  C   UNL     1      -3.551  10.759  16.392  0.00  0.00    -0.061 A 
ATOM     31  C   UNL     1      -2.243  11.092  16.763  0.00  0.00    -0.057 A 
ATOM     32  C   UNL     1      -2.029  11.658  18.015  0.00  0.00    -0.024 A 
ATOM     33  H   UNL     1      -0.452  13.099  18.222  0.00  0.00    +0.055 HD
ATOM     34  H   UNL     1      -0.544  12.992  20.648  0.00  0.00    +0.029 HD
ATOM     35  H   UNL     1      -0.981  11.287  20.635  0.00  0.00    +0.029 HD
ATOM     36  H   UNL     1      -3.120  12.179  21.029  0.00  0.00    +0.031 HD
ATOM     37  H   UNL     1      -2.801  13.659  20.069  0.00  0.00    +0.031 HD
ATOM     38  H   UNL     1      -5.236  11.802  19.178  0.00  0.00    +0.062 HD
ATOM     39  H   UNL     1      -5.639  10.747  16.959  0.00  0.00    +0.062 HD
ATOM     40  H   UNL     1      -3.740  10.308  15.419  0.00  0.00    +0.062 HD
ATOM     41  H   UNL     1      -1.413  10.918  16.081  0.00  0.00    +0.062 HD
ENDBRANCH  21  24
ENDBRANCH  15  18
ENDBRANCH   4  15
BRANCH   1  42
ATOM     42  O   UNL     1       5.466   4.928  16.455  0.00  0.00    -0.489 OA
BRANCH  42  43
ATOM     43  C   UNL     1       6.808   5.411  16.586  0.00  0.00    +0.101 C 
ATOM     44  H   UNL     1       6.825   6.363  17.133  0.00  0.00    +0.073 HD
BRANCH  43  45
ATOM     45  C   UNL     1       7.561   4.400  17.448  0.00  0.00    -0.027 C 
ATOM     46  H   UNL     1       8.612   4.369  17.149  0.00  0.00    +0.027 HD
ATOM     47  H   UNL     1       7.144   3.397  17.347  0.00  0.00    +0.027 HD
ATOM     48  H   UNL     1       7.558   4.684  18.507  0.00  0.00    +0.027 HD
ENDBRANCH  43  45
BRANCH  43  49
ATOM     49  C   UNL     1       7.477   5.611  15.214  0.00  0.00    +0.009 C 
ATOM     50  H   UNL     1       8.548   5.403  15.325  0.00  0.00    +0.035 HD
ATOM     51  H   UNL     1       7.408   6.659  14.918  0.00  0.00    +0.035 HD
BRANCH  49  52
ATOM     52  C   UNL     1       6.921   4.794  14.069  0.00  0.00    -0.044 A 
ATOM     53  C   UNL     1       5.739   4.044  14.232  0.00  0.00    -0.058 A 
ATOM     54  C   UNL     1       5.234   3.282  13.176  0.00  0.00    -0.061 A 
ATOM     55  C   UNL     1       5.902   3.263  11.944  0.00  0.00    -0.062 A 
ATOM     56  C   UNL     1       7.080   4.003  11.771  0.00  0.00    -0.061 A 
ATOM     57  C   UNL     1       7.588   4.759  12.828  0.00  0.00    -0.058 A 
ATOM     58  H   UNL     1       5.197   4.039  15.183  0.00  0.00    +0.062 HD
ATOM     59  H   UNL     1       4.317   2.705  13.323  0.00  0.00    +0.062 HD
ATOM     60  H   UNL     1       5.506   2.676  11.121  0.00  0.00    +0.062 HD
ATOM     61  H   UNL     1       7.607   3.996  10.811  0.00  0.00    +0.062 HD
ATOM     62  H   UNL     1       8.509   5.324  12.673  0.00  0.00    +0.062 HD
ENDBRANCH  49  52
ENDBRANCH  43  49
ENDBRANCH  42  43
ENDBRANCH   1  42
TORSDOF 9
ENDMDL
MODEL 22
REMARK VINA RESULT:    -7.391      2.253     10.323
REMARK INTER + INTRA:         -11.759
REMARK INTER:                 -10.420
REMARK INTRA:                  -1.339
REMARK UNBOUND:                -0.695
REMARK  Name = 
REMARK  9 active torsions:
REMARK  status: ('A' for Active; 'I' for Inactive)
REMARK    1  A    between atoms: C_1  and  C_2
REMARK    2  A    between atoms: C_2  and  C_3
REMARK    3  A    between atoms: C_2  and  O_10
REMARK    4  A    between atoms: C_3  and  C_4
REMARK    5  A    between atoms: O_10  and  C_11
REMARK    6  A    between atoms: C_14  and  C_15
REMARK    7  A    between atoms: C_15  and  N_16
REMARK    8  A    between atoms: N_19  and  C_20
REMARK    9  A    between atoms: C_29  and  C_30
REMARK                            x       y       z     vdW  Elec       q    Type
REMARK                         _______ _______ _______ _____ _____    ______ ____
ROOT
ATOM      1  C   UNL     1      -0.374  11.686  19.623  0.00  0.00    +0.122 A 
ATOM      2  C   UNL     1      -0.055  10.861  18.534  0.00  0.00    -0.020 A 
ATOM      3  C   UNL     1       0.542   9.613  18.733  0.00  0.00    -0.053 A 
ATOM      4  C   UNL     1       0.807   9.156  20.039  0.00  0.00    -0.018 A 
ATOM      5  C   UNL     1       0.421   9.967  21.129  0.00  0.00    +0.045 A 
ATOM      6  C   UNL     1      -0.147  11.233  20.922  0.00  0.00    -0.008 A 
ATOM      7  H   UNL     1      -0.288  11.188  17.519  0.00  0.00    +0.065 HD
ATOM      8  H   UNL     1       0.774   8.982  17.866  0.00  0.00    +0.062 HD
ATOM      9  H   UNL     1      -0.468  11.810  21.786  0.00  0.00    +0.066 HD
ENDROOT
BRANCH   5  10
ATOM     10  C   UNL     1       0.491   9.457  22.517  0.00  0.00    +0.242 C 
ATOM     11  N   UNL     1      -0.705   9.221  23.130  0.00  0.00    -0.325 N 
ATOM     12  O   UNL     1       1.570   9.265  23.059  0.00  0.00    -0.270 OA
ATOM     13  H   UNL     1      -0.657   9.004  24.117  0.00  0.00    +0.145 HD
ATOM     14  H   UNL     1      -1.557   9.625  22.779  0.00  0.00    +0.145 HD
ENDBRANCH   5  10
BRANCH   4  15
ATOM     15  C   UNL     1       1.448   7.808  20.238  0.00  0.00    +0.039 C 
ATOM     16  H   UNL     1       1.925   7.764  21.225  0.00  0.00    +0.051 HD
ATOM     17  H   UNL     1       0.704   7.004  20.223  0.00  0.00    +0.051 HD
BRANCH  15  18
ATOM     18  N   UNL     1       2.437   7.553  19.221  0.00  0.00    -0.295 N 
ATOM     19  C   UNL     1       3.185   6.410  19.292  0.00  0.00    +0.300 C 
ATOM     20  O   UNL     1       3.145   5.612  20.220  0.00  0.00    -0.253 OA
ATOM     21  N   UNL     1       4.012   6.297  18.209  0.00  0.00    -0.293 N 
ATOM     22  H   UNL     1       2.163   7.814  18.274  0.00  0.00    +0.151 HD
ATOM     23  H   UNL     1       4.288   7.180  17.791  0.00  0.00    +0.151 HD
BRANCH  21  24
ATOM     24  C   UNL     1       5.002   5.244  18.164  0.00  0.00    +0.050 C 
ATOM     25  C   UNL     1       6.338   5.650  18.829  0.00  0.00    -0.026 C 
ATOM     26  C   UNL     1       7.446   4.889  18.091  0.00  0.00    -0.025 C 
ATOM     27  C   UNL     1       6.850   4.755  16.724  0.00  0.00    -0.042 A 
ATOM     28  C   UNL     1       7.499   4.437  15.540  0.00  0.00    -0.058 A 
ATOM     29  C   UNL     1       6.739   4.321  14.372  0.00  0.00    -0.061 A 
ATOM     30  C   UNL     1       5.346   4.505  14.406  0.00  0.00    -0.061 A 
ATOM     31  C   UNL     1       4.699   4.811  15.609  0.00  0.00    -0.057 A 
ATOM     32  C   UNL     1       5.463   4.947  16.762  0.00  0.00    -0.024 A 
ATOM     33  H   UNL     1       4.600   4.337  18.631  0.00  0.00    +0.055 HD
ATOM     34  H   UNL     1       6.346   5.446  19.907  0.00  0.00    +0.029 HD
ATOM     35  H   UNL     1       6.510   6.731  18.716  0.00  0.00    +0.029 HD
ATOM     36  H   UNL     1       8.383   5.456  18.091  0.00  0.00    +0.031 HD
ATOM     37  H   UNL     1       7.607   3.900  18.531  0.00  0.00    +0.031 HD
ATOM     38  H   UNL     1       8.572   4.283  15.516  0.00  0.00    +0.062 HD
ATOM     39  H   UNL     1       7.229   4.080  13.429  0.00  0.00    +0.062 HD
ATOM     40  H   UNL     1       4.767   4.402  13.490  0.00  0.00    +0.062 HD
ATOM     41  H   UNL     1       3.618   4.933  15.640  0.00  0.00    +0.062 HD
ENDBRANCH  21  24
ENDBRANCH  15  18
ENDBRANCH   4  15
BRANCH   1  42
ATOM     42  O   UNL     1      -0.993  12.861  19.303  0.00  0.00    -0.489 OA
BRANCH  42  43
ATOM     43  C   UNL     1      -0.537  14.059  19.942  0.00  0.00    +0.101 C 
ATOM     44  H   UNL     1       0.217  13.826  20.706  0.00  0.00    +0.073 HD
BRANCH  43  45
ATOM     45  C   UNL     1       0.167  14.891  18.874  0.00  0.00    -0.027 C 
ATOM     46  H   UNL     1       1.249  14.767  18.961  0.00  0.00    +0.027 HD
ATOM     47  H   UNL     1      -0.067  15.952  18.972  0.00  0.00    +0.027 HD
ATOM     48  H   UNL     1      -0.092  14.560  17.861  0.00  0.00    +0.027 HD
ENDBRANCH  43  45
BRANCH  43  49
ATOM     49  C   UNL     1      -1.696  14.827  20.602  0.00  0.00    +0.009 C 
ATOM     50  H   UNL     1      -2.337  15.226  19.806  0.00  0.00    +0.035 HD
ATOM     51  H   UNL     1      -1.307  15.699  21.133  0.00  0.00    +0.035 HD
BRANCH  49  52
ATOM     52  C   UNL     1      -2.541  14.054  21.589  0.00  0.00    -0.044 A 
ATOM     53  C   UNL     1      -2.044  13.746  22.872  0.00  0.00    -0.058 A 
ATOM     54  C   UNL     1      -2.823  13.022  23.777  0.00  0.00    -0.061 A 
ATOM     55  C   UNL     1      -4.108  12.599  23.413  0.00  0.00    -0.062 A 
ATOM     56  C   UNL     1      -4.613  12.897  22.139  0.00  0.00    -0.061 A 
ATOM     57  C   UNL     1      -3.832  13.615  21.233  0.00  0.00    -0.058 A 
ATOM     58  H   UNL     1      -1.043  14.063  23.182  0.00  0.00    +0.062 HD
ATOM     59  H   UNL     1      -2.418  12.792  24.767  0.00  0.00    +0.062 HD
ATOM     60  H   UNL     1      -4.717  12.043  24.120  0.00  0.00    +0.062 HD
ATOM     61  H   UNL     1      -5.617  12.573  21.848  0.00  0.00    +0.062 HD
ATOM     62  H   UNL     1      -4.242  13.831  20.245  0.00  0.00    +0.062 HD
ENDBRANCH  49  52
ENDBRANCH  43  49
ENDBRANCH  42  43
ENDBRANCH   1  42
TORSDOF 9
ENDMDL
MODEL 23
REMARK VINA RESULT:    -7.378      2.413      9.637
REMARK INTER + INTRA:         -11.738
REMARK INTER:                 -10.344
REMARK INTRA:                  -1.394
REMARK UNBOUND:                -0.695
REMARK  Name = 
REMARK  9 active torsions:
REMARK  status: ('A' for Active; 'I' for Inactive)
REMARK    1  A    between atoms: C_1  and  C_2
REMARK    2  A    between atoms: C_2  and  C_3
REMARK    3  A    between atoms: C_2  and  O_10
REMARK    4  A    between atoms: C_3  and  C_4
REMARK    5  A    between atoms: O_10  and  C_11
REMARK    6  A    between atoms: C_14  and  C_15
REMARK    7  A    between atoms: C_15  and  N_16
REMARK    8  A    between atoms: N_19  and  C_20
REMARK    9  A    between atoms: C_29  and  C_30
REMARK                            x       y       z     vdW  Elec       q    Type
REMARK                         _______ _______ _______ _____ _____    ______ ____
ROOT
ATOM      1  C   UNL     1      -2.356  10.561  18.464  0.00  0.00    +0.122 A 
ATOM      2  C   UNL     1      -1.805   9.849  17.388  0.00  0.00    -0.020 A 
ATOM      3  C   UNL     1      -0.425   9.644  17.297  0.00  0.00    -0.053 A 
ATOM      4  C   UNL     1       0.430  10.130  18.306  0.00  0.00    -0.018 A 
ATOM      5  C   UNL     1      -0.142  10.788  19.417  0.00  0.00    +0.045 A 
ATOM      6  C   UNL     1      -1.525  11.020  19.485  0.00  0.00    -0.008 A 
ATOM      7  H   UNL     1      -2.460   9.435  16.618  0.00  0.00    +0.065 HD
ATOM      8  H   UNL     1      -0.020   9.075  16.450  0.00  0.00    +0.062 HD
ATOM      9  H   UNL     1      -1.932  11.493  20.376  0.00  0.00    +0.066 HD
ENDROOT
BRANCH   5  10
ATOM     10  C   UNL     1       0.680  11.142  20.595  0.00  0.00    +0.242 C 
ATOM     11  N   UNL     1       1.136  12.428  20.643  0.00  0.00    -0.325 N 
ATOM     12  O   UNL     1       0.920  10.315  21.462  0.00  0.00    -0.270 OA
ATOM     13  H   UNL     1       1.805  12.629  21.374  0.00  0.00    +0.145 HD
ATOM     14  H   UNL     1       1.155  13.003  19.817  0.00  0.00    +0.145 HD
ENDBRANCH   5  10
BRANCH   4  15
ATOM     15  C   UNL     1       1.913   9.898  18.195  0.00  0.00    +0.039 C 
ATOM     16  H   UNL     1       2.375  10.710  17.618  0.00  0.00    +0.051 HD
ATOM     17  H   UNL     1       2.396   9.911  19.178  0.00  0.00    +0.051 HD
BRANCH  15  18
ATOM     18  N   UNL     1       2.193   8.640  17.550  0.00  0.00    -0.295 N 
ATOM     19  C   UNL     1       2.705   7.611  18.291  0.00  0.00    +0.300 C 
ATOM     20  O   UNL     1       3.038   7.702  19.466  0.00  0.00    -0.253 OA
ATOM     21  N   UNL     1       2.833   6.479  17.535  0.00  0.00    -0.293 N 
ATOM     22  H   UNL     1       1.510   8.350  16.850  0.00  0.00    +0.151 HD
ATOM     23  H   UNL     1       2.973   6.643  16.543  0.00  0.00    +0.151 HD
BRANCH  21  24
ATOM     24  C   UNL     1       3.502   5.319  18.081  0.00  0.00    +0.050 C 
ATOM     25  C   UNL     1       4.103   4.406  16.987  0.00  0.00    -0.026 C 
ATOM     26  C   UNL     1       4.061   2.975  17.537  0.00  0.00    -0.025 C 
ATOM     27  C   UNL     1       2.863   3.039  18.433  0.00  0.00    -0.042 A 
ATOM     28  C   UNL     1       2.139   1.982  18.963  0.00  0.00    -0.058 A 
ATOM     29  C   UNL     1       1.071   2.267  19.821  0.00  0.00    -0.061 A 
ATOM     30  C   UNL     1       0.755   3.596  20.148  0.00  0.00    -0.061 A 
ATOM     31  C   UNL     1       1.502   4.655  19.621  0.00  0.00    -0.057 A 
ATOM     32  C   UNL     1       2.548   4.366  18.752  0.00  0.00    -0.024 A 
ATOM     33  H   UNL     1       4.279   5.636  18.786  0.00  0.00    +0.055 HD
ATOM     34  H   UNL     1       5.119   4.708  16.704  0.00  0.00    +0.029 HD
ATOM     35  H   UNL     1       3.497   4.455  16.070  0.00  0.00    +0.029 HD
ATOM     36  H   UNL     1       3.947   2.244  16.730  0.00  0.00    +0.031 HD
ATOM     37  H   UNL     1       4.958   2.749  18.121  0.00  0.00    +0.031 HD
ATOM     38  H   UNL     1       2.390   0.955  18.719  0.00  0.00    +0.062 HD
ATOM     39  H   UNL     1       0.483   1.451  20.241  0.00  0.00    +0.062 HD
ATOM     40  H   UNL     1      -0.073   3.801  20.825  0.00  0.00    +0.062 HD
ATOM     41  H   UNL     1       1.271   5.684  19.891  0.00  0.00    +0.062 HD
ENDBRANCH  21  24
ENDBRANCH  15  18
ENDBRANCH   4  15
BRANCH   1  42
ATOM     42  O   UNL     1      -3.718  10.657  18.463  0.00  0.00    -0.489 OA
BRANCH  42  43
ATOM     43  C   UNL     1      -4.302  11.959  18.337  0.00  0.00    +0.101 C 
ATOM     44  H   UNL     1      -3.522  12.720  18.199  0.00  0.00    +0.073 HD
BRANCH  43  45
ATOM     45  C   UNL     1      -5.132  11.950  17.055  0.00  0.00    -0.027 C 
ATOM     46  H   UNL     1      -4.918  12.847  16.469  0.00  0.00    +0.027 HD
ATOM     47  H   UNL     1      -6.201  11.925  17.269  0.00  0.00    +0.027 HD
ATOM     48  H   UNL     1      -4.877  11.102  16.409  0.00  0.00    +0.027 HD
ENDBRANCH  43  45
BRANCH  43  49
ATOM     49  C   UNL     1      -5.146  12.326  19.569  0.00  0.00    +0.009 C 
ATOM     50  H   UNL     1      -5.702  11.432  19.879  0.00  0.00    +0.035 HD
ATOM     51  H   UNL     1      -5.902  13.065  19.294  0.00  0.00    +0.035 HD
BRANCH  49  52
ATOM     52  C   UNL     1      -4.396  12.887  20.756  0.00  0.00    -0.044 A 
ATOM     53  C   UNL     1      -3.233  13.662  20.568  0.00  0.00    -0.058 A 
ATOM     54  C   UNL     1      -2.536  14.170  21.667  0.00  0.00    -0.061 A 
ATOM     55  C   UNL     1      -2.994  13.913  22.966  0.00  0.00    -0.062 A 
ATOM     56  C   UNL     1      -4.148  13.143  23.166  0.00  0.00    -0.061 A 
ATOM     57  C   UNL     1      -4.841  12.630  22.069  0.00  0.00    -0.058 A 
ATOM     58  H   UNL     1      -2.852  13.877  19.564  0.00  0.00    +0.062 HD
ATOM     59  H   UNL     1      -1.635  14.767  21.499  0.00  0.00    +0.062 HD
ATOM     60  H   UNL     1      -2.456  14.315  23.819  0.00  0.00    +0.062 HD
ATOM     61  H   UNL     1      -4.514  12.940  24.178  0.00  0.00    +0.062 HD
ATOM     62  H   UNL     1      -5.734  12.029  22.247  0.00  0.00    +0.062 HD
ENDBRANCH  49  52
ENDBRANCH  43  49
ENDBRANCH  42  43
ENDBRANCH   1  42
TORSDOF 9
ENDMDL
MODEL 24
REMARK VINA RESULT:    -7.338      1.618      3.216
REMARK INTER + INTRA:         -11.680
REMARK INTER:                 -10.686
REMARK INTRA:                  -0.993
REMARK UNBOUND:                -0.695
REMARK  Name = 
REMARK  9 active torsions:
REMARK  status: ('A' for Active; 'I' for Inactive)
REMARK    1  A    between atoms: C_1  and  C_2
REMARK    2  A    between atoms: C_2  and  C_3
REMARK    3  A    between atoms: C_2  and  O_10
REMARK    4  A    between atoms: C_3  and  C_4
REMARK    5  A    between atoms: O_10  and  C_11
REMARK    6  A    between atoms: C_14  and  C_15
REMARK    7  A    between atoms: C_15  and  N_16
REMARK    8  A    between atoms: N_19  and  C_20
REMARK    9  A    between atoms: C_29  and  C_30
REMARK                            x       y       z     vdW  Elec       q    Type
REMARK                         _______ _______ _______ _____ _____    ______ ____
ROOT
ATOM      1  C   UNL     1       1.974   5.459  19.461  0.00  0.00    +0.122 A 
ATOM      2  C   UNL     1       2.551   5.976  18.291  0.00  0.00    -0.020 A 
ATOM      3  C   UNL     1       2.544   7.350  18.037  0.00  0.00    -0.053 A 
ATOM      4  C   UNL     1       1.978   8.239  18.971  0.00  0.00    -0.018 A 
ATOM      5  C   UNL     1       1.458   7.714  20.174  0.00  0.00    +0.045 A 
ATOM      6  C   UNL     1       1.437   6.331  20.409  0.00  0.00    -0.008 A 
ATOM      7  H   UNL     1       3.026   5.301  17.577  0.00  0.00    +0.065 HD
ATOM      8  H   UNL     1       3.011   7.730  17.119  0.00  0.00    +0.062 HD
ATOM      9  H   UNL     1       1.067   5.968  21.364  0.00  0.00    +0.066 HD
ENDROOT
BRANCH   5  10
ATOM     10  C   UNL     1       1.033   8.610  21.273  0.00  0.00    +0.242 C 
ATOM     11  N   UNL     1       1.978   8.892  22.216  0.00  0.00    -0.325 N 
ATOM     12  O   UNL     1      -0.103   9.059  21.310  0.00  0.00    -0.270 OA
ATOM     13  H   UNL     1       1.649   9.391  23.032  0.00  0.00    +0.145 HD
ATOM     14  H   UNL     1       2.800   8.320  22.315  0.00  0.00    +0.145 HD
ENDBRANCH   5  10
BRANCH   4  15
ATOM     15  C   UNL     1       1.980   9.717  18.683  0.00  0.00    +0.039 C 
ATOM     16  H   UNL     1       2.496  10.253  19.491  0.00  0.00    +0.051 HD
ATOM     17  H   UNL     1       2.532   9.947  17.765  0.00  0.00    +0.051 HD
BRANCH  15  18
ATOM     18  N   UNL     1       0.636  10.222  18.564  0.00  0.00    -0.295 N 
ATOM     19  C   UNL     1       0.357  11.488  19.002  0.00  0.00    +0.300 C 
ATOM     20  O   UNL     1       1.156  12.210  19.585  0.00  0.00    -0.253 OA
ATOM     21  N   UNL     1      -0.942  11.823  18.739  0.00  0.00    -0.293 N 
ATOM     22  H   UNL     1       0.149   9.962  17.705  0.00  0.00    +0.151 HD
ATOM     23  H   UNL     1      -1.584  11.038  18.699  0.00  0.00    +0.151 HD
BRANCH  21  24
ATOM     24  C   UNL     1      -1.488  13.056  19.261  0.00  0.00    +0.050 C 
ATOM     25  C   UNL     1      -0.592  14.281  18.963  0.00  0.00    -0.026 C 
ATOM     26  C   UNL     1      -0.796  15.267  20.120  0.00  0.00    -0.025 C 
ATOM     27  C   UNL     1      -1.111  14.336  21.249  0.00  0.00    -0.042 A 
ATOM     28  C   UNL     1      -1.086  14.607  22.609  0.00  0.00    -0.058 A 
ATOM     29  C   UNL     1      -1.460  13.596  23.499  0.00  0.00    -0.061 A 
ATOM     30  C   UNL     1      -1.870  12.340  23.020  0.00  0.00    -0.061 A 
ATOM     31  C   UNL     1      -1.907  12.081  21.645  0.00  0.00    -0.057 A 
ATOM     32  C   UNL     1      -1.513  13.083  20.767  0.00  0.00    -0.024 A 
ATOM     33  H   UNL     1      -2.497  13.213  18.863  0.00  0.00    +0.055 HD
ATOM     34  H   UNL     1      -0.816  14.735  17.990  0.00  0.00    +0.029 HD
ATOM     35  H   UNL     1       0.467  13.982  18.930  0.00  0.00    +0.029 HD
ATOM     36  H   UNL     1       0.107  15.860  20.298  0.00  0.00    +0.031 HD
ATOM     37  H   UNL     1      -1.646  15.930  19.928  0.00  0.00    +0.031 HD
ATOM     38  H   UNL     1      -0.780  15.580  22.978  0.00  0.00    +0.062 HD
ATOM     39  H   UNL     1      -1.439  13.785  24.572  0.00  0.00    +0.062 HD
ATOM     40  H   UNL     1      -2.168  11.567  23.726  0.00  0.00    +0.062 HD
ATOM     41  H   UNL     1      -2.245  11.116  21.273  0.00  0.00    +0.062 HD
ENDBRANCH  21  24
ENDBRANCH  15  18
ENDBRANCH   4  15
BRANCH   1  42
ATOM     42  O   UNL     1       2.082   4.107  19.617  0.00  0.00    -0.489 OA
BRANCH  42  43
ATOM     43  C   UNL     1       3.103   3.608  20.488  0.00  0.00    +0.101 C 
ATOM     44  H   UNL     1       3.567   4.430  21.049  0.00  0.00    +0.073 HD
BRANCH  43  45
ATOM     45  C   UNL     1       2.411   2.716  21.516  0.00  0.00    -0.027 C 
ATOM     46  H   UNL     1       1.411   3.102  21.728  0.00  0.00    +0.027 HD
ATOM     47  H   UNL     1       2.969   2.674  22.452  0.00  0.00    +0.027 HD
ATOM     48  H   UNL     1       2.266   1.696  21.141  0.00  0.00    +0.027 HD
ENDBRANCH  43  45
BRANCH  43  49
ATOM     49  C   UNL     1       4.196   2.853  19.711  0.00  0.00    +0.009 C 
ATOM     50  H   UNL     1       3.750   1.939  19.299  0.00  0.00    +0.035 HD
ATOM     51  H   UNL     1       4.975   2.518  20.399  0.00  0.00    +0.035 HD
BRANCH  49  52
ATOM     52  C   UNL     1       4.886   3.619  18.605  0.00  0.00    -0.044 A 
ATOM     53  C   UNL     1       5.810   4.639  18.910  0.00  0.00    -0.058 A 
ATOM     54  C   UNL     1       6.438   5.352  17.886  0.00  0.00    -0.061 A 
ATOM     55  C   UNL     1       6.154   5.053  16.547  0.00  0.00    -0.062 A 
ATOM     56  C   UNL     1       5.235   4.041  16.232  0.00  0.00    -0.061 A 
ATOM     57  C   UNL     1       4.602   3.334  17.255  0.00  0.00    -0.058 A 
ATOM     58  H   UNL     1       6.051   4.895  19.946  0.00  0.00    +0.062 HD
ATOM     59  H   UNL     1       7.151   6.141  18.143  0.00  0.00    +0.062 HD
ATOM     60  H   UNL     1       6.648   5.602  15.751  0.00  0.00    +0.062 HD
ATOM     61  H   UNL     1       5.008   3.799  15.188  0.00  0.00    +0.062 HD
ATOM     62  H   UNL     1       3.887   2.554  16.988  0.00  0.00    +0.062 HD
ENDBRANCH  49  52
ENDBRANCH  43  49
ENDBRANCH  42  43
ENDBRANCH   1  42
TORSDOF 9
ENDMDL
MODEL 25
REMARK VINA RESULT:    -7.207      2.389     10.418
REMARK INTER + INTRA:         -11.483
REMARK INTER:                  -9.963
REMARK INTRA:                  -1.520
REMARK UNBOUND:                -0.695
REMARK  Name = 
REMARK  9 active torsions:
REMARK  status: ('A' for Active; 'I' for Inactive)
REMARK    1  A    between atoms: C_1  and  C_2
REMARK    2  A    between atoms: C_2  and  C_3
REMARK    3  A    between atoms: C_2  and  O_10
REMARK    4  A    between atoms: C_3  and  C_4
REMARK    5  A    between atoms: O_10  and  C_11
REMARK    6  A    between atoms: C_14  and  C_15
REMARK    7  A    between atoms: C_15  and  N_16
REMARK    8  A    between atoms: N_19  and  C_20
REMARK    9  A    between atoms: C_29  and  C_30
REMARK                            x       y       z     vdW  Elec       q    Type
REMARK                         _______ _______ _______ _____ _____    ______ ____
ROOT
ATOM      1  C   UNL     1      -0.258  10.789  22.062  0.00  0.00    +0.122 A 
ATOM      2  C   UNL     1      -0.025   9.645  22.840  0.00  0.00    -0.020 A 
ATOM      3  C   UNL     1       0.409   8.455  22.250  0.00  0.00    -0.053 A 
ATOM      4  C   UNL     1       0.645   8.399  20.862  0.00  0.00    -0.018 A 
ATOM      5  C   UNL     1       0.470   9.575  20.100  0.00  0.00    +0.045 A 
ATOM      6  C   UNL     1       0.002  10.757  20.693  0.00  0.00    -0.008 A 
ATOM      7  H   UNL     1      -0.169   9.685  23.922  0.00  0.00    +0.065 HD
ATOM      8  H   UNL     1       0.593   7.576  22.881  0.00  0.00    +0.062 HD
ATOM      9  H   UNL     1      -0.081  11.652  20.081  0.00  0.00    +0.066 HD
ENDROOT
BRANCH   5  10
ATOM     10  C   UNL     1       0.891   9.630  18.681  0.00  0.00    +0.242 C 
ATOM     11  N   UNL     1      -0.114   9.692  17.761  0.00  0.00    -0.325 N 
ATOM     12  O   UNL     1       2.075   9.621  18.380  0.00  0.00    -0.270 OA
ATOM     13  H   UNL     1       0.169   9.593  16.795  0.00  0.00    +0.145 HD
ATOM     14  H   UNL     1      -1.057   9.436  18.002  0.00  0.00    +0.145 HD
ENDBRANCH   5  10
BRANCH   4  15
ATOM     15  C   UNL     1       1.116   7.111  20.241  0.00  0.00    +0.039 C 
ATOM     16  H   UNL     1       0.942   6.277  20.935  0.00  0.00    +0.051 HD
ATOM     17  H   UNL     1       0.551   6.873  19.333  0.00  0.00    +0.051 HD
BRANCH  15  18
ATOM     18  N   UNL     1       2.519   7.175  19.920  0.00  0.00    -0.295 N 
ATOM     19  C   UNL     1       3.163   6.037  19.518  0.00  0.00    +0.300 C 
ATOM     20  O   UNL     1       2.654   4.924  19.497  0.00  0.00    -0.253 OA
ATOM     21  N   UNL     1       4.462   6.301  19.183  0.00  0.00    -0.293 N 
ATOM     22  H   UNL     1       2.813   8.017  19.425  0.00  0.00    +0.151 HD
ATOM     23  H   UNL     1       4.873   7.096  19.664  0.00  0.00    +0.151 HD
BRANCH  21  24
ATOM     24  C   UNL     1       5.365   5.213  18.883  0.00  0.00    +0.050 C 
ATOM     25  C   UNL     1       6.819   5.503  19.325  0.00  0.00    -0.026 C 
ATOM     26  C   UNL     1       7.733   4.758  18.345  0.00  0.00    -0.025 C 
ATOM     27  C   UNL     1       6.899   4.763  17.102  0.00  0.00    -0.042 A 
ATOM     28  C   UNL     1       7.310   4.516  15.800  0.00  0.00    -0.058 A 
ATOM     29  C   UNL     1       6.351   4.530  14.783  0.00  0.00    -0.061 A 
ATOM     30  C   UNL     1       4.999   4.772  15.081  0.00  0.00    -0.061 A 
ATOM     31  C   UNL     1       4.592   5.006  16.400  0.00  0.00    -0.057 A 
ATOM     32  C   UNL     1       5.555   5.012  17.403  0.00  0.00    -0.024 A 
ATOM     33  H   UNL     1       5.000   4.289  19.347  0.00  0.00    +0.055 HD
ATOM     34  H   UNL     1       7.005   5.211  20.365  0.00  0.00    +0.029 HD
ATOM     35  H   UNL     1       7.031   6.582  19.263  0.00  0.00    +0.029 HD
ATOM     36  H   UNL     1       8.687   5.280  18.219  0.00  0.00    +0.031 HD
ATOM     37  H   UNL     1       7.912   3.730  18.675  0.00  0.00    +0.031 HD
ATOM     38  H   UNL     1       8.352   4.317  15.572  0.00  0.00    +0.062 HD
ATOM     39  H   UNL     1       6.653   4.346  13.752  0.00  0.00    +0.062 HD
ATOM     40  H   UNL     1       4.263   4.770  14.279  0.00  0.00    +0.062 HD
ATOM     41  H   UNL     1       3.543   5.173  16.634  0.00  0.00    +0.062 HD
ENDBRANCH  21  24
ENDBRANCH  15  18
ENDBRANCH   4  15
BRANCH   1  42
ATOM     42  O   UNL     1      -0.638  11.901  22.759  0.00  0.00    -0.489 OA
BRANCH  42  43
ATOM     43  C   UNL     1      -1.808  12.603  22.323  0.00  0.00    +0.101 C 
ATOM     44  H   UNL     1      -2.187  12.175  21.386  0.00  0.00    +0.073 HD
BRANCH  43  45
ATOM     45  C   UNL     1      -2.885  12.366  23.379  0.00  0.00    -0.027 C 
ATOM     46  H   UNL     1      -2.644  11.474  23.961  0.00  0.00    +0.027 HD
ATOM     47  H   UNL     1      -3.867  12.226  22.925  0.00  0.00    +0.027 HD
ATOM     48  H   UNL     1      -2.939  13.190  24.100  0.00  0.00    +0.027 HD
ENDBRANCH  43  45
BRANCH  43  49
ATOM     49  C   UNL     1      -1.526  14.101  22.111  0.00  0.00    +0.009 C 
ATOM     50  H   UNL     1      -1.316  14.549  23.091  0.00  0.00    +0.035 HD
ATOM     51  H   UNL     1      -2.426  14.599  21.745  0.00  0.00    +0.035 HD
BRANCH  49  52
ATOM     52  C   UNL     1      -0.412  14.447  21.150  0.00  0.00    -0.044 A 
ATOM     53  C   UNL     1       0.836  14.893  21.632  0.00  0.00    -0.058 A 
ATOM     54  C   UNL     1       1.861  15.222  20.741  0.00  0.00    -0.061 A 
ATOM     55  C   UNL     1       1.653  15.106  19.360  0.00  0.00    -0.062 A 
ATOM     56  C   UNL     1       0.416  14.665  18.870  0.00  0.00    -0.061 A 
ATOM     57  C   UNL     1      -0.610  14.342  19.759  0.00  0.00    -0.058 A 
ATOM     58  H   UNL     1       1.026  14.994  22.705  0.00  0.00    +0.062 HD
ATOM     59  H   UNL     1       2.821  15.568  21.135  0.00  0.00    +0.062 HD
ATOM     60  H   UNL     1       2.452  15.354  18.668  0.00  0.00    +0.062 HD
ATOM     61  H   UNL     1       0.245  14.569  17.792  0.00  0.00    +0.062 HD
ATOM     62  H   UNL     1      -1.567  14.006  19.356  0.00  0.00    +0.062 HD
ENDBRANCH  49  52
ENDBRANCH  43  49
ENDBRANCH  42  43
ENDBRANCH   1  42
TORSDOF 9
ENDMDL
MODEL 26
REMARK VINA RESULT:    -7.205      1.907      9.675
REMARK INTER + INTRA:         -11.480
REMARK INTER:                 -11.462
REMARK INTRA:                  -0.018
REMARK UNBOUND:                -0.695
REMARK  Name = 
REMARK  9 active torsions:
REMARK  status: ('A' for Active; 'I' for Inactive)
REMARK    1  A    between atoms: C_1  and  C_2
REMARK    2  A    between atoms: C_2  and  C_3
REMARK    3  A    between atoms: C_2  and  O_10
REMARK    4  A    between atoms: C_3  and  C_4
REMARK    5  A    between atoms: O_10  and  C_11
REMARK    6  A    between atoms: C_14  and  C_15
REMARK    7  A    between atoms: C_15  and  N_16
REMARK    8  A    between atoms: N_19  and  C_20
REMARK    9  A    between atoms: C_29  and  C_30
REMARK                            x       y       z     vdW  Elec       q    Type
REMARK                         _______ _______ _______ _____ _____    ______ ____
ROOT
ATOM      1  C   UNL     1       0.255  13.537  19.621  0.00  0.00    +0.122 A 
ATOM      2  C   UNL     1       1.516  12.926  19.684  0.00  0.00    -0.020 A 
ATOM      3  C   UNL     1       1.705  11.623  19.213  0.00  0.00    -0.053 A 
ATOM      4  C   UNL     1       0.629  10.915  18.643  0.00  0.00    -0.018 A 
ATOM      5  C   UNL     1      -0.620  11.564  18.525  0.00  0.00    +0.045 A 
ATOM      6  C   UNL     1      -0.811  12.860  19.030  0.00  0.00    -0.008 A 
ATOM      7  H   UNL     1       2.367  13.477  20.090  0.00  0.00    +0.065 HD
ATOM      8  H   UNL     1       2.703  11.171  19.265  0.00  0.00    +0.062 HD
ATOM      9  H   UNL     1      -1.775  13.341  18.883  0.00  0.00    +0.066 HD
ENDROOT
BRANCH   5  10
ATOM     10  C   UNL     1      -1.727  10.948  17.759  0.00  0.00    +0.242 C 
ATOM     11  N   UNL     1      -2.034  11.540  16.569  0.00  0.00    -0.325 N 
ATOM     12  O   UNL     1      -2.314   9.966  18.189  0.00  0.00    -0.270 OA
ATOM     13  H   UNL     1      -2.873  11.203  16.115  0.00  0.00    +0.145 HD
ATOM     14  H   UNL     1      -1.733  12.477  16.361  0.00  0.00    +0.145 HD
ENDBRANCH   5  10
BRANCH   4  15
ATOM     15  C   UNL     1       0.848   9.514  18.138  0.00  0.00    +0.039 C 
ATOM     16  H   UNL     1      -0.119   9.031  17.947  0.00  0.00    +0.051 HD
ATOM     17  H   UNL     1       1.383   9.510  17.182  0.00  0.00    +0.051 HD
BRANCH  15  18
ATOM     18  N   UNL     1       1.588   8.731  19.094  0.00  0.00    -0.295 N 
ATOM     19  C   UNL     1       2.257   7.616  18.668  0.00  0.00    +0.300 C 
ATOM     20  O   UNL     1       2.203   7.169  17.530  0.00  0.00    -0.253 OA
ATOM     21  N   UNL     1       2.963   7.046  19.691  0.00  0.00    -0.293 N 
ATOM     22  H   UNL     1       2.085   9.269  19.805  0.00  0.00    +0.151 HD
ATOM     23  H   UNL     1       2.576   7.207  20.616  0.00  0.00    +0.151 HD
BRANCH  21  24
ATOM     24  C   UNL     1       3.613   5.770  19.496  0.00  0.00    +0.050 C 
ATOM     25  C   UNL     1       4.324   5.665  18.126  0.00  0.00    -0.026 C 
ATOM     26  C   UNL     1       4.271   4.187  17.717  0.00  0.00    -0.025 C 
ATOM     27  C   UNL     1       3.003   3.743  18.378  0.00  0.00    -0.042 A 
ATOM     28  C   UNL     1       2.264   2.599  18.119  0.00  0.00    -0.058 A 
ATOM     29  C   UNL     1       1.124   2.351  18.889  0.00  0.00    -0.061 A 
ATOM     30  C   UNL     1       0.750   3.237  19.914  0.00  0.00    -0.061 A 
ATOM     31  C   UNL     1       1.511   4.382  20.178  0.00  0.00    -0.057 A 
ATOM     32  C   UNL     1       2.631   4.633  19.394  0.00  0.00    -0.024 A 
ATOM     33  H   UNL     1       4.322   5.586  20.312  0.00  0.00    +0.055 HD
ATOM     34  H   UNL     1       5.351   6.046  18.159  0.00  0.00    +0.029 HD
ATOM     35  H   UNL     1       3.793   6.264  17.372  0.00  0.00    +0.029 HD
ATOM     36  H   UNL     1       4.241   4.080  16.627  0.00  0.00    +0.031 HD
ATOM     37  H   UNL     1       5.123   3.634  18.123  0.00  0.00    +0.031 HD
ATOM     38  H   UNL     1       2.559   1.909  17.335  0.00  0.00    +0.062 HD
ATOM     39  H   UNL     1       0.523   1.462  18.697  0.00  0.00    +0.062 HD
ATOM     40  H   UNL     1      -0.136   3.026  20.511  0.00  0.00    +0.062 HD
ATOM     41  H   UNL     1       1.234   5.057  20.985  0.00  0.00    +0.062 HD
ENDBRANCH  21  24
ENDBRANCH  15  18
ENDBRANCH   4  15
BRANCH   1  42
ATOM     42  O   UNL     1       0.208  14.825  20.072  0.00  0.00    -0.489 OA
BRANCH  42  43
ATOM     43  C   UNL     1      -0.561  15.100  21.248  0.00  0.00    +0.101 C 
ATOM     44  H   UNL     1      -0.274  16.068  21.680  0.00  0.00    +0.073 HD
BRANCH  43  45
ATOM     45  C   UNL     1      -2.016  15.235  20.806  0.00  0.00    -0.027 C 
ATOM     46  H   UNL     1      -2.494  14.252  20.802  0.00  0.00    +0.027 HD
ATOM     47  H   UNL     1      -2.094  15.659  19.804  0.00  0.00    +0.027 HD
ATOM     48  H   UNL     1      -2.600  15.850  21.502  0.00  0.00    +0.027 HD
ENDBRANCH  43  45
BRANCH  43  49
ATOM     49  C   UNL     1      -0.381  14.005  22.314  0.00  0.00    +0.009 C 
ATOM     50  H   UNL     1       0.449  14.302  22.969  0.00  0.00    +0.035 HD
ATOM     51  H   UNL     1      -0.065  13.074  21.840  0.00  0.00    +0.035 HD
BRANCH  49  52
ATOM     52  C   UNL     1      -1.594  13.679  23.156  0.00  0.00    -0.044 A 
ATOM     53  C   UNL     1      -2.303  12.477  22.955  0.00  0.00    -0.058 A 
ATOM     54  C   UNL     1      -3.430  12.184  23.727  0.00  0.00    -0.061 A 
ATOM     55  C   UNL     1      -3.859  13.085  24.711  0.00  0.00    -0.062 A 
ATOM     56  C   UNL     1      -3.163  14.284  24.919  0.00  0.00    -0.061 A 
ATOM     57  C   UNL     1      -2.041  14.581  24.143  0.00  0.00    -0.058 A 
ATOM     58  H   UNL     1      -1.991  11.756  22.194  0.00  0.00    +0.062 HD
ATOM     59  H   UNL     1      -3.967  11.247  23.554  0.00  0.00    +0.062 HD
ATOM     60  H   UNL     1      -4.730  12.853  25.316  0.00  0.00    +0.062 HD
ATOM     61  H   UNL     1      -3.490  14.993  25.687  0.00  0.00    +0.062 HD
ATOM     62  H   UNL     1      -1.517  15.522  24.318  0.00  0.00    +0.062 HD
ENDBRANCH  49  52
ENDBRANCH  43  49
ENDBRANCH  42  43
ENDBRANCH   1  42
TORSDOF 9
ENDMDL
MODEL 27
REMARK VINA RESULT:    -7.174      4.480      9.748
REMARK INTER + INTRA:         -11.433
REMARK INTER:                 -10.993
REMARK INTRA:                  -0.440
REMARK UNBOUND:                -0.695
REMARK  Name = 
REMARK  9 active torsions:
REMARK  status: ('A' for Active; 'I' for Inactive)
REMARK    1  A    between atoms: C_1  and  C_2
REMARK    2  A    between atoms: C_2  and  C_3
REMARK    3  A    between atoms: C_2  and  O_10
REMARK    4  A    between atoms: C_3  and  C_4
REMARK    5  A    between atoms: O_10  and  C_11
REMARK    6  A    between atoms: C_14  and  C_15
REMARK    7  A    between atoms: C_15  and  N_16
REMARK    8  A    between atoms: N_19  and  C_20
REMARK    9  A    between atoms: C_29  and  C_30
REMARK                            x       y       z     vdW  Elec       q    Type
REMARK                         _______ _______ _______ _____ _____    ______ ____
ROOT
ATOM      1  C   UNL     1       2.626  13.971  19.113  0.00  0.00    +0.122 A 
ATOM      2  C   UNL     1       2.899  13.144  18.013  0.00  0.00    -0.020 A 
ATOM      3  C   UNL     1       2.321  11.875  17.910  0.00  0.00    -0.053 A 
ATOM      4  C   UNL     1       1.433  11.421  18.904  0.00  0.00    -0.018 A 
ATOM      5  C   UNL     1       1.115  12.287  19.974  0.00  0.00    +0.045 A 
ATOM      6  C   UNL     1       1.724  13.546  20.088  0.00  0.00    -0.008 A 
ATOM      7  H   UNL     1       3.557  13.499  17.217  0.00  0.00    +0.065 HD
ATOM      8  H   UNL     1       2.543  11.252  17.035  0.00  0.00    +0.062 HD
ATOM      9  H   UNL     1       1.422  14.201  20.903  0.00  0.00    +0.066 HD
ENDROOT
BRANCH   5  10
ATOM     10  C   UNL     1       0.043  11.945  20.936  0.00  0.00    +0.242 C 
ATOM     11  N   UNL     1      -1.149  12.583  20.755  0.00  0.00    -0.325 N 
ATOM     12  O   UNL     1       0.239  11.134  21.828  0.00  0.00    -0.270 OA
ATOM     13  H   UNL     1      -1.833  12.451  21.489  0.00  0.00    +0.145 HD
ATOM     14  H   UNL     1      -1.212  13.421  20.201  0.00  0.00    +0.145 HD
ENDBRANCH   5  10
BRANCH   4  15
ATOM     15  C   UNL     1       0.817  10.053  18.779  0.00  0.00    +0.039 C 
ATOM     16  H   UNL     1       0.637   9.632  19.777  0.00  0.00    +0.051 HD
ATOM     17  H   UNL     1      -0.161  10.096  18.287  0.00  0.00    +0.051 HD
BRANCH  15  18
ATOM     18  N   UNL     1       1.677   9.165  18.038  0.00  0.00    -0.295 N 
ATOM     19  C   UNL     1       2.252   8.104  18.681  0.00  0.00    +0.300 C 
ATOM     20  O   UNL     1       2.166   7.894  19.884  0.00  0.00    -0.253 OA
ATOM     21  N   UNL     1       2.969   7.332  17.809  0.00  0.00    -0.293 N 
ATOM     22  H   UNL     1       1.373   8.961  17.086  0.00  0.00    +0.151 HD
ATOM     23  H   UNL     1       3.339   7.830  17.005  0.00  0.00    +0.151 HD
BRANCH  21  24
ATOM     24  C   UNL     1       3.787   6.250  18.309  0.00  0.00    +0.050 C 
ATOM     25  C   UNL     1       5.061   6.022  17.462  0.00  0.00    -0.026 C 
ATOM     26  C   UNL     1       5.387   4.527  17.551  0.00  0.00    -0.025 C 
ATOM     27  C   UNL     1       4.023   3.938  17.735  0.00  0.00    -0.042 A 
ATOM     28  C   UNL     1       3.637   2.616  17.567  0.00  0.00    -0.058 A 
ATOM     29  C   UNL     1       2.308   2.269  17.835  0.00  0.00    -0.061 A 
ATOM     30  C   UNL     1       1.395   3.239  18.281  0.00  0.00    -0.061 A 
ATOM     31  C   UNL     1       1.798   4.567  18.462  0.00  0.00    -0.057 A 
ATOM     32  C   UNL     1       3.114   4.909  18.173  0.00  0.00    -0.024 A 
ATOM     33  H   UNL     1       4.051   6.437  19.356  0.00  0.00    +0.055 HD
ATOM     34  H   UNL     1       5.899   6.647  17.793  0.00  0.00    +0.029 HD
ATOM     35  H   UNL     1       4.874   6.286  16.409  0.00  0.00    +0.029 HD
ATOM     36  H   UNL     1       5.882   4.175  16.640  0.00  0.00    +0.031 HD
ATOM     37  H   UNL     1       6.013   4.310  18.423  0.00  0.00    +0.031 HD
ATOM     38  H   UNL     1       4.345   1.866  17.233  0.00  0.00    +0.062 HD
ATOM     39  H   UNL     1       1.981   1.239  17.701  0.00  0.00    +0.062 HD
ATOM     40  H   UNL     1       0.366   2.951  18.494  0.00  0.00    +0.062 HD
ATOM     41  H   UNL     1       1.096   5.314  18.828  0.00  0.00    +0.062 HD
ENDBRANCH  21  24
ENDBRANCH  15  18
ENDBRANCH   4  15
BRANCH   1  42
ATOM     42  O   UNL     1       3.215  15.203  19.078  0.00  0.00    -0.489 OA
BRANCH  42  43
ATOM     43  C   UNL     1       4.645  15.267  19.101  0.00  0.00    +0.101 C 
ATOM     44  H   UNL     1       4.983  16.303  19.237  0.00  0.00    +0.073 HD
BRANCH  43  45
ATOM     45  C   UNL     1       5.104  14.493  20.334  0.00  0.00    -0.027 C 
ATOM     46  H   UNL     1       6.101  14.826  20.631  0.00  0.00    +0.027 HD
ATOM     47  H   UNL     1       5.141  13.419  20.144  0.00  0.00    +0.027 HD
ATOM     48  H   UNL     1       4.455  14.681  21.199  0.00  0.00    +0.027 HD
ENDBRANCH  43  45
BRANCH  43  49
ATOM     49  C   UNL     1       5.261  14.707  17.806  0.00  0.00    +0.009 C 
ATOM     50  H   UNL     1       5.100  15.442  17.008  0.00  0.00    +0.035 HD
ATOM     51  H   UNL     1       4.721  13.810  17.496  0.00  0.00    +0.035 HD
BRANCH  49  52
ATOM     52  C   UNL     1       6.727  14.340  17.863  0.00  0.00    -0.044 A 
ATOM     53  C   UNL     1       7.680  15.267  18.333  0.00  0.00    -0.058 A 
ATOM     54  C   UNL     1       9.034  14.928  18.374  0.00  0.00    -0.061 A 
ATOM     55  C   UNL     1       9.453  13.660  17.949  0.00  0.00    -0.062 A 
ATOM     56  C   UNL     1       8.514  12.731  17.478  0.00  0.00    -0.061 A 
ATOM     57  C   UNL     1       7.162  13.071  17.430  0.00  0.00    -0.058 A 
ATOM     58  H   UNL     1       7.382  16.264  18.670  0.00  0.00    +0.062 HD
ATOM     59  H   UNL     1       9.758  15.662  18.740  0.00  0.00    +0.062 HD
ATOM     60  H   UNL     1      10.505  13.394  17.988  0.00  0.00    +0.062 HD
ATOM     61  H   UNL     1       8.832  11.737  17.146  0.00  0.00    +0.062 HD
ATOM     62  H   UNL     1       6.449  12.335  17.055  0.00  0.00    +0.062 HD
ENDBRANCH  49  52
ENDBRANCH  43  49
ENDBRANCH  42  43
ENDBRANCH   1  42
TORSDOF 9
ENDMDL
MODEL 28
REMARK VINA RESULT:    -7.142      2.681      9.144
REMARK INTER + INTRA:         -11.386
REMARK INTER:                  -9.574
REMARK INTRA:                  -1.812
REMARK UNBOUND:                -0.695
REMARK  Name = 
REMARK  9 active torsions:
REMARK  status: ('A' for Active; 'I' for Inactive)
REMARK    1  A    between atoms: C_1  and  C_2
REMARK    2  A    between atoms: C_2  and  C_3
REMARK    3  A    between atoms: C_2  and  O_10
REMARK    4  A    between atoms: C_3  and  C_4
REMARK    5  A    between atoms: O_10  and  C_11
REMARK    6  A    between atoms: C_14  and  C_15
REMARK    7  A    between atoms: C_15  and  N_16
REMARK    8  A    between atoms: N_19  and  C_20
REMARK    9  A    between atoms: C_29  and  C_30
REMARK                            x       y       z     vdW  Elec       q    Type
REMARK                         _______ _______ _______ _____ _____    ______ ____
ROOT
ATOM      1  C   UNL     1      -1.532  12.164  19.788  0.00  0.00    +0.122 A 
ATOM      2  C   UNL     1      -0.956  12.335  18.520  0.00  0.00    -0.020 A 
ATOM      3  C   UNL     1       0.161  11.588  18.135  0.00  0.00    -0.053 A 
ATOM      4  C   UNL     1       0.707  10.630  19.012  0.00  0.00    -0.018 A 
ATOM      5  C   UNL     1       0.079  10.420  20.259  0.00  0.00    +0.045 A 
ATOM      6  C   UNL     1      -1.021  11.197  20.653  0.00  0.00    -0.008 A 
ATOM      7  H   UNL     1      -1.392  13.048  17.818  0.00  0.00    +0.065 HD
ATOM      8  H   UNL     1       0.588  11.734  17.135  0.00  0.00    +0.062 HD
ATOM      9  H   UNL     1      -1.503  10.977  21.603  0.00  0.00    +0.066 HD
ENDROOT
BRANCH   5  10
ATOM     10  C   UNL     1       0.484   9.297  21.134  0.00  0.00    +0.242 C 
ATOM     11  N   UNL     1       1.424   9.583  22.080  0.00  0.00    -0.325 N 
ATOM     12  O   UNL     1      -0.012   8.188  20.997  0.00  0.00    -0.270 OA
ATOM     13  H   UNL     1       1.796   8.789  22.584  0.00  0.00    +0.145 HD
ATOM     14  H   UNL     1       2.001  10.404  22.008  0.00  0.00    +0.145 HD
ENDBRANCH   5  10
BRANCH   4  15
ATOM     15  C   UNL     1       1.909   9.831  18.582  0.00  0.00    +0.039 C 
ATOM     16  H   UNL     1       2.414  10.338  17.749  0.00  0.00    +0.051 HD
ATOM     17  H   UNL     1       2.649   9.755  19.386  0.00  0.00    +0.051 HD
BRANCH  15  18
ATOM     18  N   UNL     1       1.526   8.506  18.167  0.00  0.00    -0.295 N 
ATOM     19  C   UNL     1       2.350   7.453  18.455  0.00  0.00    +0.300 C 
ATOM     20  O   UNL     1       3.457   7.560  18.968  0.00  0.00    -0.253 OA
ATOM     21  N   UNL     1       1.793   6.270  18.057  0.00  0.00    -0.293 N 
ATOM     22  H   UNL     1       0.532   8.293  18.256  0.00  0.00    +0.151 HD
ATOM     23  H   UNL     1       1.152   6.344  17.273  0.00  0.00    +0.151 HD
BRANCH  21  24
ATOM     24  C   UNL     1       2.565   5.050  18.123  0.00  0.00    +0.050 C 
ATOM     25  C   UNL     1       2.120   4.002  17.076  0.00  0.00    -0.026 C 
ATOM     26  C   UNL     1       2.390   2.624  17.691  0.00  0.00    -0.025 C 
ATOM     27  C   UNL     1       2.224   2.915  19.150  0.00  0.00    -0.042 A 
ATOM     28  C   UNL     1       2.037   2.008  20.183  0.00  0.00    -0.058 A 
ATOM     29  C   UNL     1       1.947   2.495  21.491  0.00  0.00    -0.061 A 
ATOM     30  C   UNL     1       2.062   3.872  21.749  0.00  0.00    -0.061 A 
ATOM     31  C   UNL     1       2.265   4.777  20.701  0.00  0.00    -0.057 A 
ATOM     32  C   UNL     1       2.332   4.288  19.401  0.00  0.00    -0.024 A 
ATOM     33  H   UNL     1       3.631   5.279  18.008  0.00  0.00    +0.055 HD
ATOM     34  H   UNL     1       2.632   4.131  16.114  0.00  0.00    +0.029 HD
ATOM     35  H   UNL     1       1.043   4.099  16.870  0.00  0.00    +0.029 HD
ATOM     36  H   UNL     1       1.675   1.880  17.323  0.00  0.00    +0.031 HD
ATOM     37  H   UNL     1       3.412   2.292  17.486  0.00  0.00    +0.031 HD
ATOM     38  H   UNL     1       1.961   0.944  19.985  0.00  0.00    +0.062 HD
ATOM     39  H   UNL     1       1.792   1.801  22.317  0.00  0.00    +0.062 HD
ATOM     40  H   UNL     1       1.999   4.234  22.774  0.00  0.00    +0.062 HD
ATOM     41  H   UNL     1       2.375   5.841  20.902  0.00  0.00    +0.062 HD
ENDBRANCH  21  24
ENDBRANCH  15  18
ENDBRANCH   4  15
BRANCH   1  42
ATOM     42  O   UNL     1      -2.644  12.919  20.030  0.00  0.00    -0.489 OA
BRANCH  42  43
ATOM     43  C   UNL     1      -3.885  12.240  20.255  0.00  0.00    +0.101 C 
ATOM     44  H   UNL     1      -3.706  11.224  20.631  0.00  0.00    +0.073 HD
BRANCH  43  45
ATOM     45  C   UNL     1      -4.609  12.995  21.366  0.00  0.00    -0.027 C 
ATOM     46  H   UNL     1      -5.678  13.043  21.146  0.00  0.00    +0.027 HD
ATOM     47  H   UNL     1      -4.233  14.014  21.471  0.00  0.00    +0.027 HD
ATOM     48  H   UNL     1      -4.525  12.482  22.332  0.00  0.00    +0.027 HD
ENDBRANCH  43  45
BRANCH  43  49
ATOM     49  C   UNL     1      -4.728  12.155  18.970  0.00  0.00    +0.009 C 
ATOM     50  H   UNL     1      -4.913  13.177  18.617  0.00  0.00    +0.035 HD
ATOM     51  H   UNL     1      -5.711  11.738  19.199  0.00  0.00    +0.035 HD
BRANCH  49  52
ATOM     52  C   UNL     1      -4.153  11.329  17.841  0.00  0.00    -0.044 A 
ATOM     53  C   UNL     1      -4.263  11.767  16.506  0.00  0.00    -0.058 A 
ATOM     54  C   UNL     1      -3.740  10.997  15.464  0.00  0.00    -0.061 A 
ATOM     55  C   UNL     1      -3.098   9.783  15.744  0.00  0.00    -0.062 A 
ATOM     56  C   UNL     1      -2.984   9.337  17.068  0.00  0.00    -0.061 A 
ATOM     57  C   UNL     1      -3.512  10.102  18.108  0.00  0.00    -0.058 A 
ATOM     58  H   UNL     1      -4.760  12.710  16.258  0.00  0.00    +0.062 HD
ATOM     59  H   UNL     1      -3.838  11.353  14.435  0.00  0.00    +0.062 HD
ATOM     60  H   UNL     1      -2.685   9.188  14.935  0.00  0.00    +0.062 HD
ATOM     61  H   UNL     1      -2.482   8.391  17.296  0.00  0.00    +0.062 HD
ATOM     62  H   UNL     1      -3.417   9.734  19.131  0.00  0.00    +0.062 HD
ENDBRANCH  49  52
ENDBRANCH  43  49
ENDBRANCH  42  43
ENDBRANCH   1  42
TORSDOF 9
ENDMDL
MODEL 29
REMARK VINA RESULT:    -7.090      2.637      9.564
REMARK INTER + INTRA:         -11.308
REMARK INTER:                 -10.202
REMARK INTRA:                  -1.107
REMARK UNBOUND:                -0.695
REMARK  Name = 
REMARK  9 active torsions:
REMARK  status: ('A' for Active; 'I' for Inactive)
REMARK    1  A    between atoms: C_1  and  C_2
REMARK    2  A    between atoms: C_2  and  C_3
REMARK    3  A    between atoms: C_2  and  O_10
REMARK    4  A    between atoms: C_3  and  C_4
REMARK    5  A    between atoms: O_10  and  C_11
REMARK    6  A    between atoms: C_14  and  C_15
REMARK    7  A    between atoms: C_15  and  N_16
REMARK    8  A    between atoms: N_19  and  C_20
REMARK    9  A    between atoms: C_29  and  C_30
REMARK                            x       y       z     vdW  Elec       q    Type
REMARK                         _______ _______ _______ _____ _____    ______ ____
ROOT
ATOM      1  C   UNL     1      -0.449  11.983  20.994  0.00  0.00    +0.122 A 
ATOM      2  C   UNL     1      -0.492  10.607  20.722  0.00  0.00    -0.020 A 
ATOM      3  C   UNL     1       0.294  10.054  19.707  0.00  0.00    -0.053 A 
ATOM      4  C   UNL     1       1.163  10.873  18.960  0.00  0.00    -0.018 A 
ATOM      5  C   UNL     1       1.246  12.245  19.286  0.00  0.00    +0.045 A 
ATOM      6  C   UNL     1       0.430  12.800  20.284  0.00  0.00    -0.008 A 
ATOM      7  H   UNL     1      -1.134   9.956  21.318  0.00  0.00    +0.065 HD
ATOM      8  H   UNL     1       0.250   8.974  19.520  0.00  0.00    +0.062 HD
ATOM      9  H   UNL     1       0.553  13.851  20.534  0.00  0.00    +0.066 HD
ENDROOT
BRANCH   5  10
ATOM     10  C   UNL     1       2.280  13.110  18.674  0.00  0.00    +0.242 C 
ATOM     11  N   UNL     1       2.124  13.379  17.345  0.00  0.00    -0.325 N 
ATOM     12  O   UNL     1       3.205  13.547  19.341  0.00  0.00    -0.270 OA
ATOM     13  H   UNL     1       2.899  13.855  16.901  0.00  0.00    +0.145 HD
ATOM     14  H   UNL     1       1.527  12.813  16.766  0.00  0.00    +0.145 HD
ENDBRANCH   5  10
BRANCH   4  15
ATOM     15  C   UNL     1       2.005  10.262  17.871  0.00  0.00    +0.039 C 
ATOM     16  H   UNL     1       1.785  10.749  16.912  0.00  0.00    +0.051 HD
ATOM     17  H   UNL     1       3.074  10.420  18.054  0.00  0.00    +0.051 HD
BRANCH  15  18
ATOM     18  N   UNL     1       1.751   8.848  17.755  0.00  0.00    -0.295 N 
ATOM     19  C   UNL     1       2.721   7.963  18.139  0.00  0.00    +0.300 C 
ATOM     20  O   UNL     1       3.848   8.283  18.496  0.00  0.00    -0.253 OA
ATOM     21  N   UNL     1       2.279   6.674  18.031  0.00  0.00    -0.293 N 
ATOM     22  H   UNL     1       0.803   8.556  17.992  0.00  0.00    +0.151 HD
ATOM     23  H   UNL     1       1.565   6.526  17.324  0.00  0.00    +0.151 HD
BRANCH  21  24
ATOM     24  C   UNL     1       3.197   5.577  18.236  0.00  0.00    +0.050 C 
ATOM     25  C   UNL     1       3.892   5.127  16.929  0.00  0.00    -0.026 C 
ATOM     26  C   UNL     1       4.168   3.625  17.073  0.00  0.00    -0.025 C 
ATOM     27  C   UNL     1       3.045   3.203  17.968  0.00  0.00    -0.042 A 
ATOM     28  C   UNL     1       2.579   1.917  18.202  0.00  0.00    -0.058 A 
ATOM     29  C   UNL     1       1.537   1.741  19.117  0.00  0.00    -0.061 A 
ATOM     30  C   UNL     1       0.989   2.843  19.795  0.00  0.00    -0.061 A 
ATOM     31  C   UNL     1       1.476   4.134  19.564  0.00  0.00    -0.057 A 
ATOM     32  C   UNL     1       2.497   4.305  18.637  0.00  0.00    -0.024 A 
ATOM     33  H   UNL     1       3.943   5.853  18.991  0.00  0.00    +0.055 HD
ATOM     34  H   UNL     1       4.806   5.696  16.725  0.00  0.00    +0.029 HD
ATOM     35  H   UNL     1       3.227   5.287  16.067  0.00  0.00    +0.029 HD
ATOM     36  H   UNL     1       4.146   3.124  16.100  0.00  0.00    +0.031 HD
ATOM     37  H   UNL     1       5.130   3.445  17.563  0.00  0.00    +0.031 HD
ATOM     38  H   UNL     1       3.010   1.066  17.687  0.00  0.00    +0.062 HD
ATOM     39  H   UNL     1       1.150   0.740  19.309  0.00  0.00    +0.062 HD
ATOM     40  H   UNL     1       0.184   2.687  20.512  0.00  0.00    +0.062 HD
ATOM     41  H   UNL     1       1.066   4.985  20.104  0.00  0.00    +0.062 HD
ENDBRANCH  21  24
ENDBRANCH  15  18
ENDBRANCH   4  15
BRANCH   1  42
ATOM     42  O   UNL     1      -1.229  12.396  22.036  0.00  0.00    -0.489 OA
BRANCH  42  43
ATOM     43  C   UNL     1      -2.649  12.265  21.908  0.00  0.00    +0.101 C 
ATOM     44  H   UNL     1      -2.928  11.214  21.760  0.00  0.00    +0.073 HD
BRANCH  43  45
ATOM     45  C   UNL     1      -3.256  12.694  23.242  0.00  0.00    -0.027 C 
ATOM     46  H   UNL     1      -4.304  12.388  23.288  0.00  0.00    +0.027 HD
ATOM     47  H   UNL     1      -3.206  13.775  23.378  0.00  0.00    +0.027 HD
ATOM     48  H   UNL     1      -2.764  12.203  24.091  0.00  0.00    +0.027 HD
ENDBRANCH  43  45
BRANCH  43  49
ATOM     49  C   UNL     1      -3.193  13.097  20.733  0.00  0.00    +0.009 C 
ATOM     50  H   UNL     1      -2.461  13.882  20.505  0.00  0.00    +0.035 HD
ATOM     51  H   UNL     1      -4.102  13.619  21.038  0.00  0.00    +0.035 HD
BRANCH  49  52
ATOM     52  C   UNL     1      -3.527  12.337  19.469  0.00  0.00    -0.044 A 
ATOM     53  C   UNL     1      -4.844  11.898  19.224  0.00  0.00    -0.058 A 
ATOM     54  C   UNL     1      -5.147  11.188  18.060  0.00  0.00    -0.061 A 
ATOM     55  C   UNL     1      -4.140  10.910  17.127  0.00  0.00    -0.062 A 
ATOM     56  C   UNL     1      -2.826  11.341  17.360  0.00  0.00    -0.061 A 
ATOM     57  C   UNL     1      -2.522  12.045  18.526  0.00  0.00    -0.058 A 
ATOM     58  H   UNL     1      -5.650  12.100  19.936  0.00  0.00    +0.062 HD
ATOM     59  H   UNL     1      -6.175  10.854  17.890  0.00  0.00    +0.062 HD
ATOM     60  H   UNL     1      -4.377  10.365  16.218  0.00  0.00    +0.062 HD
ATOM     61  H   UNL     1      -2.033  11.130  16.635  0.00  0.00    +0.062 HD
ATOM     62  H   UNL     1      -1.492  12.366  18.690  0.00  0.00    +0.062 HD
ENDBRANCH  49  52
ENDBRANCH  43  49
ENDBRANCH  42  43
ENDBRANCH   1  42
TORSDOF 9
ENDMDL
MODEL 30
REMARK VINA RESULT:    -7.037      2.860      9.603
REMARK INTER + INTRA:         -11.229
REMARK INTER:                 -10.534
REMARK INTRA:                  -0.695
REMARK UNBOUND:                -0.695
REMARK  Name = 
REMARK  9 active torsions:
REMARK  status: ('A' for Active; 'I' for Inactive)
REMARK    1  A    between atoms: C_1  and  C_2
REMARK    2  A    between atoms: C_2  and  C_3
REMARK    3  A    between atoms: C_2  and  O_10
REMARK    4  A    between atoms: C_3  and  C_4
REMARK    5  A    between atoms: O_10  and  C_11
REMARK    6  A    between atoms: C_14  and  C_15
REMARK    7  A    between atoms: C_15  and  N_16
REMARK    8  A    between atoms: N_19  and  C_20
REMARK    9  A    between atoms: C_29  and  C_30
REMARK                            x       y       z     vdW  Elec       q    Type
REMARK                         _______ _______ _______ _____ _____    ______ ____
ROOT
ATOM      1  C   UNL     1      -1.464  11.766  19.792  0.00  0.00    +0.122 A 
ATOM      2  C   UNL     1      -0.689  11.354  18.697  0.00  0.00    -0.020 A 
ATOM      3  C   UNL     1       0.302  10.379  18.848  0.00  0.00    -0.053 A 
ATOM      4  C   UNL     1       0.515   9.777  20.103  0.00  0.00    -0.018 A 
ATOM      5  C   UNL     1      -0.315  10.152  21.182  0.00  0.00    +0.045 A 
ATOM      6  C   UNL     1      -1.285  11.155  21.033  0.00  0.00    -0.008 A 
ATOM      7  H   UNL     1      -0.869  11.786  17.710  0.00  0.00    +0.065 HD
ATOM      8  H   UNL     1       0.888  10.067  17.974  0.00  0.00    +0.062 HD
ATOM      9  H   UNL     1      -1.931  11.387  21.875  0.00  0.00    +0.066 HD
ENDROOT
BRANCH   5  10
ATOM     10  C   UNL     1      -0.270   9.417  22.466  0.00  0.00    +0.242 C 
ATOM     11  N   UNL     1      -0.951   8.235  22.503  0.00  0.00    -0.325 N 
ATOM     12  O   UNL     1       0.349   9.863  23.421  0.00  0.00    -0.270 OA
ATOM     13  H   UNL     1      -1.032   7.804  23.414  0.00  0.00    +0.145 HD
ATOM     14  H   UNL     1      -1.655   8.019  21.818  0.00  0.00    +0.145 HD
ENDBRANCH   5  10
BRANCH   4  15
ATOM     15  C   UNL     1       1.584   8.727  20.249  0.00  0.00    +0.039 C 
ATOM     16  H   UNL     1       2.460   9.154  20.756  0.00  0.00    +0.051 HD
ATOM     17  H   UNL     1       1.246   7.894  20.875  0.00  0.00    +0.051 HD
BRANCH  15  18
ATOM     18  N   UNL     1       1.985   8.216  18.963  0.00  0.00    -0.295 N 
ATOM     19  C   UNL     1       2.699   7.051  18.901  0.00  0.00    +0.300 C 
ATOM     20  O   UNL     1       3.113   6.440  19.879  0.00  0.00    -0.253 OA
ATOM     21  N   UNL     1       2.923   6.680  17.604  0.00  0.00    -0.293 N 
ATOM     22  H   UNL     1       1.294   8.321  18.219  0.00  0.00    +0.151 HD
ATOM     23  H   UNL     1       2.954   7.449  16.941  0.00  0.00    +0.151 HD
BRANCH  21  24
ATOM     24  C   UNL     1       3.794   5.564  17.313  0.00  0.00    +0.050 C 
ATOM     25  C   UNL     1       3.580   4.372  18.275  0.00  0.00    -0.026 C 
ATOM     26  C   UNL     1       4.935   3.665  18.407  0.00  0.00    -0.025 C 
ATOM     27  C   UNL     1       5.883   4.805  18.201  0.00  0.00    -0.042 A 
ATOM     28  C   UNL     1       7.234   4.854  18.512  0.00  0.00    -0.058 A 
ATOM     29  C   UNL     1       7.950   6.013  18.194  0.00  0.00    -0.061 A 
ATOM     30  C   UNL     1       7.314   7.092  17.557  0.00  0.00    -0.061 A 
ATOM     31  C   UNL     1       5.954   7.026  17.234  0.00  0.00    -0.057 A 
ATOM     32  C   UNL     1       5.243   5.880  17.573  0.00  0.00    -0.024 A 
ATOM     33  H   UNL     1       3.656   5.247  16.273  0.00  0.00    +0.055 HD
ATOM     34  H   UNL     1       2.793   3.692  17.928  0.00  0.00    +0.029 HD
ATOM     35  H   UNL     1       3.266   4.731  19.267  0.00  0.00    +0.029 HD
ATOM     36  H   UNL     1       5.042   3.196  19.390  0.00  0.00    +0.031 HD
ATOM     37  H   UNL     1       5.068   2.916  17.620  0.00  0.00    +0.031 HD
ATOM     38  H   UNL     1       7.727   4.017  18.992  0.00  0.00    +0.062 HD
ATOM     39  H   UNL     1       9.011   6.077  18.437  0.00  0.00    +0.062 HD
ATOM     40  H   UNL     1       7.888   7.983  17.308  0.00  0.00    +0.062 HD
ATOM     41  H   UNL     1       5.466   7.853  16.723  0.00  0.00    +0.062 HD
ENDBRANCH  21  24
ENDBRANCH  15  18
ENDBRANCH   4  15
BRANCH   1  42
ATOM     42  O   UNL     1      -2.427  12.691  19.509  0.00  0.00    -0.489 OA
BRANCH  42  43
ATOM     43  C   UNL     1      -3.756  12.449  19.986  0.00  0.00    +0.101 C 
ATOM     44  H   UNL     1      -3.753  11.662  20.752  0.00  0.00    +0.073 HD
BRANCH  43  45
ATOM     45  C   UNL     1      -4.219  13.729  20.677  0.00  0.00    -0.027 C 
ATOM     46  H   UNL     1      -3.635  14.578  20.314  0.00  0.00    +0.027 HD
ATOM     47  H   UNL     1      -4.100  13.667  21.759  0.00  0.00    +0.027 HD
ATOM     48  H   UNL     1      -5.265  13.964  20.445  0.00  0.00    +0.027 HD
ENDBRANCH  43  45
BRANCH  43  49
ATOM     49  C   UNL     1      -4.703  12.033  18.846  0.00  0.00    +0.009 C 
ATOM     50  H   UNL     1      -5.162  12.942  18.437  0.00  0.00    +0.035 HD
ATOM     51  H   UNL     1      -5.527  11.440  19.247  0.00  0.00    +0.035 HD
BRANCH  49  52
ATOM     52  C   UNL     1      -4.090  11.230  17.721  0.00  0.00    -0.044 A 
ATOM     53  C   UNL     1      -3.972  11.782  16.429  0.00  0.00    -0.058 A 
ATOM     54  C   UNL     1      -3.414  11.034  15.389  0.00  0.00    -0.061 A 
ATOM     55  C   UNL     1      -2.966   9.728  15.628  0.00  0.00    -0.062 A 
ATOM     56  C   UNL     1      -3.080   9.168  16.908  0.00  0.00    -0.061 A 
ATOM     57  C   UNL     1      -3.642   9.913  17.946  0.00  0.00    -0.058 A 
ATOM     58  H   UNL     1      -4.314  12.799  16.213  0.00  0.00    +0.062 HD
ATOM     59  H   UNL     1      -3.334  11.479  14.393  0.00  0.00    +0.062 HD
ATOM     60  H   UNL     1      -2.526   9.149  14.821  0.00  0.00    +0.062 HD
ATOM     61  H   UNL     1      -2.730   8.149  17.104  0.00  0.00    +0.062 HD
ATOM     62  H   UNL     1      -3.726   9.456  18.933  0.00  0.00    +0.062 HD
ENDBRANCH  49  52
ENDBRANCH  43  49
ENDBRANCH  42  43
ENDBRANCH   1  42
TORSDOF 9
ENDMDL
MODEL 31
REMARK VINA RESULT:    -7.014      1.865      3.599
REMARK INTER + INTRA:         -11.195
REMARK INTER:                 -11.910
REMARK INTRA:                   0.716
REMARK UNBOUND:                -0.695
REMARK  Name = 
REMARK  9 active torsions:
REMARK  status: ('A' for Active; 'I' for Inactive)
REMARK    1  A    between atoms: C_1  and  C_2
REMARK    2  A    between atoms: C_2  and  C_3
REMARK    3  A    between atoms: C_2  and  O_10
REMARK    4  A    between atoms: C_3  and  C_4
REMARK    5  A    between atoms: O_10  and  C_11
REMARK    6  A    between atoms: C_14  and  C_15
REMARK    7  A    between atoms: C_15  and  N_16
REMARK    8  A    between atoms: N_19  and  C_20
REMARK    9  A    between atoms: C_29  and  C_30
REMARK                            x       y       z     vdW  Elec       q    Type
REMARK                         _______ _______ _______ _____ _____    ______ ____
ROOT
ATOM      1  C   UNL     1       2.683   6.770  18.293  0.00  0.00    +0.122 A 
ATOM      2  C   UNL     1       2.593   6.249  19.593  0.00  0.00    -0.020 A 
ATOM      3  C   UNL     1       1.982   6.980  20.616  0.00  0.00    -0.053 A 
ATOM      4  C   UNL     1       1.423   8.244  20.345  0.00  0.00    -0.018 A 
ATOM      5  C   UNL     1       1.461   8.729  19.019  0.00  0.00    +0.045 A 
ATOM      6  C   UNL     1       2.106   8.006  18.004  0.00  0.00    -0.008 A 
ATOM      7  H   UNL     1       2.990   5.255  19.808  0.00  0.00    +0.065 HD
ATOM      8  H   UNL     1       1.916   6.546  21.622  0.00  0.00    +0.062 HD
ATOM      9  H   UNL     1       2.079   8.393  16.988  0.00  0.00    +0.066 HD
ENDROOT
BRANCH   5  10
ATOM     10  C   UNL     1       0.720   9.952  18.636  0.00  0.00    +0.242 C 
ATOM     11  N   UNL     1       1.481  11.018  18.253  0.00  0.00    -0.325 N 
ATOM     12  O   UNL     1      -0.501   9.978  18.667  0.00  0.00    -0.270 OA
ATOM     13  H   UNL     1       0.983  11.888  18.123  0.00  0.00    +0.145 HD
ATOM     14  H   UNL     1       2.459  11.067  18.482  0.00  0.00    +0.145 HD
ENDBRANCH   5  10
BRANCH   4  15
ATOM     15  C   UNL     1       0.765   9.018  21.456  0.00  0.00    +0.039 C 
ATOM     16  H   UNL     1      -0.257   8.649  21.613  0.00  0.00    +0.051 HD
ATOM     17  H   UNL     1       1.289   8.876  22.408  0.00  0.00    +0.051 HD
BRANCH  15  18
ATOM     18  N   UNL     1       0.720  10.425  21.149  0.00  0.00    -0.295 N 
ATOM     19  C   UNL     1      -0.199  11.216  21.782  0.00  0.00    +0.300 C 
ATOM     20  O   UNL     1      -1.067  10.799  22.539  0.00  0.00    -0.253 OA
ATOM     21  N   UNL     1      -0.045  12.527  21.426  0.00  0.00    -0.293 N 
ATOM     22  H   UNL     1       1.628  10.869  21.012  0.00  0.00    +0.151 HD
ATOM     23  H   UNL     1       0.351  12.674  20.502  0.00  0.00    +0.151 HD
BRANCH  21  24
ATOM     24  C   UNL     1      -1.014  13.509  21.857  0.00  0.00    +0.050 C 
ATOM     25  C   UNL     1      -1.211  13.522  23.391  0.00  0.00    -0.026 C 
ATOM     26  C   UNL     1      -2.664  13.944  23.644  0.00  0.00    -0.025 C 
ATOM     27  C   UNL     1      -3.340  13.423  22.414  0.00  0.00    -0.042 A 
ATOM     28  C   UNL     1      -4.698  13.224  22.210  0.00  0.00    -0.058 A 
ATOM     29  C   UNL     1      -5.124  12.765  20.959  0.00  0.00    -0.061 A 
ATOM     30  C   UNL     1      -4.195  12.530  19.931  0.00  0.00    -0.061 A 
ATOM     31  C   UNL     1      -2.829  12.749  20.143  0.00  0.00    -0.057 A 
ATOM     32  C   UNL     1      -2.410  13.184  21.395  0.00  0.00    -0.024 A 
ATOM     33  H   UNL     1      -0.719  14.503  21.500  0.00  0.00    +0.055 HD
ATOM     34  H   UNL     1      -0.497  14.182  23.898  0.00  0.00    +0.029 HD
ATOM     35  H   UNL     1      -1.053  12.515  23.806  0.00  0.00    +0.029 HD
ATOM     36  H   UNL     1      -3.051  13.495  24.564  0.00  0.00    +0.031 HD
ATOM     37  H   UNL     1      -2.756  15.034  23.693  0.00  0.00    +0.031 HD
ATOM     38  H   UNL     1      -5.416  13.416  22.999  0.00  0.00    +0.062 HD
ATOM     39  H   UNL     1      -6.185  12.593  20.779  0.00  0.00    +0.062 HD
ATOM     40  H   UNL     1      -4.544  12.182  18.960  0.00  0.00    +0.062 HD
ATOM     41  H   UNL     1      -2.112  12.587  19.341  0.00  0.00    +0.062 HD
ENDBRANCH  21  24
ENDBRANCH  15  18
ENDBRANCH   4  15
BRANCH   1  42
ATOM     42  O   UNL     1       3.263   5.944  17.373  0.00  0.00    -0.489 OA
BRANCH  42  43
ATOM     43  C   UNL     1       3.702   4.652  17.809  0.00  0.00    +0.101 C 
ATOM     44  H   UNL     1       3.653   4.577  18.903  0.00  0.00    +0.073 HD
BRANCH  43  45
ATOM     45  C   UNL     1       2.706   3.636  17.256  0.00  0.00    -0.027 C 
ATOM     46  H   UNL     1       1.906   4.154  16.723  0.00  0.00    +0.027 HD
ATOM     47  H   UNL     1       2.259   3.038  18.052  0.00  0.00    +0.027 HD
ATOM     48  H   UNL     1       3.170   2.965  16.523  0.00  0.00    +0.027 HD
ENDBRANCH  43  45
BRANCH  43  49
ATOM     49  C   UNL     1       5.142   4.357  17.352  0.00  0.00    +0.009 C 
ATOM     50  H   UNL     1       5.139   4.261  16.259  0.00  0.00    +0.035 HD
ATOM     51  H   UNL     1       5.459   3.384  17.733  0.00  0.00    +0.035 HD
BRANCH  49  52
ATOM     52  C   UNL     1       6.198   5.356  17.767  0.00  0.00    -0.044 A 
ATOM     53  C   UNL     1       6.420   6.522  17.005  0.00  0.00    -0.058 A 
ATOM     54  C   UNL     1       7.403   7.438  17.385  0.00  0.00    -0.061 A 
ATOM     55  C   UNL     1       8.175   7.202  18.531  0.00  0.00    -0.062 A 
ATOM     56  C   UNL     1       7.964   6.046  19.295  0.00  0.00    -0.061 A 
ATOM     57  C   UNL     1       6.986   5.127  18.912  0.00  0.00    -0.058 A 
ATOM     58  H   UNL     1       5.833   6.730  16.105  0.00  0.00    +0.062 HD
ATOM     59  H   UNL     1       7.561   8.335  16.779  0.00  0.00    +0.062 HD
ATOM     60  H   UNL     1       8.934   7.918  18.830  0.00  0.00    +0.062 HD
ATOM     61  H   UNL     1       8.561   5.856  20.193  0.00  0.00    +0.062 HD
ATOM     62  H   UNL     1       6.843   4.231  19.519  0.00  0.00    +0.062 HD
ENDBRANCH  49  52
ENDBRANCH  43  49
ENDBRANCH  42  43
ENDBRANCH   1  42
TORSDOF 9
ENDMDL
MODEL 32
REMARK VINA RESULT:    -6.965      2.176      9.584
REMARK INTER + INTRA:         -11.121
REMARK INTER:                  -9.237
REMARK INTRA:                  -1.884
REMARK UNBOUND:                -0.695
REMARK  Name = 
REMARK  9 active torsions:
REMARK  status: ('A' for Active; 'I' for Inactive)
REMARK    1  A    between atoms: C_1  and  C_2
REMARK    2  A    between atoms: C_2  and  C_3
REMARK    3  A    between atoms: C_2  and  O_10
REMARK    4  A    between atoms: C_3  and  C_4
REMARK    5  A    between atoms: O_10  and  C_11
REMARK    6  A    between atoms: C_14  and  C_15
REMARK    7  A    between atoms: C_15  and  N_16
REMARK    8  A    between atoms: N_19  and  C_20
REMARK    9  A    between atoms: C_29  and  C_30
REMARK                            x       y       z     vdW  Elec       q    Type
REMARK                         _______ _______ _______ _____ _____    ______ ____
ROOT
ATOM      1  C   UNL     1      -1.410  11.431  20.017  0.00  0.00    +0.122 A 
ATOM      2  C   UNL     1      -1.042  11.618  18.676  0.00  0.00    -0.020 A 
ATOM      3  C   UNL     1       0.085  10.981  18.148  0.00  0.00    -0.053 A 
ATOM      4  C   UNL     1       0.852  10.118  18.954  0.00  0.00    -0.018 A 
ATOM      5  C   UNL     1       0.435   9.886  20.283  0.00  0.00    +0.045 A 
ATOM      6  C   UNL     1      -0.677  10.554  20.818  0.00  0.00    -0.008 A 
ATOM      7  H   UNL     1      -1.649  12.256  18.031  0.00  0.00    +0.065 HD
ATOM      8  H   UNL     1       0.346  11.136  17.093  0.00  0.00    +0.062 HD
ATOM      9  H   UNL     1      -0.992  10.318  21.831  0.00  0.00    +0.066 HD
ENDROOT
BRANCH   5  10
ATOM     10  C   UNL     1       1.081   8.843  21.111  0.00  0.00    +0.242 C 
ATOM     11  N   UNL     1       1.992   9.285  22.026  0.00  0.00    -0.325 N 
ATOM     12  O   UNL     1       0.797   7.663  20.966  0.00  0.00    -0.270 OA
ATOM     13  H   UNL     1       2.528   8.565  22.494  0.00  0.00    +0.145 HD
ATOM     14  H   UNL     1       2.401  10.201  21.953  0.00  0.00    +0.145 HD
ENDBRANCH   5  10
BRANCH   4  15
ATOM     15  C   UNL     1       2.061   9.437  18.369  0.00  0.00    +0.039 C 
ATOM     16  H   UNL     1       2.442  10.018  17.519  0.00  0.00    +0.051 HD
ATOM     17  H   UNL     1       2.881   9.384  19.093  0.00  0.00    +0.051 HD
BRANCH  15  18
ATOM     18  N   UNL     1       1.739   8.104  17.925  0.00  0.00    -0.295 N 
ATOM     19  C   UNL     1       2.525   7.059  18.328  0.00  0.00    +0.300 C 
ATOM     20  O   UNL     1       3.557   7.179  18.976  0.00  0.00    -0.253 OA
ATOM     21  N   UNL     1       2.026   5.869  17.877  0.00  0.00    -0.293 N 
ATOM     22  H   UNL     1       0.743   7.887  17.891  0.00  0.00    +0.151 HD
ATOM     23  H   UNL     1       1.489   5.931  17.017  0.00  0.00    +0.151 HD
BRANCH  21  24
ATOM     24  C   UNL     1       2.789   4.654  18.055  0.00  0.00    +0.050 C 
ATOM     25  C   UNL     1       2.418   3.559  17.027  0.00  0.00    -0.026 C 
ATOM     26  C   UNL     1       2.639   2.210  17.724  0.00  0.00    -0.025 C 
ATOM     27  C   UNL     1       2.370   2.569  19.152  0.00  0.00    -0.042 A 
ATOM     28  C   UNL     1       2.108   1.710  20.210  0.00  0.00    -0.058 A 
ATOM     29  C   UNL     1       1.925   2.257  21.484  0.00  0.00    -0.061 A 
ATOM     30  C   UNL     1       2.024   3.645  21.685  0.00  0.00    -0.061 A 
ATOM     31  C   UNL     1       2.304   4.501  20.614  0.00  0.00    -0.057 A 
ATOM     32  C   UNL     1       2.463   3.952  19.346  0.00  0.00    -0.024 A 
ATOM     33  H   UNL     1       3.861   4.878  18.006  0.00  0.00    +0.055 HD
ATOM     34  H   UNL     1       2.997   3.643  16.100  0.00  0.00    +0.029 HD
ATOM     35  H   UNL     1       1.359   3.645  16.741  0.00  0.00    +0.029 HD
ATOM     36  H   UNL     1       1.951   1.450  17.340  0.00  0.00    +0.031 HD
ATOM     37  H   UNL     1       3.673   1.870  17.608  0.00  0.00    +0.031 HD
ATOM     38  H   UNL     1       2.043   0.639  20.056  0.00  0.00    +0.062 HD
ATOM     39  H   UNL     1       1.710   1.602  22.328  0.00  0.00    +0.062 HD
ATOM     40  H   UNL     1       1.889   4.054  22.685  0.00  0.00    +0.062 HD
ATOM     41  H   UNL     1       2.402   5.573  20.773  0.00  0.00    +0.062 HD
ENDBRANCH  21  24
ENDBRANCH  15  18
ENDBRANCH   4  15
BRANCH   1  42
ATOM     42  O   UNL     1      -2.552  12.071  20.403  0.00  0.00    -0.489 OA
BRANCH  42  43
ATOM     43  C   UNL     1      -2.559  13.503  20.391  0.00  0.00    +0.101 C 
ATOM     44  H   UNL     1      -2.417  13.881  19.370  0.00  0.00    +0.073 HD
BRANCH  43  45
ATOM     45  C   UNL     1      -3.954  13.944  20.829  0.00  0.00    -0.027 C 
ATOM     46  H   UNL     1      -4.020  13.933  21.920  0.00  0.00    +0.027 HD
ATOM     47  H   UNL     1      -4.727  13.285  20.431  0.00  0.00    +0.027 HD
ATOM     48  H   UNL     1      -4.171  14.975  20.525  0.00  0.00    +0.027 HD
ENDBRANCH  43  45
BRANCH  43  49
ATOM     49  C   UNL     1      -1.459  14.085  21.296  0.00  0.00    +0.009 C 
ATOM     50  H   UNL     1      -1.349  13.424  22.165  0.00  0.00    +0.035 HD
ATOM     51  H   UNL     1      -1.780  15.049  21.697  0.00  0.00    +0.035 HD
BRANCH  49  52
ATOM     52  C   UNL     1      -0.107  14.304  20.656  0.00  0.00    -0.044 A 
ATOM     53  C   UNL     1       1.060  13.781  21.250  0.00  0.00    -0.058 A 
ATOM     54  C   UNL     1       2.309  13.994  20.661  0.00  0.00    -0.061 A 
ATOM     55  C   UNL     1       2.407  14.729  19.473  0.00  0.00    -0.062 A 
ATOM     56  C   UNL     1       1.254  15.256  18.874  0.00  0.00    -0.061 A 
ATOM     57  C   UNL     1       0.007  15.049  19.465  0.00  0.00    -0.058 A 
ATOM     58  H   UNL     1       1.013  13.203  22.179  0.00  0.00    +0.062 HD
ATOM     59  H   UNL     1       3.202  13.580  21.139  0.00  0.00    +0.062 HD
ATOM     60  H   UNL     1       3.377  14.888  19.012  0.00  0.00    +0.062 HD
ATOM     61  H   UNL     1       1.322  15.830  17.944  0.00  0.00    +0.062 HD
ATOM     62  H   UNL     1      -0.877  15.473  18.986  0.00  0.00    +0.062 HD
ENDBRANCH  49  52
ENDBRANCH  43  49
ENDBRANCH  42  43
ENDBRANCH   1  42
TORSDOF 9
ENDMDL
MODEL 33
REMARK VINA RESULT:    -6.949      2.500     10.023
REMARK INTER + INTRA:         -11.097
REMARK INTER:                 -10.000
REMARK INTRA:                  -1.098
REMARK UNBOUND:                -0.695
REMARK  Name = 
REMARK  9 active torsions:
REMARK  status: ('A' for Active; 'I' for Inactive)
REMARK    1  A    between atoms: C_1  and  C_2
REMARK    2  A    between atoms: C_2  and  C_3
REMARK    3  A    between atoms: C_2  and  O_10
REMARK    4  A    between atoms: C_3  and  C_4
REMARK    5  A    between atoms: O_10  and  C_11
REMARK    6  A    between atoms: C_14  and  C_15
REMARK    7  A    between atoms: C_15  and  N_16
REMARK    8  A    between atoms: N_19  and  C_20
REMARK    9  A    between atoms: C_29  and  C_30
REMARK                            x       y       z     vdW  Elec       q    Type
REMARK                         _______ _______ _______ _____ _____    ______ ____
ROOT
ATOM      1  C   UNL     1       0.854  12.624  20.965  0.00  0.00    +0.122 A 
ATOM      2  C   UNL     1       0.817  12.840  19.579  0.00  0.00    -0.020 A 
ATOM      3  C   UNL     1       0.790  11.763  18.688  0.00  0.00    -0.053 A 
ATOM      4  C   UNL     1       0.773  10.441  19.177  0.00  0.00    -0.018 A 
ATOM      5  C   UNL     1       0.745  10.238  20.574  0.00  0.00    +0.045 A 
ATOM      6  C   UNL     1       0.806  11.322  21.463  0.00  0.00    -0.008 A 
ATOM      7  H   UNL     1       0.793  13.859  19.188  0.00  0.00    +0.065 HD
ATOM      8  H   UNL     1       0.752  11.957  17.609  0.00  0.00    +0.062 HD
ATOM      9  H   UNL     1       0.740  11.128  22.531  0.00  0.00    +0.066 HD
ENDROOT
BRANCH   5  10
ATOM     10  C   UNL     1       0.527   8.888  21.141  0.00  0.00    +0.242 C 
ATOM     11  N   UNL     1       1.652   8.172  21.430  0.00  0.00    -0.325 N 
ATOM     12  O   UNL     1      -0.604   8.465  21.331  0.00  0.00    -0.270 OA
ATOM     13  H   UNL     1       1.502   7.205  21.688  0.00  0.00    +0.145 HD
ATOM     14  H   UNL     1       2.542   8.418  21.031  0.00  0.00    +0.145 HD
ENDBRANCH   5  10
BRANCH   4  15
ATOM     15  C   UNL     1       0.742   9.292  18.205  0.00  0.00    +0.039 C 
ATOM     16  H   UNL     1       0.159   8.463  18.627  0.00  0.00    +0.051 HD
ATOM     17  H   UNL     1       0.243   9.570  17.270  0.00  0.00    +0.051 HD
BRANCH  15  18
ATOM     18  N   UNL     1       2.074   8.831  17.907  0.00  0.00    -0.295 N 
ATOM     19  C   UNL     1       2.378   7.509  18.086  0.00  0.00    +0.300 C 
ATOM     20  O   UNL     1       1.617   6.685  18.576  0.00  0.00    -0.253 OA
ATOM     21  N   UNL     1       3.656   7.241  17.682  0.00  0.00    -0.293 N 
ATOM     22  H   UNL     1       2.505   9.249  17.082  0.00  0.00    +0.151 HD
ATOM     23  H   UNL     1       4.297   8.026  17.746  0.00  0.00    +0.151 HD
BRANCH  21  24
ATOM     24  C   UNL     1       4.233   5.939  17.932  0.00  0.00    +0.050 C 
ATOM     25  C   UNL     1       5.133   5.914  19.189  0.00  0.00    -0.026 C 
ATOM     26  C   UNL     1       6.220   4.862  18.931  0.00  0.00    -0.025 C 
ATOM     27  C   UNL     1       6.347   4.931  17.441  0.00  0.00    -0.042 A 
ATOM     28  C   UNL     1       7.380   4.445  16.652  0.00  0.00    -0.058 A 
ATOM     29  C   UNL     1       7.279   4.577  15.264  0.00  0.00    -0.061 A 
ATOM     30  C   UNL     1       6.146   5.174  14.685  0.00  0.00    -0.061 A 
ATOM     31  C   UNL     1       5.102   5.647  15.489  0.00  0.00    -0.057 A 
ATOM     32  C   UNL     1       5.219   5.532  16.869  0.00  0.00    -0.024 A 
ATOM     33  H   UNL     1       3.436   5.190  18.015  0.00  0.00    +0.055 HD
ATOM     34  H   UNL     1       4.567   5.704  20.104  0.00  0.00    +0.029 HD
ATOM     35  H   UNL     1       5.612   6.894  19.337  0.00  0.00    +0.029 HD
ATOM     36  H   UNL     1       7.149   5.119  19.449  0.00  0.00    +0.031 HD
ATOM     37  H   UNL     1       5.885   3.866  19.236  0.00  0.00    +0.031 HD
ATOM     38  H   UNL     1       8.249   3.974  17.099  0.00  0.00    +0.062 HD
ATOM     39  H   UNL     1       8.083   4.211  14.626  0.00  0.00    +0.062 HD
ATOM     40  H   UNL     1       6.078   5.261  13.602  0.00  0.00    +0.062 HD
ATOM     41  H   UNL     1       4.215   6.090  15.040  0.00  0.00    +0.062 HD
ENDBRANCH  21  24
ENDBRANCH  15  18
ENDBRANCH   4  15
BRANCH   1  42
ATOM     42  O   UNL     1       0.834  13.755  21.731  0.00  0.00    -0.489 OA
BRANCH  42  43
ATOM     43  C   UNL     1      -0.373  14.069  22.436  0.00  0.00    +0.101 C 
ATOM     44  H   UNL     1      -0.144  14.540  23.402  0.00  0.00    +0.073 HD
BRANCH  43  45
ATOM     45  C   UNL     1      -1.111  15.116  21.605  0.00  0.00    -0.027 C 
ATOM     46  H   UNL     1      -1.328  15.992  22.222  0.00  0.00    +0.027 HD
ATOM     47  H   UNL     1      -2.052  14.729  21.214  0.00  0.00    +0.027 HD
ATOM     48  H   UNL     1      -0.500  15.481  20.771  0.00  0.00    +0.027 HD
ENDBRANCH  43  45
BRANCH  43  49
ATOM     49  C   UNL     1      -1.232  12.817  22.682  0.00  0.00    +0.009 C 
ATOM     50  H   UNL     1      -1.336  12.683  23.766  0.00  0.00    +0.035 HD
ATOM     51  H   UNL     1      -0.705  11.930  22.324  0.00  0.00    +0.035 HD
BRANCH  49  52
ATOM     52  C   UNL     1      -2.601  12.803  22.039  0.00  0.00    -0.044 A 
ATOM     53  C   UNL     1      -3.758  13.018  22.815  0.00  0.00    -0.058 A 
ATOM     54  C   UNL     1      -5.022  12.994  22.221  0.00  0.00    -0.061 A 
ATOM     55  C   UNL     1      -5.145  12.759  20.845  0.00  0.00    -0.062 A 
ATOM     56  C   UNL     1      -4.001  12.543  20.063  0.00  0.00    -0.061 A 
ATOM     57  C   UNL     1      -2.739  12.560  20.658  0.00  0.00    -0.058 A 
ATOM     58  H   UNL     1      -3.692  13.203  23.892  0.00  0.00    +0.062 HD
ATOM     59  H   UNL     1      -5.908  13.161  22.841  0.00  0.00    +0.062 HD
ATOM     60  H   UNL     1      -6.127  12.748  20.382  0.00  0.00    +0.062 HD
ATOM     61  H   UNL     1      -4.088  12.361  18.987  0.00  0.00    +0.062 HD
ATOM     62  H   UNL     1      -1.862  12.383  20.032  0.00  0.00    +0.062 HD
ENDBRANCH  49  52
ENDBRANCH  43  49
ENDBRANCH  42  43
ENDBRANCH   1  42
TORSDOF 9
ENDMDL
