MODEL 1
REMARK VINA RESULT:    -8.569      0.000      0.000
REMARK INTER + INTRA:         -11.699
REMARK INTER:                 -11.137
REMARK INTRA:                  -0.562
REMARK UNBOUND:                -0.375
REMARK  Name = 
REMARK  6 active torsions:
REMARK  status: ('A' for Active; 'I' for Inactive)
REMARK    1  A    between atoms: C_1  and  C_2
REMARK    2  A    between atoms: C_2  and  C_3
REMARK    3  A    between atoms: C_2  and  S_22
REMARK    4  A    between atoms: C_5  and  N_9
REMARK    5  A    between atoms: C_10  and  C_12
REMARK    6  A    between atoms: S_22  and  C_23
REMARK                            x       y       z     vdW  Elec       q    Type
REMARK                         _______ _______ _______ _____ _____    ______ ____
ROOT
ATOM      1  C   UNL     1      -0.142  10.403  20.317  0.00  0.00    -0.033 A 
ATOM      2  C   UNL     1       0.738   9.479  19.724  0.00  0.00    -0.036 A 
ATOM      3  C   UNL     1       1.404   8.512  20.490  0.00  0.00    +0.034 A 
ATOM      4  C   UNL     1       1.235   8.506  21.870  0.00  0.00    -0.040 A 
ATOM      5  C   UNL     1       0.408   9.449  22.481  0.00  0.00    -0.060 A 
ATOM      6  C   UNL     1      -0.280  10.388  21.711  0.00  0.00    -0.057 A 
ATOM      7  H   UNL     1       0.849   9.465  18.642  0.00  0.00    +0.064 HD
ATOM      8  H   UNL     1       1.737   7.776  22.498  0.00  0.00    +0.064 HD
ATOM      9  H   UNL     1       0.277   9.428  23.565  0.00  0.00    +0.062 HD
ATOM     10  H   UNL     1      -0.945  11.081  22.217  0.00  0.00    +0.062 HD
ENDROOT
BRANCH   3  11
ATOM     11  N   UNL     1       2.182   7.573  19.794  0.00  0.00    -0.280 N 
ATOM     12  C   UNL     1       2.150   6.199  19.910  0.00  0.00    +0.267 C 
ATOM     13  O   UNL     1       1.491   5.535  20.705  0.00  0.00    -0.268 OA
ATOM     14  H   UNL     1       2.712   7.896  18.992  0.00  0.00    +0.155 HD
BRANCH  12  15
ATOM     15  C   UNL     1       2.967   5.521  18.847  0.00  0.00    +0.126 A 
ATOM     16  C   UNL     1       3.592   6.282  17.863  0.00  0.00    -0.023 A 
ATOM     17  C   UNL     1       4.442   5.634  16.958  0.00  0.00    -0.014 A 
ATOM     18  C   UNL     1       5.130   6.338  15.952  0.00  0.00    -0.054 A 
ATOM     19  C   UNL     1       5.990   5.667  15.079  0.00  0.00    -0.061 A 
ATOM     20  C   UNL     1       6.174   4.290  15.195  0.00  0.00    -0.061 A 
ATOM     21  C   UNL     1       5.487   3.577  16.174  0.00  0.00    -0.053 A 
ATOM     22  C   UNL     1       4.625   4.238  17.067  0.00  0.00    +0.000 A 
ATOM     23  C   UNL     1       3.930   3.572  18.080  0.00  0.00    +0.036 A 
ATOM     24  N   UNL     1       3.119   4.174  18.981  0.00  0.00    -0.250 NA
ATOM     25  H   UNL     1       3.445   7.354  17.833  0.00  0.00    +0.065 HD
ATOM     26  H   UNL     1       5.000   7.412  15.841  0.00  0.00    +0.062 HD
ATOM     27  H   UNL     1       6.518   6.222  14.307  0.00  0.00    +0.062 HD
ATOM     28  H   UNL     1       6.846   3.770  14.516  0.00  0.00    +0.062 HD
ATOM     29  H   UNL     1       5.630   2.499  16.240  0.00  0.00    +0.062 HD
ATOM     30  H   UNL     1       4.026   2.499  18.210  0.00  0.00    +0.084 HD
ENDBRANCH  12  15
ENDBRANCH   3  11
BRANCH   1  31
ATOM     31  C   UNL     1      -1.005  11.330  19.484  0.00  0.00    +0.035 C 
ATOM     32  H   UNL     1      -1.916  11.566  20.049  0.00  0.00    +0.046 HD
BRANCH  31  33
ATOM     33  C   UNL     1      -0.322  12.656  19.154  0.00  0.00    -0.049 C 
ATOM     34  H   UNL     1      -0.858  13.178  18.356  0.00  0.00    +0.024 HD
ATOM     35  H   UNL     1      -0.278  13.332  20.012  0.00  0.00    +0.024 HD
ATOM     36  H   UNL     1       0.704  12.495  18.801  0.00  0.00    +0.024 HD
ENDBRANCH  31  33
BRANCH  31  37
ATOM     37  S   UNL     1      -1.470  10.487  17.913  0.00  0.00    -0.077 S 
BRANCH  37  38
ATOM     38  C   UNL     1      -3.081  11.073  17.680  0.00  0.00    +0.204 A 
ATOM     39  N   UNL     1      -3.858  11.552  18.633  0.00  0.00    -0.208 NA
ATOM     40  C   UNL     1      -4.969  11.948  17.939  0.00  0.00    +0.141 A 
ATOM     41  N   UNL     1      -4.938  11.734  16.627  0.00  0.00    -0.142 NA
ATOM     42  N   UNL     1      -3.717  11.185  16.476  0.00  0.00    -0.145 N 
ATOM     43 CL   UNL     1      -3.208  10.541  14.961  0.00  0.00    +0.040 Cl
ATOM     44  H   UNL     1      -5.831  12.398  18.411  0.00  0.00    +0.107 HD
ENDBRANCH  37  38
ENDBRANCH  31  37
ENDBRANCH   1  31
TORSDOF 6
ENDMDL
MODEL 2
REMARK VINA RESULT:    -8.069      4.234      9.556
REMARK INTER + INTRA:         -11.039
REMARK INTER:                 -10.614
REMARK INTRA:                  -0.424
REMARK UNBOUND:                -0.375
REMARK  Name = 
REMARK  6 active torsions:
REMARK  status: ('A' for Active; 'I' for Inactive)
REMARK    1  A    between atoms: C_1  and  C_2
REMARK    2  A    between atoms: C_2  and  C_3
REMARK    3  A    between atoms: C_2  and  S_22
REMARK    4  A    between atoms: C_5  and  N_9
REMARK    5  A    between atoms: C_10  and  C_12
REMARK    6  A    between atoms: S_22  and  C_23
REMARK                            x       y       z     vdW  Elec       q    Type
REMARK                         _______ _______ _______ _____ _____    ______ ____
ROOT
ATOM      1  C   UNL     1       4.390   4.954  17.052  0.00  0.00    -0.033 A 
ATOM      2  C   UNL     1       3.799   5.991  17.797  0.00  0.00    -0.036 A 
ATOM      3  C   UNL     1       2.634   5.777  18.546  0.00  0.00    +0.034 A 
ATOM      4  C   UNL     1       2.021   4.530  18.505  0.00  0.00    -0.040 A 
ATOM      5  C   UNL     1       2.563   3.505  17.729  0.00  0.00    -0.060 A 
ATOM      6  C   UNL     1       3.741   3.712  17.012  0.00  0.00    -0.057 A 
ATOM      7  H   UNL     1       4.293   6.958  17.852  0.00  0.00    +0.064 HD
ATOM      8  H   UNL     1       1.114   4.327  19.068  0.00  0.00    +0.064 HD
ATOM      9  H   UNL     1       2.075   2.528  17.712  0.00  0.00    +0.062 HD
ATOM     10  H   UNL     1       4.156   2.880  16.451  0.00  0.00    +0.062 HD
ENDROOT
BRANCH   3  11
ATOM     11  N   UNL     1       2.178   6.847  19.334  0.00  0.00    -0.280 N 
ATOM     12  C   UNL     1       1.908   8.137  18.929  0.00  0.00    +0.267 C 
ATOM     13  O   UNL     1       2.093   8.623  17.817  0.00  0.00    -0.268 OA
ATOM     14  H   UNL     1       1.837   6.639  20.266  0.00  0.00    +0.155 HD
BRANCH  12  15
ATOM     15  C   UNL     1       1.228   8.937  20.003  0.00  0.00    +0.126 A 
ATOM     16  C   UNL     1       0.443  10.034  19.658  0.00  0.00    -0.023 A 
ATOM     17  C   UNL     1      -0.274  10.686  20.670  0.00  0.00    -0.014 A 
ATOM     18  C   UNL     1      -1.109  11.786  20.396  0.00  0.00    -0.054 A 
ATOM     19  C   UNL     1      -1.830  12.401  21.423  0.00  0.00    -0.061 A 
ATOM     20  C   UNL     1      -1.727  11.932  22.731  0.00  0.00    -0.061 A 
ATOM     21  C   UNL     1      -0.892  10.856  23.020  0.00  0.00    -0.053 A 
ATOM     22  C   UNL     1      -0.167  10.219  21.998  0.00  0.00    +0.000 A 
ATOM     23  C   UNL     1       0.668   9.123  22.232  0.00  0.00    +0.036 A 
ATOM     24  N   UNL     1       1.355   8.460  21.273  0.00  0.00    -0.250 NA
ATOM     25  H   UNL     1       0.368  10.342  18.623  0.00  0.00    +0.065 HD
ATOM     26  H   UNL     1      -1.201  12.172  19.383  0.00  0.00    +0.062 HD
ATOM     27  H   UNL     1      -2.473  13.249  21.198  0.00  0.00    +0.062 HD
ATOM     28  H   UNL     1      -2.291  12.411  23.528  0.00  0.00    +0.062 HD
ATOM     29  H   UNL     1      -0.811  10.513  24.051  0.00  0.00    +0.062 HD
ATOM     30  H   UNL     1       0.794   8.723  23.233  0.00  0.00    +0.084 HD
ENDBRANCH  12  15
ENDBRANCH   3  11
BRANCH   1  31
ATOM     31  C   UNL     1       5.743   5.119  16.389  0.00  0.00    +0.035 C 
ATOM     32  H   UNL     1       5.716   6.012  15.750  0.00  0.00    +0.046 HD
BRANCH  31  33
ATOM     33  C   UNL     1       6.884   5.313  17.386  0.00  0.00    -0.049 C 
ATOM     34  H   UNL     1       6.561   5.936  18.225  0.00  0.00    +0.024 HD
ATOM     35  H   UNL     1       7.244   4.369  17.802  0.00  0.00    +0.024 HD
ATOM     36  H   UNL     1       7.736   5.820  16.918  0.00  0.00    +0.024 HD
ENDBRANCH  31  33
BRANCH  31  37
ATOM     37  S   UNL     1       6.100   3.642  15.347  0.00  0.00    -0.077 S 
BRANCH  37  38
ATOM     38  C   UNL     1       6.797   4.378  13.945  0.00  0.00    +0.204 A 
ATOM     39  N   UNL     1       7.694   5.347  13.965  0.00  0.00    -0.208 NA
ATOM     40  C   UNL     1       7.976   5.516  12.637  0.00  0.00    +0.141 A 
ATOM     41  N   UNL     1       7.307   4.731  11.799  0.00  0.00    -0.142 NA
ATOM     42  N   UNL     1       6.566   4.000  12.653  0.00  0.00    -0.145 N 
ATOM     43 CL   UNL     1       5.357   2.913  12.083  0.00  0.00    +0.040 Cl
ATOM     44  H   UNL     1       8.688   6.244  12.273  0.00  0.00    +0.107 HD
ENDBRANCH  37  38
ENDBRANCH  31  37
ENDBRANCH   1  31
TORSDOF 6
ENDMDL
MODEL 3
REMARK VINA RESULT:    -8.060      3.949      9.284
REMARK INTER + INTRA:         -11.025
REMARK INTER:                 -10.758
REMARK INTRA:                  -0.268
REMARK UNBOUND:                -0.375
REMARK  Name = 
REMARK  6 active torsions:
REMARK  status: ('A' for Active; 'I' for Inactive)
REMARK    1  A    between atoms: C_1  and  C_2
REMARK    2  A    between atoms: C_2  and  C_3
REMARK    3  A    between atoms: C_2  and  S_22
REMARK    4  A    between atoms: C_5  and  N_9
REMARK    5  A    between atoms: C_10  and  C_12
REMARK    6  A    between atoms: S_22  and  C_23
REMARK                            x       y       z     vdW  Elec       q    Type
REMARK                         _______ _______ _______ _____ _____    ______ ____
ROOT
ATOM      1  C   UNL     1       4.281   4.168  16.827  0.00  0.00    -0.033 A 
ATOM      2  C   UNL     1       3.711   5.312  17.415  0.00  0.00    -0.036 A 
ATOM      3  C   UNL     1       2.559   5.226  18.208  0.00  0.00    +0.034 A 
ATOM      4  C   UNL     1       1.936   3.993  18.368  0.00  0.00    -0.040 A 
ATOM      5  C   UNL     1       2.457   2.857  17.749  0.00  0.00    -0.060 A 
ATOM      6  C   UNL     1       3.624   2.942  16.988  0.00  0.00    -0.057 A 
ATOM      7  H   UNL     1       4.212   6.272  17.313  0.00  0.00    +0.064 HD
ATOM      8  H   UNL     1       1.039   3.887  18.972  0.00  0.00    +0.064 HD
ATOM      9  H   UNL     1       1.963   1.893  17.889  0.00  0.00    +0.062 HD
ATOM     10  H   UNL     1       4.022   2.030  16.553  0.00  0.00    +0.062 HD
ENDROOT
BRANCH   3  11
ATOM     11  N   UNL     1       2.124   6.408  18.832  0.00  0.00    -0.280 N 
ATOM     12  C   UNL     1       2.372   7.707  18.442  0.00  0.00    +0.267 C 
ATOM     13  O   UNL     1       3.090   8.084  17.521  0.00  0.00    -0.268 OA
ATOM     14  H   UNL     1       1.409   6.332  19.547  0.00  0.00    +0.155 HD
BRANCH  12  15
ATOM     15  C   UNL     1       1.559   8.698  19.225  0.00  0.00    +0.126 A 
ATOM     16  C   UNL     1       1.072   8.354  20.483  0.00  0.00    -0.023 A 
ATOM     17  C   UNL     1       0.421   9.339  21.238  0.00  0.00    -0.014 A 
ATOM     18  C   UNL     1      -0.077   9.076  22.528  0.00  0.00    -0.054 A 
ATOM     19  C   UNL     1      -0.700  10.085  23.266  0.00  0.00    -0.061 A 
ATOM     20  C   UNL     1      -0.839  11.364  22.730  0.00  0.00    -0.061 A 
ATOM     21  C   UNL     1      -0.367  11.635  21.448  0.00  0.00    -0.053 A 
ATOM     22  C   UNL     1       0.271  10.634  20.695  0.00  0.00    +0.000 A 
ATOM     23  C   UNL     1       0.781  10.860  19.414  0.00  0.00    +0.036 A 
ATOM     24  N   UNL     1       1.432   9.936  18.670  0.00  0.00    -0.250 NA
ATOM     25  H   UNL     1       1.232   7.357  20.872  0.00  0.00    +0.065 HD
ATOM     26  H   UNL     1       0.017   8.085  22.966  0.00  0.00    +0.062 HD
ATOM     27  H   UNL     1      -1.079   9.869  24.263  0.00  0.00    +0.062 HD
ATOM     28  H   UNL     1      -1.322  12.148  23.307  0.00  0.00    +0.062 HD
ATOM     29  H   UNL     1      -0.499  12.636  21.038  0.00  0.00    +0.062 HD
ATOM     30  H   UNL     1       0.691  11.834  18.942  0.00  0.00    +0.084 HD
ENDBRANCH  12  15
ENDBRANCH   3  11
BRANCH   1  31
ATOM     31  C   UNL     1       5.623   4.218  16.123  0.00  0.00    +0.035 C 
ATOM     32  H   UNL     1       6.329   3.574  16.663  0.00  0.00    +0.046 HD
BRANCH  31  33
ATOM     33  C   UNL     1       5.566   3.717  14.681  0.00  0.00    -0.049 C 
ATOM     34  H   UNL     1       4.529   3.630  14.344  0.00  0.00    +0.024 HD
ATOM     35  H   UNL     1       6.079   4.382  13.983  0.00  0.00    +0.024 HD
ATOM     36  H   UNL     1       6.018   2.722  14.590  0.00  0.00    +0.024 HD
ENDBRANCH  31  33
BRANCH  31  37
ATOM     37  S   UNL     1       6.256   5.949  16.132  0.00  0.00    -0.077 S 
BRANCH  37  38
ATOM     38  C   UNL     1       7.109   5.988  17.636  0.00  0.00    +0.204 A 
ATOM     39  N   UNL     1       7.248   4.962  18.455  0.00  0.00    -0.208 NA
ATOM     40  C   UNL     1       8.053   5.473  19.436  0.00  0.00    +0.141 A 
ATOM     41  N   UNL     1       8.408   6.745  19.288  0.00  0.00    -0.142 NA
ATOM     42  N   UNL     1       7.806   7.056  18.124  0.00  0.00    -0.145 N 
ATOM     43 CL   UNL     1       7.793   8.673  17.529  0.00  0.00    +0.040 Cl
ATOM     44  H   UNL     1       8.381   4.897  20.291  0.00  0.00    +0.107 HD
ENDBRANCH  37  38
ENDBRANCH  31  37
ENDBRANCH   1  31
TORSDOF 6
ENDMDL
MODEL 4
REMARK VINA RESULT:    -8.006      4.034      9.909
REMARK INTER + INTRA:         -10.954
REMARK INTER:                 -10.420
REMARK INTRA:                  -0.535
REMARK UNBOUND:                -0.375
REMARK  Name = 
REMARK  6 active torsions:
REMARK  status: ('A' for Active; 'I' for Inactive)
REMARK    1  A    between atoms: C_1  and  C_2
REMARK    2  A    between atoms: C_2  and  C_3
REMARK    3  A    between atoms: C_2  and  S_22
REMARK    4  A    between atoms: C_5  and  N_9
REMARK    5  A    between atoms: C_10  and  C_12
REMARK    6  A    between atoms: S_22  and  C_23
REMARK                            x       y       z     vdW  Elec       q    Type
REMARK                         _______ _______ _______ _____ _____    ______ ____
ROOT
ATOM      1  C   UNL     1       2.683   6.855  19.334  0.00  0.00    -0.033 A 
ATOM      2  C   UNL     1       1.908   7.742  20.104  0.00  0.00    -0.036 A 
ATOM      3  C   UNL     1       1.354   8.901  19.542  0.00  0.00    +0.034 A 
ATOM      4  C   UNL     1       1.625   9.206  18.213  0.00  0.00    -0.040 A 
ATOM      5  C   UNL     1       2.436   8.365  17.449  0.00  0.00    -0.060 A 
ATOM      6  C   UNL     1       2.957   7.195  18.003  0.00  0.00    -0.057 A 
ATOM      7  H   UNL     1       1.673   7.490  21.135  0.00  0.00    +0.064 HD
ATOM      8  H   UNL     1       1.218  10.097  17.743  0.00  0.00    +0.064 HD
ATOM      9  H   UNL     1       2.634   8.612  16.404  0.00  0.00    +0.062 HD
ATOM     10  H   UNL     1       3.551   6.544  17.368  0.00  0.00    +0.062 HD
ENDROOT
BRANCH   3  11
ATOM     11  N   UNL     1       0.515   9.670  20.365  0.00  0.00    -0.280 N 
ATOM     12  C   UNL     1       0.622  11.013  20.656  0.00  0.00    +0.267 C 
ATOM     13  O   UNL     1       1.519  11.780  20.318  0.00  0.00    -0.268 OA
ATOM     14  H   UNL     1      -0.369   9.265  20.653  0.00  0.00    +0.155 HD
BRANCH  12  15
ATOM     15  C   UNL     1      -0.583  11.531  21.390  0.00  0.00    +0.126 A 
ATOM     16  C   UNL     1      -1.557  12.249  20.703  0.00  0.00    -0.023 A 
ATOM     17  C   UNL     1      -2.723  12.615  21.387  0.00  0.00    -0.014 A 
ATOM     18  C   UNL     1      -3.765  13.319  20.755  0.00  0.00    -0.054 A 
ATOM     19  C   UNL     1      -4.927  13.648  21.457  0.00  0.00    -0.061 A 
ATOM     20  C   UNL     1      -5.065  13.284  22.795  0.00  0.00    -0.061 A 
ATOM     21  C   UNL     1      -4.036  12.602  23.440  0.00  0.00    -0.053 A 
ATOM     22  C   UNL     1      -2.864  12.254  22.745  0.00  0.00    +0.000 A 
ATOM     23  C   UNL     1      -1.812  11.552  23.340  0.00  0.00    +0.036 A 
ATOM     24  N   UNL     1      -0.684  11.168  22.699  0.00  0.00    -0.250 NA
ATOM     25  H   UNL     1      -1.420  12.481  19.654  0.00  0.00    +0.065 HD
ATOM     26  H   UNL     1      -3.678  13.617  19.712  0.00  0.00    +0.062 HD
ATOM     27  H   UNL     1      -5.725  14.191  20.956  0.00  0.00    +0.062 HD
ATOM     28  H   UNL     1      -5.971  13.540  23.339  0.00  0.00    +0.062 HD
ATOM     29  H   UNL     1      -4.154  12.340  24.491  0.00  0.00    +0.062 HD
ATOM     30  H   UNL     1      -1.862  11.252  24.382  0.00  0.00    +0.084 HD
ENDBRANCH  12  15
ENDBRANCH   3  11
BRANCH   1  31
ATOM     31  C   UNL     1       3.132   5.512  19.877  0.00  0.00    +0.035 C 
ATOM     32  H   UNL     1       3.974   5.673  20.564  0.00  0.00    +0.046 HD
BRANCH  31  33
ATOM     33  C   UNL     1       2.043   4.784  20.662  0.00  0.00    -0.049 C 
ATOM     34  H   UNL     1       1.073   5.270  20.518  0.00  0.00    +0.024 HD
ATOM     35  H   UNL     1       1.931   3.740  20.358  0.00  0.00    +0.024 HD
ATOM     36  H   UNL     1       2.253   4.799  21.738  0.00  0.00    +0.024 HD
ENDBRANCH  31  33
BRANCH  31  37
ATOM     37  S   UNL     1       3.686   4.442  18.484  0.00  0.00    -0.077 S 
BRANCH  37  38
ATOM     38  C   UNL     1       5.379   4.795  18.440  0.00  0.00    +0.204 A 
ATOM     39  N   UNL     1       6.052   5.400  19.400  0.00  0.00    -0.208 NA
ATOM     40  C   UNL     1       7.336   5.367  18.929  0.00  0.00    +0.141 A 
ATOM     41  N   UNL     1       7.501   4.797  17.740  0.00  0.00    -0.142 NA
ATOM     42  N   UNL     1       6.240   4.424  17.446  0.00  0.00    -0.145 N 
ATOM     43 CL   UNL     1       5.837   3.774  15.902  0.00  0.00    +0.040 Cl
ATOM     44  H   UNL     1       8.175   5.783  19.471  0.00  0.00    +0.107 HD
ENDBRANCH  37  38
ENDBRANCH  31  37
ENDBRANCH   1  31
TORSDOF 6
ENDMDL
MODEL 5
REMARK VINA RESULT:    -7.938      2.815      3.480
REMARK INTER + INTRA:         -10.866
REMARK INTER:                  -9.980
REMARK INTRA:                  -0.885
REMARK UNBOUND:                -0.375
REMARK  Name = 
REMARK  6 active torsions:
REMARK  status: ('A' for Active; 'I' for Inactive)
REMARK    1  A    between atoms: C_1  and  C_2
REMARK    2  A    between atoms: C_2  and  C_3
REMARK    3  A    between atoms: C_2  and  S_22
REMARK    4  A    between atoms: C_5  and  N_9
REMARK    5  A    between atoms: C_10  and  C_12
REMARK    6  A    between atoms: S_22  and  C_23
REMARK                            x       y       z     vdW  Elec       q    Type
REMARK                         _______ _______ _______ _____ _____    ______ ____
ROOT
ATOM      1  C   UNL     1      -0.200  10.173  19.360  0.00  0.00    -0.033 A 
ATOM      2  C   UNL     1       0.900   9.356  19.043  0.00  0.00    -0.036 A 
ATOM      3  C   UNL     1       1.483   8.515  20.001  0.00  0.00    +0.034 A 
ATOM      4  C   UNL     1       0.998   8.534  21.304  0.00  0.00    -0.040 A 
ATOM      5  C   UNL     1      -0.057   9.378  21.649  0.00  0.00    -0.060 A 
ATOM      6  C   UNL     1      -0.657  10.188  20.684  0.00  0.00    -0.057 A 
ATOM      7  H   UNL     1       1.261   9.319  18.018  0.00  0.00    +0.064 HD
ATOM      8  H   UNL     1       1.427   7.901  22.076  0.00  0.00    +0.064 HD
ATOM      9  H   UNL     1      -0.434   9.377  22.675  0.00  0.00    +0.062 HD
ATOM     10  H   UNL     1      -1.502  10.803  20.980  0.00  0.00    +0.062 HD
ENDROOT
BRANCH   3  11
ATOM     11  N   UNL     1       2.512   7.665  19.562  0.00  0.00    -0.280 N 
ATOM     12  C   UNL     1       2.564   6.290  19.648  0.00  0.00    +0.267 C 
ATOM     13  O   UNL     1       1.756   5.547  20.198  0.00  0.00    -0.268 OA
ATOM     14  H   UNL     1       3.228   8.058  18.961  0.00  0.00    +0.155 HD
BRANCH  12  15
ATOM     15  C   UNL     1       3.717   5.717  18.873  0.00  0.00    +0.126 A 
ATOM     16  C   UNL     1       3.773   5.881  17.492  0.00  0.00    -0.023 A 
ATOM     17  C   UNL     1       4.917   5.441  16.814  0.00  0.00    -0.014 A 
ATOM     18  C   UNL     1       5.060   5.594  15.422  0.00  0.00    -0.054 A 
ATOM     19  C   UNL     1       6.223   5.167  14.778  0.00  0.00    -0.061 A 
ATOM     20  C   UNL     1       7.255   4.581  15.508  0.00  0.00    -0.061 A 
ATOM     21  C   UNL     1       7.122   4.407  16.883  0.00  0.00    -0.053 A 
ATOM     22  C   UNL     1       5.962   4.840  17.549  0.00  0.00    +0.000 A 
ATOM     23  C   UNL     1       5.788   4.708  18.930  0.00  0.00    +0.036 A 
ATOM     24  N   UNL     1       4.704   5.141  19.614  0.00  0.00    -0.250 NA
ATOM     25  H   UNL     1       2.961   6.372  16.971  0.00  0.00    +0.065 HD
ATOM     26  H   UNL     1       4.265   6.045  14.831  0.00  0.00    +0.062 HD
ATOM     27  H   UNL     1       6.322   5.293  13.702  0.00  0.00    +0.062 HD
ATOM     28  H   UNL     1       8.161   4.252  15.004  0.00  0.00    +0.062 HD
ATOM     29  H   UNL     1       7.932   3.932  17.436  0.00  0.00    +0.062 HD
ATOM     30  H   UNL     1       6.555   4.249  19.546  0.00  0.00    +0.084 HD
ENDBRANCH  12  15
ENDBRANCH   3  11
BRANCH   1  31
ATOM     31  C   UNL     1      -0.953  10.945  18.294  0.00  0.00    +0.035 C 
ATOM     32  H   UNL     1      -0.418  10.844  17.341  0.00  0.00    +0.046 HD
BRANCH  31  33
ATOM     33  C   UNL     1      -2.375  10.433  18.069  0.00  0.00    -0.049 C 
ATOM     34  H   UNL     1      -2.618  10.425  17.003  0.00  0.00    +0.024 HD
ATOM     35  H   UNL     1      -2.520   9.417  18.443  0.00  0.00    +0.024 HD
ATOM     36  H   UNL     1      -3.111  11.080  18.562  0.00  0.00    +0.024 HD
ENDBRANCH  31  33
BRANCH  31  37
ATOM     37  S   UNL     1      -1.023  12.726  18.762  0.00  0.00    -0.077 S 
BRANCH  37  38
ATOM     38  C   UNL     1       0.650  13.067  19.042  0.00  0.00    +0.204 A 
ATOM     39  N   UNL     1       1.594  13.033  18.120  0.00  0.00    -0.208 NA
ATOM     40  C   UNL     1       2.698  13.450  18.812  0.00  0.00    +0.141 A 
ATOM     41  N   UNL     1       2.506  13.724  20.098  0.00  0.00    -0.142 NA
ATOM     42  N   UNL     1       1.186  13.486  20.226  0.00  0.00    -0.145 N 
ATOM     43 CL   UNL     1       0.417  13.520  21.767  0.00  0.00    +0.040 Cl
ATOM     44  H   UNL     1       3.677  13.546  18.361  0.00  0.00    +0.107 HD
ENDBRANCH  37  38
ENDBRANCH  31  37
ENDBRANCH   1  31
TORSDOF 6
ENDMDL
MODEL 6
REMARK VINA RESULT:    -7.879      3.961      9.190
REMARK INTER + INTRA:         -10.787
REMARK INTER:                 -10.480
REMARK INTRA:                  -0.306
REMARK UNBOUND:                -0.375
REMARK  Name = 
REMARK  6 active torsions:
REMARK  status: ('A' for Active; 'I' for Inactive)
REMARK    1  A    between atoms: C_1  and  C_2
REMARK    2  A    between atoms: C_2  and  C_3
REMARK    3  A    between atoms: C_2  and  S_22
REMARK    4  A    between atoms: C_5  and  N_9
REMARK    5  A    between atoms: C_10  and  C_12
REMARK    6  A    between atoms: S_22  and  C_23
REMARK                            x       y       z     vdW  Elec       q    Type
REMARK                         _______ _______ _______ _____ _____    ______ ____
ROOT
ATOM      1  C   UNL     1       3.037   3.382  19.245  0.00  0.00    -0.033 A 
ATOM      2  C   UNL     1       2.489   4.661  19.447  0.00  0.00    -0.036 A 
ATOM      3  C   UNL     1       2.022   5.064  20.706  0.00  0.00    +0.034 A 
ATOM      4  C   UNL     1       2.048   4.157  21.760  0.00  0.00    -0.040 A 
ATOM      5  C   UNL     1       2.538   2.865  21.564  0.00  0.00    -0.060 A 
ATOM      6  C   UNL     1       3.034   2.481  20.318  0.00  0.00    -0.057 A 
ATOM      7  H   UNL     1       2.494   5.380  18.631  0.00  0.00    +0.064 HD
ATOM      8  H   UNL     1       1.691   4.429  22.749  0.00  0.00    +0.064 HD
ATOM      9  H   UNL     1       2.561   2.166  22.402  0.00  0.00    +0.062 HD
ATOM     10  H   UNL     1       3.444   1.480  20.213  0.00  0.00    +0.062 HD
ENDROOT
BRANCH   3  11
ATOM     11  N   UNL     1       1.586   6.393  20.830  0.00  0.00    -0.280 N 
ATOM     12  C   UNL     1       1.933   7.471  20.043  0.00  0.00    +0.267 C 
ATOM     13  O   UNL     1       2.755   7.493  19.132  0.00  0.00    -0.268 OA
ATOM     14  H   UNL     1       0.801   6.580  21.444  0.00  0.00    +0.155 HD
BRANCH  12  15
ATOM     15  C   UNL     1       1.096   8.682  20.341  0.00  0.00    +0.126 A 
ATOM     16  C   UNL     1       0.437   8.786  21.563  0.00  0.00    -0.023 A 
ATOM     17  C   UNL     1      -0.236   9.978  21.858  0.00  0.00    -0.014 A 
ATOM     18  C   UNL     1      -0.903  10.169  23.083  0.00  0.00    -0.054 A 
ATOM     19  C   UNL     1      -1.546  11.378  23.358  0.00  0.00    -0.061 A 
ATOM     20  C   UNL     1      -1.536  12.409  22.420  0.00  0.00    -0.061 A 
ATOM     21  C   UNL     1      -0.894  12.229  21.197  0.00  0.00    -0.053 A 
ATOM     22  C   UNL     1      -0.234  11.022  20.907  0.00  0.00    +0.000 A 
ATOM     23  C   UNL     1       0.442  10.799  19.705  0.00  0.00    +0.036 A 
ATOM     24  N   UNL     1       1.118   9.667  19.400  0.00  0.00    -0.250 NA
ATOM     25  H   UNL     1       0.485   7.972  22.274  0.00  0.00    +0.065 HD
ATOM     26  H   UNL     1      -0.928   9.378  23.828  0.00  0.00    +0.062 HD
ATOM     27  H   UNL     1      -2.057  11.514  24.309  0.00  0.00    +0.062 HD
ATOM     28  H   UNL     1      -2.035  13.350  22.638  0.00  0.00    +0.062 HD
ATOM     29  H   UNL     1      -0.910  13.039  20.469  0.00  0.00    +0.062 HD
ATOM     30  H   UNL     1       0.473  11.563  18.934  0.00  0.00    +0.084 HD
ENDBRANCH  12  15
ENDBRANCH   3  11
BRANCH   1  31
ATOM     31  C   UNL     1       3.711   2.999  17.941  0.00  0.00    +0.035 C 
ATOM     32  H   UNL     1       4.628   2.440  18.169  0.00  0.00    +0.046 HD
BRANCH  31  33
ATOM     33  C   UNL     1       2.845   2.106  17.055  0.00  0.00    -0.049 C 
ATOM     34  H   UNL     1       1.985   2.661  16.671  0.00  0.00    +0.024 HD
ATOM     35  H   UNL     1       3.390   1.714  16.192  0.00  0.00    +0.024 HD
ATOM     36  H   UNL     1       2.452   1.251  17.619  0.00  0.00    +0.024 HD
ENDBRANCH  31  33
BRANCH  31  37
ATOM     37  S   UNL     1       4.150   4.526  17.008  0.00  0.00    -0.077 S 
BRANCH  37  38
ATOM     38  C   UNL     1       5.667   4.938  17.731  0.00  0.00    +0.204 A 
ATOM     39  N   UNL     1       5.823   5.385  18.962  0.00  0.00    -0.208 NA
ATOM     40  C   UNL     1       7.184   5.479  19.074  0.00  0.00    +0.141 A 
ATOM     41  N   UNL     1       7.877   5.135  17.993  0.00  0.00    -0.142 NA
ATOM     42  N   UNL     1       6.892   4.779  17.147  0.00  0.00    -0.145 N 
ATOM     43 CL   UNL     1       7.223   4.400  15.499  0.00  0.00    +0.040 Cl
ATOM     44  H   UNL     1       7.681   5.819  19.972  0.00  0.00    +0.107 HD
ENDBRANCH  37  38
ENDBRANCH  31  37
ENDBRANCH   1  31
TORSDOF 6
ENDMDL
MODEL 7
REMARK VINA RESULT:    -7.866      1.622      2.428
REMARK INTER + INTRA:         -10.770
REMARK INTER:                 -10.290
REMARK INTRA:                  -0.480
REMARK UNBOUND:                -0.375
REMARK  Name = 
REMARK  6 active torsions:
REMARK  status: ('A' for Active; 'I' for Inactive)
REMARK    1  A    between atoms: C_1  and  C_2
REMARK    2  A    between atoms: C_2  and  C_3
REMARK    3  A    between atoms: C_2  and  S_22
REMARK    4  A    between atoms: C_5  and  N_9
REMARK    5  A    between atoms: C_10  and  C_12
REMARK    6  A    between atoms: S_22  and  C_23
REMARK                            x       y       z     vdW  Elec       q    Type
REMARK                         _______ _______ _______ _____ _____    ______ ____
ROOT
ATOM      1  C   UNL     1      -0.637  11.126  20.881  0.00  0.00    -0.033 A 
ATOM      2  C   UNL     1       0.049  10.062  20.267  0.00  0.00    -0.036 A 
ATOM      3  C   UNL     1       0.559   8.994  21.018  0.00  0.00    +0.034 A 
ATOM      4  C   UNL     1       0.433   9.018  22.403  0.00  0.00    -0.040 A 
ATOM      5  C   UNL     1      -0.197  10.091  23.033  0.00  0.00    -0.060 A 
ATOM      6  C   UNL     1      -0.733  11.135  22.279  0.00  0.00    -0.057 A 
ATOM      7  H   UNL     1       0.124  10.029  19.183  0.00  0.00    +0.064 HD
ATOM      8  H   UNL     1       0.820   8.211  23.019  0.00  0.00    +0.064 HD
ATOM      9  H   UNL     1      -0.297  10.094  24.121  0.00  0.00    +0.062 HD
ATOM     10  H   UNL     1      -1.252  11.935  22.801  0.00  0.00    +0.062 HD
ENDROOT
BRANCH   3  11
ATOM     11  N   UNL     1       1.141   7.933  20.305  0.00  0.00    -0.280 N 
ATOM     12  C   UNL     1       1.971   8.010  19.207  0.00  0.00    +0.267 C 
ATOM     13  O   UNL     1       2.298   9.020  18.590  0.00  0.00    -0.268 OA
ATOM     14  H   UNL     1       1.105   7.007  20.717  0.00  0.00    +0.155 HD
BRANCH  12  15
ATOM     15  C   UNL     1       2.571   6.679  18.856  0.00  0.00    +0.126 A 
ATOM     16  C   UNL     1       2.038   5.513  19.400  0.00  0.00    -0.023 A 
ATOM     17  C   UNL     1       2.541   4.282  18.961  0.00  0.00    -0.014 A 
ATOM     18  C   UNL     1       2.035   3.060  19.444  0.00  0.00    -0.054 A 
ATOM     19  C   UNL     1       2.541   1.847  18.970  0.00  0.00    -0.061 A 
ATOM     20  C   UNL     1       3.555   1.835  18.013  0.00  0.00    -0.061 A 
ATOM     21  C   UNL     1       4.077   3.036  17.538  0.00  0.00    -0.053 A 
ATOM     22  C   UNL     1       3.573   4.265  17.997  0.00  0.00    +0.000 A 
ATOM     23  C   UNL     1       4.047   5.497  17.537  0.00  0.00    +0.036 A 
ATOM     24  N   UNL     1       3.567   6.700  17.927  0.00  0.00    -0.250 NA
ATOM     25  H   UNL     1       1.228   5.571  20.115  0.00  0.00    +0.065 HD
ATOM     26  H   UNL     1       1.247   3.045  20.193  0.00  0.00    +0.062 HD
ATOM     27  H   UNL     1       2.141   0.910  19.349  0.00  0.00    +0.062 HD
ATOM     28  H   UNL     1       3.945   0.890  17.643  0.00  0.00    +0.062 HD
ATOM     29  H   UNL     1       4.880   3.007  16.803  0.00  0.00    +0.062 HD
ATOM     30  H   UNL     1       4.843   5.547  16.800  0.00  0.00    +0.084 HD
ENDBRANCH  12  15
ENDBRANCH   3  11
BRANCH   1  31
ATOM     31  C   UNL     1      -1.350  12.189  20.069  0.00  0.00    +0.035 C 
ATOM     32  H   UNL     1      -2.398  12.237  20.393  0.00  0.00    +0.046 HD
BRANCH  31  33
ATOM     33  C   UNL     1      -0.757  13.585  20.250  0.00  0.00    -0.049 C 
ATOM     34  H   UNL     1      -0.291  13.930  19.323  0.00  0.00    +0.024 HD
ATOM     35  H   UNL     1      -1.507  14.328  20.532  0.00  0.00    +0.024 HD
ATOM     36  H   UNL     1       0.022  13.586  21.022  0.00  0.00    +0.024 HD
ENDBRANCH  31  33
BRANCH  31  37
ATOM     37  S   UNL     1      -1.290  11.739  18.283  0.00  0.00    -0.077 S 
BRANCH  37  38
ATOM     38  C   UNL     1      -2.973  11.567  17.922  0.00  0.00    +0.204 A 
ATOM     39  N   UNL     1      -3.958  11.839  18.757  0.00  0.00    -0.208 NA
ATOM     40  C   UNL     1      -5.068  11.623  17.987  0.00  0.00    +0.141 A 
ATOM     41  N   UNL     1      -4.838  11.224  16.740  0.00  0.00    -0.142 NA
ATOM     42  N   UNL     1      -3.491  11.206  16.711  0.00  0.00    -0.145 N 
ATOM     43 CL   UNL     1      -2.635  10.582  15.352  0.00  0.00    +0.040 Cl
ATOM     44  H   UNL     1      -6.077  11.754  18.354  0.00  0.00    +0.107 HD
ENDBRANCH  37  38
ENDBRANCH  31  37
ENDBRANCH   1  31
TORSDOF 6
ENDMDL
MODEL 8
REMARK VINA RESULT:    -7.823      4.144      9.256
REMARK INTER + INTRA:         -10.713
REMARK INTER:                 -10.495
REMARK INTRA:                  -0.218
REMARK UNBOUND:                -0.375
REMARK  Name = 
REMARK  6 active torsions:
REMARK  status: ('A' for Active; 'I' for Inactive)
REMARK    1  A    between atoms: C_1  and  C_2
REMARK    2  A    between atoms: C_2  and  C_3
REMARK    3  A    between atoms: C_2  and  S_22
REMARK    4  A    between atoms: C_5  and  N_9
REMARK    5  A    between atoms: C_10  and  C_12
REMARK    6  A    between atoms: S_22  and  C_23
REMARK                            x       y       z     vdW  Elec       q    Type
REMARK                         _______ _______ _______ _____ _____    ______ ____
ROOT
ATOM      1  C   UNL     1       3.335   3.796  19.171  0.00  0.00    -0.033 A 
ATOM      2  C   UNL     1       2.785   5.026  19.577  0.00  0.00    -0.036 A 
ATOM      3  C   UNL     1       2.024   5.132  20.749  0.00  0.00    +0.034 A 
ATOM      4  C   UNL     1       1.760   3.987  21.492  0.00  0.00    -0.040 A 
ATOM      5  C   UNL     1       2.251   2.749  21.075  0.00  0.00    -0.060 A 
ATOM      6  C   UNL     1       3.037   2.654  19.926  0.00  0.00    -0.057 A 
ATOM      7  H   UNL     1       3.015   5.927  19.013  0.00  0.00    +0.064 HD
ATOM      8  H   UNL     1       1.170   4.028  22.403  0.00  0.00    +0.064 HD
ATOM      9  H   UNL     1       2.043   1.859  21.671  0.00  0.00    +0.062 HD
ATOM     10  H   UNL     1       3.436   1.681  19.653  0.00  0.00    +0.062 HD
ENDROOT
BRANCH   3  11
ATOM     11  N   UNL     1       1.604   6.419  21.122  0.00  0.00    -0.280 N 
ATOM     12  C   UNL     1       1.687   7.581  20.384  0.00  0.00    +0.267 C 
ATOM     13  O   UNL     1       2.221   7.730  19.289  0.00  0.00    -0.268 OA
ATOM     14  H   UNL     1       1.018   6.508  21.945  0.00  0.00    +0.155 HD
BRANCH  12  15
ATOM     15  C   UNL     1       0.934   8.713  21.022  0.00  0.00    +0.126 A 
ATOM     16  C   UNL     1       0.292   9.655  20.223  0.00  0.00    -0.023 A 
ATOM     17  C   UNL     1      -0.500  10.629  20.846  0.00  0.00    -0.014 A 
ATOM     18  C   UNL     1      -1.202  11.599  20.105  0.00  0.00    -0.054 A 
ATOM     19  C   UNL     1      -2.003  12.542  20.753  0.00  0.00    -0.061 A 
ATOM     20  C   UNL     1      -2.113  12.534  22.142  0.00  0.00    -0.061 A 
ATOM     21  C   UNL     1      -1.412  11.591  22.890  0.00  0.00    -0.053 A 
ATOM     22  C   UNL     1      -0.609  10.629  22.254  0.00  0.00    +0.000 A 
ATOM     23  C   UNL     1       0.098   9.648  22.956  0.00  0.00    +0.036 A 
ATOM     24  N   UNL     1       0.853   8.684  22.382  0.00  0.00    -0.250 NA
ATOM     25  H   UNL     1       0.381   9.602  19.146  0.00  0.00    +0.065 HD
ATOM     26  H   UNL     1      -1.127  11.627  19.020  0.00  0.00    +0.062 HD
ATOM     27  H   UNL     1      -2.541  13.285  20.169  0.00  0.00    +0.062 HD
ATOM     28  H   UNL     1      -2.740  13.267  22.644  0.00  0.00    +0.062 HD
ATOM     29  H   UNL     1      -1.497  11.609  23.976  0.00  0.00    +0.062 HD
ATOM     30  H   UNL     1       0.057   9.601  24.040  0.00  0.00    +0.084 HD
ENDBRANCH  12  15
ENDBRANCH   3  11
BRANCH   1  31
ATOM     31  C   UNL     1       4.307   3.702  18.012  0.00  0.00    +0.035 C 
ATOM     32  H   UNL     1       5.297   3.430  18.403  0.00  0.00    +0.046 HD
BRANCH  31  33
ATOM     33  C   UNL     1       3.920   2.639  16.985  0.00  0.00    -0.049 C 
ATOM     34  H   UNL     1       3.169   1.960  17.398  0.00  0.00    +0.024 HD
ATOM     35  H   UNL     1       3.502   3.069  16.071  0.00  0.00    +0.024 HD
ATOM     36  H   UNL     1       4.786   2.029  16.702  0.00  0.00    +0.024 HD
ENDBRANCH  31  33
BRANCH  31  37
ATOM     37  S   UNL     1       4.419   5.338  17.170  0.00  0.00    -0.077 S 
BRANCH  37  38
ATOM     38  C   UNL     1       5.601   5.009  15.951  0.00  0.00    +0.204 A 
ATOM     39  N   UNL     1       5.356   4.948  14.655  0.00  0.00    -0.208 NA
ATOM     40  C   UNL     1       6.603   4.749  14.127  0.00  0.00    +0.141 A 
ATOM     41  N   UNL     1       7.597   4.668  15.006  0.00  0.00    -0.142 NA
ATOM     42  N   UNL     1       6.940   4.849  16.168  0.00  0.00    -0.145 N 
ATOM     43 CL   UNL     1       7.739   4.666  17.684  0.00  0.00    +0.040 Cl
ATOM     44  H   UNL     1       6.786   4.650  13.066  0.00  0.00    +0.107 HD
ENDBRANCH  37  38
ENDBRANCH  31  37
ENDBRANCH   1  31
TORSDOF 6
ENDMDL
MODEL 9
REMARK VINA RESULT:    -7.792      1.720      1.936
REMARK INTER + INTRA:         -10.672
REMARK INTER:                 -10.150
REMARK INTRA:                  -0.522
REMARK UNBOUND:                -0.375
REMARK  Name = 
REMARK  6 active torsions:
REMARK  status: ('A' for Active; 'I' for Inactive)
REMARK    1  A    between atoms: C_1  and  C_2
REMARK    2  A    between atoms: C_2  and  C_3
REMARK    3  A    between atoms: C_2  and  S_22
REMARK    4  A    between atoms: C_5  and  N_9
REMARK    5  A    between atoms: C_10  and  C_12
REMARK    6  A    between atoms: S_22  and  C_23
REMARK                            x       y       z     vdW  Elec       q    Type
REMARK                         _______ _______ _______ _____ _____    ______ ____
ROOT
ATOM      1  C   UNL     1       0.067  11.537  21.421  0.00  0.00    -0.033 A 
ATOM      2  C   UNL     1       0.829  10.528  20.807  0.00  0.00    -0.036 A 
ATOM      3  C   UNL     1       0.799   9.206  21.273  0.00  0.00    +0.034 A 
ATOM      4  C   UNL     1       0.043   8.903  22.400  0.00  0.00    -0.040 A 
ATOM      5  C   UNL     1      -0.677   9.903  23.054  0.00  0.00    -0.060 A 
ATOM      6  C   UNL     1      -0.670  11.210  22.566  0.00  0.00    -0.057 A 
ATOM      7  H   UNL     1       1.398  10.758  19.909  0.00  0.00    +0.064 HD
ATOM      8  H   UNL     1      -0.002   7.891  22.795  0.00  0.00    +0.064 HD
ATOM      9  H   UNL     1      -1.273   9.649  23.934  0.00  0.00    +0.062 HD
ATOM     10  H   UNL     1      -1.274  11.954  23.077  0.00  0.00    +0.062 HD
ENDROOT
BRANCH   3  11
ATOM     11  N   UNL     1       1.516   8.252  20.533  0.00  0.00    -0.280 N 
ATOM     12  C   UNL     1       1.744   8.236  19.173  0.00  0.00    +0.267 C 
ATOM     13  O   UNL     1       1.294   9.011  18.334  0.00  0.00    -0.268 OA
ATOM     14  H   UNL     1       2.084   7.584  21.043  0.00  0.00    +0.155 HD
BRANCH  12  15
ATOM     15  C   UNL     1       2.738   7.182  18.778  0.00  0.00    +0.126 A 
ATOM     16  C   UNL     1       3.446   7.309  17.586  0.00  0.00    -0.023 A 
ATOM     17  C   UNL     1       4.450   6.374  17.303  0.00  0.00    -0.014 A 
ATOM     18  C   UNL     1       5.227   6.451  16.132  0.00  0.00    -0.054 A 
ATOM     19  C   UNL     1       6.237   5.517  15.888  0.00  0.00    -0.061 A 
ATOM     20  C   UNL     1       6.484   4.496  16.804  0.00  0.00    -0.061 A 
ATOM     21  C   UNL     1       5.713   4.397  17.960  0.00  0.00    -0.053 A 
ATOM     22  C   UNL     1       4.699   5.334  18.224  0.00  0.00    +0.000 A 
ATOM     23  C   UNL     1       3.912   5.291  19.379  0.00  0.00    +0.036 A 
ATOM     24  N   UNL     1       2.950   6.191  19.688  0.00  0.00    -0.250 NA
ATOM     25  H   UNL     1       3.241   8.138  16.921  0.00  0.00    +0.065 HD
ATOM     26  H   UNL     1       5.049   7.237  15.401  0.00  0.00    +0.062 HD
ATOM     27  H   UNL     1       6.831   5.589  14.980  0.00  0.00    +0.062 HD
ATOM     28  H   UNL     1       7.273   3.772  16.614  0.00  0.00    +0.062 HD
ATOM     29  H   UNL     1       5.909   3.583  18.656  0.00  0.00    +0.062 HD
ATOM     30  H   UNL     1       4.054   4.511  20.121  0.00  0.00    +0.084 HD
ENDBRANCH  12  15
ENDBRANCH   3  11
BRANCH   1  31
ATOM     31  C   UNL     1      -0.052  12.924  20.819  0.00  0.00    +0.035 C 
ATOM     32  H   UNL     1      -0.872  13.457  21.318  0.00  0.00    +0.046 HD
BRANCH  31  33
ATOM     33  C   UNL     1       1.209  13.768  20.996  0.00  0.00    -0.049 C 
ATOM     34  H   UNL     1       1.306  14.492  20.182  0.00  0.00    +0.024 HD
ATOM     35  H   UNL     1       1.210  14.331  21.933  0.00  0.00    +0.024 HD
ATOM     36  H   UNL     1       2.109  13.143  20.979  0.00  0.00    +0.024 HD
ENDBRANCH  31  33
BRANCH  31  37
ATOM     37  S   UNL     1      -0.431  12.781  19.021  0.00  0.00    -0.077 S 
BRANCH  37  38
ATOM     38  C   UNL     1      -2.098  12.319  19.064  0.00  0.00    +0.204 A 
ATOM     39  N   UNL     1      -2.998  12.807  19.896  0.00  0.00    -0.208 NA
ATOM     40  C   UNL     1      -4.149  12.195  19.480  0.00  0.00    +0.141 A 
ATOM     41  N   UNL     1      -4.019  11.352  18.460  0.00  0.00    -0.142 NA
ATOM     42  N   UNL     1      -2.702  11.453  18.197  0.00  0.00    -0.145 N 
ATOM     43 CL   UNL     1      -1.939  10.421  17.048  0.00  0.00    +0.040 Cl
ATOM     44  H   UNL     1      -5.110  12.365  19.946  0.00  0.00    +0.107 HD
ENDBRANCH  37  38
ENDBRANCH  31  37
ENDBRANCH   1  31
TORSDOF 6
ENDMDL
MODEL 10
REMARK VINA RESULT:    -7.787      4.271      9.571
REMARK INTER + INTRA:         -10.666
REMARK INTER:                 -10.286
REMARK INTRA:                  -0.380
REMARK UNBOUND:                -0.375
REMARK  Name = 
REMARK  6 active torsions:
REMARK  status: ('A' for Active; 'I' for Inactive)
REMARK    1  A    between atoms: C_1  and  C_2
REMARK    2  A    between atoms: C_2  and  C_3
REMARK    3  A    between atoms: C_2  and  S_22
REMARK    4  A    between atoms: C_5  and  N_9
REMARK    5  A    between atoms: C_10  and  C_12
REMARK    6  A    between atoms: S_22  and  C_23
REMARK                            x       y       z     vdW  Elec       q    Type
REMARK                         _______ _______ _______ _____ _____    ______ ____
ROOT
ATOM      1  C   UNL     1       4.933   5.670  16.875  0.00  0.00    -0.033 A 
ATOM      2  C   UNL     1       4.117   6.660  17.453  0.00  0.00    -0.036 A 
ATOM      3  C   UNL     1       2.954   6.324  18.160  0.00  0.00    +0.034 A 
ATOM      4  C   UNL     1       2.571   4.990  18.240  0.00  0.00    -0.040 A 
ATOM      5  C   UNL     1       3.339   4.000  17.627  0.00  0.00    -0.060 A 
ATOM      6  C   UNL     1       4.514   4.335  16.954  0.00  0.00    -0.057 A 
ATOM      7  H   UNL     1       4.430   7.700  17.415  0.00  0.00    +0.064 HD
ATOM      8  H   UNL     1       1.674   4.691  18.775  0.00  0.00    +0.064 HD
ATOM      9  H   UNL     1       3.032   2.955  17.705  0.00  0.00    +0.062 HD
ATOM     10  H   UNL     1       5.108   3.534  16.523  0.00  0.00    +0.062 HD
ENDROOT
BRANCH   3  11
ATOM     11  N   UNL     1       2.262   7.375  18.784  0.00  0.00    -0.280 N 
ATOM     12  C   UNL     1       1.997   8.629  18.276  0.00  0.00    +0.267 C 
ATOM     13  O   UNL     1       2.388   9.099  17.211  0.00  0.00    -0.268 OA
ATOM     14  H   UNL     1       1.740   7.165  19.628  0.00  0.00    +0.155 HD
BRANCH  12  15
ATOM     15  C   UNL     1       1.043   9.401  19.142  0.00  0.00    +0.126 A 
ATOM     16  C   UNL     1       0.847   9.022  20.467  0.00  0.00    -0.023 A 
ATOM     17  C   UNL     1       0.044   9.832  21.281  0.00  0.00    -0.014 A 
ATOM     18  C   UNL     1      -0.179   9.529  22.637  0.00  0.00    -0.054 A 
ATOM     19  C   UNL     1      -0.966  10.368  23.430  0.00  0.00    -0.061 A 
ATOM     20  C   UNL     1      -1.540  11.515  22.883  0.00  0.00    -0.061 A 
ATOM     21  C   UNL     1      -1.342  11.818  21.539  0.00  0.00    -0.053 A 
ATOM     22  C   UNL     1      -0.545  10.990  20.729  0.00  0.00    +0.000 A 
ATOM     23  C   UNL     1      -0.298  11.261  19.381  0.00  0.00    +0.036 A 
ATOM     24  N   UNL     1       0.489  10.510  18.576  0.00  0.00    -0.250 NA
ATOM     25  H   UNL     1       1.341   8.141  20.856  0.00  0.00    +0.065 HD
ATOM     26  H   UNL     1       0.255   8.638  23.084  0.00  0.00    +0.062 HD
ATOM     27  H   UNL     1      -1.129  10.125  24.477  0.00  0.00    +0.062 HD
ATOM     28  H   UNL     1      -2.150  12.168  23.503  0.00  0.00    +0.062 HD
ATOM     29  H   UNL     1      -1.812  12.710  21.124  0.00  0.00    +0.062 HD
ATOM     30  H   UNL     1      -0.729  12.135  18.900  0.00  0.00    +0.084 HD
ENDBRANCH  12  15
ENDBRANCH   3  11
BRANCH   1  31
ATOM     31  C   UNL     1       6.282   6.002  16.270  0.00  0.00    +0.035 C 
ATOM     32  H   UNL     1       6.123   6.537  15.324  0.00  0.00    +0.046 HD
BRANCH  31  33
ATOM     33  C   UNL     1       7.136   6.904  17.159  0.00  0.00    -0.049 C 
ATOM     34  H   UNL     1       8.165   6.947  16.790  0.00  0.00    +0.024 HD
ATOM     35  H   UNL     1       6.763   7.931  17.200  0.00  0.00    +0.024 HD
ATOM     36  H   UNL     1       7.179   6.522  18.186  0.00  0.00    +0.024 HD
ENDBRANCH  31  33
BRANCH  31  37
ATOM     37  S   UNL     1       7.205   4.443  15.934  0.00  0.00    -0.077 S 
BRANCH  37  38
ATOM     38  C   UNL     1       6.806   4.167  14.273  0.00  0.00    +0.204 A 
ATOM     39  N   UNL     1       5.848   3.366  13.848  0.00  0.00    -0.208 NA
ATOM     40  C   UNL     1       5.883   3.555  12.493  0.00  0.00    +0.141 A 
ATOM     41  N   UNL     1       6.804   4.405  12.052  0.00  0.00    -0.142 NA
ATOM     42  N   UNL     1       7.379   4.798  13.206  0.00  0.00    -0.145 N 
ATOM     43 CL   UNL     1       8.784   5.794  13.211  0.00  0.00    +0.040 Cl
ATOM     44  H   UNL     1       5.218   3.047  11.808  0.00  0.00    +0.107 HD
ENDBRANCH  37  38
ENDBRANCH  31  37
ENDBRANCH   1  31
TORSDOF 6
ENDMDL
MODEL 11
REMARK VINA RESULT:    -7.742      4.157      9.144
REMARK INTER + INTRA:         -10.605
REMARK INTER:                 -10.324
REMARK INTRA:                  -0.282
REMARK UNBOUND:                -0.375
REMARK  Name = 
REMARK  6 active torsions:
REMARK  status: ('A' for Active; 'I' for Inactive)
REMARK    1  A    between atoms: C_1  and  C_2
REMARK    2  A    between atoms: C_2  and  C_3
REMARK    3  A    between atoms: C_2  and  S_22
REMARK    4  A    between atoms: C_5  and  N_9
REMARK    5  A    between atoms: C_10  and  C_12
REMARK    6  A    between atoms: S_22  and  C_23
REMARK                            x       y       z     vdW  Elec       q    Type
REMARK                         _______ _______ _______ _____ _____    ______ ____
ROOT
ATOM      1  C   UNL     1       2.968   3.675  19.044  0.00  0.00    -0.033 A 
ATOM      2  C   UNL     1       2.450   4.912  19.467  0.00  0.00    -0.036 A 
ATOM      3  C   UNL     1       1.982   5.098  20.775  0.00  0.00    +0.034 A 
ATOM      4  C   UNL     1       1.978   4.019  21.652  0.00  0.00    -0.040 A 
ATOM      5  C   UNL     1       2.438   2.770  21.233  0.00  0.00    -0.060 A 
ATOM      6  C   UNL     1       2.935   2.600  19.941  0.00  0.00    -0.057 A 
ATOM      7  H   UNL     1       2.478   5.764  18.791  0.00  0.00    +0.064 HD
ATOM      8  H   UNL     1       1.619   4.121  22.672  0.00  0.00    +0.064 HD
ATOM      9  H   UNL     1       2.437   1.933  21.935  0.00  0.00    +0.062 HD
ATOM     10  H   UNL     1       3.322   1.624  19.662  0.00  0.00    +0.062 HD
ENDROOT
BRANCH   3  11
ATOM     11  N   UNL     1       1.577   6.395  21.130  0.00  0.00    -0.280 N 
ATOM     12  C   UNL     1       1.733   7.556  20.402  0.00  0.00    +0.267 C 
ATOM     13  O   UNL     1       2.330   7.693  19.339  0.00  0.00    -0.268 OA
ATOM     14  H   UNL     1       0.948   6.497  21.920  0.00  0.00    +0.155 HD
BRANCH  12  15
ATOM     15  C   UNL     1       0.976   8.706  21.003  0.00  0.00    +0.126 A 
ATOM     16  C   UNL     1       0.365   9.642  20.173  0.00  0.00    -0.023 A 
ATOM     17  C   UNL     1      -0.432  10.634  20.759  0.00  0.00    -0.014 A 
ATOM     18  C   UNL     1      -1.103  11.599  19.985  0.00  0.00    -0.054 A 
ATOM     19  C   UNL     1      -1.910  12.562  20.597  0.00  0.00    -0.061 A 
ATOM     20  C   UNL     1      -2.056  12.577  21.983  0.00  0.00    -0.061 A 
ATOM     21  C   UNL     1      -1.384  11.639  22.763  0.00  0.00    -0.053 A 
ATOM     22  C   UNL     1      -0.576  10.658  22.163  0.00  0.00    +0.000 A 
ATOM     23  C   UNL     1       0.101   9.682  22.899  0.00  0.00    +0.036 A 
ATOM     24  N   UNL     1       0.860   8.700  22.360  0.00  0.00    -0.250 NA
ATOM     25  H   UNL     1       0.481   9.570  19.099  0.00  0.00    +0.065 HD
ATOM     26  H   UNL     1      -1.001  11.609  18.902  0.00  0.00    +0.062 HD
ATOM     27  H   UNL     1      -2.425  13.301  19.988  0.00  0.00    +0.062 HD
ATOM     28  H   UNL     1      -2.686  13.326  22.457  0.00  0.00    +0.062 HD
ATOM     29  H   UNL     1      -1.497  11.676  23.846  0.00  0.00    +0.062 HD
ATOM     30  H   UNL     1       0.032   9.653  23.982  0.00  0.00    +0.084 HD
ENDBRANCH  12  15
ENDBRANCH   3  11
BRANCH   1  31
ATOM     31  C   UNL     1       3.644   3.512  17.696  0.00  0.00    +0.035 C 
ATOM     32  H   UNL     1       4.510   2.847  17.813  0.00  0.00    +0.046 HD
BRANCH  31  33
ATOM     33  C   UNL     1       2.735   2.888  16.638  0.00  0.00    -0.049 C 
ATOM     34  H   UNL     1       3.312   2.248  15.964  0.00  0.00    +0.024 HD
ATOM     35  H   UNL     1       1.944   2.273  17.073  0.00  0.00    +0.024 HD
ATOM     36  H   UNL     1       2.260   3.660  16.021  0.00  0.00    +0.024 HD
ENDBRANCH  31  33
BRANCH  31  37
ATOM     37  S   UNL     1       4.221   5.157  17.097  0.00  0.00    -0.077 S 
BRANCH  37  38
ATOM     38  C   UNL     1       5.779   5.259  17.844  0.00  0.00    +0.204 A 
ATOM     39  N   UNL     1       6.002   5.679  19.075  0.00  0.00    -0.208 NA
ATOM     40  C   UNL     1       7.351   5.495  19.210  0.00  0.00    +0.141 A 
ATOM     41  N   UNL     1       7.978   5.006  18.145  0.00  0.00    -0.142 NA
ATOM     42  N   UNL     1       6.955   4.848  17.283  0.00  0.00    -0.145 N 
ATOM     43 CL   UNL     1       7.228   4.392  15.645  0.00  0.00    +0.040 Cl
ATOM     44  H   UNL     1       7.893   5.737  20.115  0.00  0.00    +0.107 HD
ENDBRANCH  37  38
ENDBRANCH  31  37
ENDBRANCH   1  31
TORSDOF 6
ENDMDL
MODEL 12
REMARK VINA RESULT:    -7.702      3.208      3.983
REMARK INTER + INTRA:         -10.553
REMARK INTER:                  -9.612
REMARK INTRA:                  -0.941
REMARK UNBOUND:                -0.375
REMARK  Name = 
REMARK  6 active torsions:
REMARK  status: ('A' for Active; 'I' for Inactive)
REMARK    1  A    between atoms: C_1  and  C_2
REMARK    2  A    between atoms: C_2  and  C_3
REMARK    3  A    between atoms: C_2  and  S_22
REMARK    4  A    between atoms: C_5  and  N_9
REMARK    5  A    between atoms: C_10  and  C_12
REMARK    6  A    between atoms: S_22  and  C_23
REMARK                            x       y       z     vdW  Elec       q    Type
REMARK                         _______ _______ _______ _____ _____    ______ ____
ROOT
ATOM      1  C   UNL     1       0.254  12.378  18.817  0.00  0.00    -0.033 A 
ATOM      2  C   UNL     1       1.054  11.234  18.644  0.00  0.00    -0.036 A 
ATOM      3  C   UNL     1       0.512  10.031  18.170  0.00  0.00    +0.034 A 
ATOM      4  C   UNL     1      -0.854   9.954  17.923  0.00  0.00    -0.040 A 
ATOM      5  C   UNL     1      -1.671  11.063  18.141  0.00  0.00    -0.060 A 
ATOM      6  C   UNL     1      -1.122  12.268  18.579  0.00  0.00    -0.057 A 
ATOM      7  H   UNL     1       2.127  11.300  18.811  0.00  0.00    +0.064 HD
ATOM      8  H   UNL     1      -1.312   9.038  17.559  0.00  0.00    +0.064 HD
ATOM      9  H   UNL     1      -2.741  10.992  17.934  0.00  0.00    +0.062 HD
ATOM     10  H   UNL     1      -1.782  13.122  18.700  0.00  0.00    +0.062 HD
ENDROOT
BRANCH   3  11
ATOM     11  N   UNL     1       1.409   8.975  17.936  0.00  0.00    -0.280 N 
ATOM     12  C   UNL     1       1.945   8.104  18.861  0.00  0.00    +0.267 C 
ATOM     13  O   UNL     1       1.806   8.134  20.080  0.00  0.00    -0.268 OA
ATOM     14  H   UNL     1       1.566   8.689  16.976  0.00  0.00    +0.155 HD
BRANCH  12  15
ATOM     15  C   UNL     1       2.687   6.972  18.209  0.00  0.00    +0.126 A 
ATOM     16  C   UNL     1       3.757   7.243  17.360  0.00  0.00    -0.023 A 
ATOM     17  C   UNL     1       4.503   6.167  16.863  0.00  0.00    -0.014 A 
ATOM     18  C   UNL     1       5.614   6.360  16.021  0.00  0.00    -0.054 A 
ATOM     19  C   UNL     1       6.353   5.268  15.560  0.00  0.00    -0.061 A 
ATOM     20  C   UNL     1       5.995   3.973  15.928  0.00  0.00    -0.061 A 
ATOM     21  C   UNL     1       4.888   3.764  16.747  0.00  0.00    -0.053 A 
ATOM     22  C   UNL     1       4.139   4.852  17.227  0.00  0.00    +0.000 A 
ATOM     23  C   UNL     1       3.033   4.698  18.068  0.00  0.00    +0.036 A 
ATOM     24  N   UNL     1       2.307   5.718  18.580  0.00  0.00    -0.250 NA
ATOM     25  H   UNL     1       4.018   8.268  17.129  0.00  0.00    +0.065 HD
ATOM     26  H   UNL     1       5.910   7.362  15.717  0.00  0.00    +0.062 HD
ATOM     27  H   UNL     1       7.211   5.432  14.912  0.00  0.00    +0.062 HD
ATOM     28  H   UNL     1       6.573   3.124  15.571  0.00  0.00    +0.062 HD
ATOM     29  H   UNL     1       4.612   2.743  17.011  0.00  0.00    +0.062 HD
ATOM     30  H   UNL     1       2.703   3.711  18.378  0.00  0.00    +0.084 HD
ENDBRANCH  12  15
ENDBRANCH   3  11
BRANCH   1  31
ATOM     31  C   UNL     1       0.857  13.728  19.152  0.00  0.00    +0.035 C 
ATOM     32  H   UNL     1       1.576  13.998  18.367  0.00  0.00    +0.046 HD
BRANCH  31  33
ATOM     33  C   UNL     1      -0.178  14.850  19.219  0.00  0.00    -0.049 C 
ATOM     34  H   UNL     1      -0.141  15.463  18.315  0.00  0.00    +0.024 HD
ATOM     35  H   UNL     1      -1.200  14.475  19.316  0.00  0.00    +0.024 HD
ATOM     36  H   UNL     1       0.017  15.517  20.068  0.00  0.00    +0.024 HD
ENDBRANCH  31  33
BRANCH  31  37
ATOM     37  S   UNL     1       1.737  13.624  20.767  0.00  0.00    -0.077 S 
BRANCH  37  38
ATOM     38  C   UNL     1       0.425  13.818  21.878  0.00  0.00    +0.204 A 
ATOM     39  N   UNL     1       0.055  14.963  22.421  0.00  0.00    -0.208 NA
ATOM     40  C   UNL     1      -1.052  14.605  23.141  0.00  0.00    +0.141 A 
ATOM     41  N   UNL     1      -1.383  13.319  23.093  0.00  0.00    -0.142 NA
ATOM     42  N   UNL     1      -0.435  12.831  22.270  0.00  0.00    -0.145 N 
ATOM     43 CL   UNL     1      -0.280  11.139  21.988  0.00  0.00    +0.040 Cl
ATOM     44  H   UNL     1      -1.629  15.308  23.727  0.00  0.00    +0.107 HD
ENDBRANCH  37  38
ENDBRANCH  31  37
ENDBRANCH   1  31
TORSDOF 6
ENDMDL
MODEL 13
REMARK VINA RESULT:    -7.636      4.117     10.009
REMARK INTER + INTRA:         -10.466
REMARK INTER:                 -10.066
REMARK INTRA:                  -0.400
REMARK UNBOUND:                -0.375
REMARK  Name = 
REMARK  6 active torsions:
REMARK  status: ('A' for Active; 'I' for Inactive)
REMARK    1  A    between atoms: C_1  and  C_2
REMARK    2  A    between atoms: C_2  and  C_3
REMARK    3  A    between atoms: C_2  and  S_22
REMARK    4  A    between atoms: C_5  and  N_9
REMARK    5  A    between atoms: C_10  and  C_12
REMARK    6  A    between atoms: S_22  and  C_23
REMARK                            x       y       z     vdW  Elec       q    Type
REMARK                         _______ _______ _______ _____ _____    ______ ____
ROOT
ATOM      1  C   UNL     1       2.365   7.173  19.621  0.00  0.00    -0.033 A 
ATOM      2  C   UNL     1       1.502   8.109  20.219  0.00  0.00    -0.036 A 
ATOM      3  C   UNL     1       1.013   9.210  19.503  0.00  0.00    +0.034 A 
ATOM      4  C   UNL     1       1.436   9.410  18.194  0.00  0.00    -0.040 A 
ATOM      5  C   UNL     1       2.334   8.521  17.602  0.00  0.00    -0.060 A 
ATOM      6  C   UNL     1       2.791   7.407  18.307  0.00  0.00    -0.057 A 
ATOM      7  H   UNL     1       1.149   7.939  21.233  0.00  0.00    +0.064 HD
ATOM      8  H   UNL     1       1.083  10.254  17.608  0.00  0.00    +0.064 HD
ATOM      9  H   UNL     1       2.652   8.685  16.570  0.00  0.00    +0.062 HD
ATOM     10  H   UNL     1       3.458   6.715  17.801  0.00  0.00    +0.062 HD
ENDROOT
BRANCH   3  11
ATOM     11  N   UNL     1       0.080  10.033  20.157  0.00  0.00    -0.280 N 
ATOM     12  C   UNL     1       0.252  11.336  20.574  0.00  0.00    +0.267 C 
ATOM     13  O   UNL     1       1.282  12.002  20.529  0.00  0.00    -0.268 OA
ATOM     14  H   UNL     1      -0.886   9.725  20.186  0.00  0.00    +0.155 HD
BRANCH  12  15
ATOM     15  C   UNL     1      -1.036  11.958  21.032  0.00  0.00    +0.126 A 
ATOM     16  C   UNL     1      -1.554  11.638  22.284  0.00  0.00    -0.023 A 
ATOM     17  C   UNL     1      -2.690  12.324  22.731  0.00  0.00    -0.014 A 
ATOM     18  C   UNL     1      -3.257  12.076  23.996  0.00  0.00    -0.054 A 
ATOM     19  C   UNL     1      -4.377  12.793  24.423  0.00  0.00    -0.061 A 
ATOM     20  C   UNL     1      -4.947  13.761  23.599  0.00  0.00    -0.061 A 
ATOM     21  C   UNL     1      -4.408  14.007  22.339  0.00  0.00    -0.053 A 
ATOM     22  C   UNL     1      -3.276  13.301  21.896  0.00  0.00    +0.000 A 
ATOM     23  C   UNL     1      -2.684  13.524  20.650  0.00  0.00    +0.036 A 
ATOM     24  N   UNL     1      -1.575  12.893  20.200  0.00  0.00    -0.250 NA
ATOM     25  H   UNL     1      -1.057  10.902  22.903  0.00  0.00    +0.065 HD
ATOM     26  H   UNL     1      -2.831  11.322  24.654  0.00  0.00    +0.062 HD
ATOM     27  H   UNL     1      -4.804  12.593  25.403  0.00  0.00    +0.062 HD
ATOM     28  H   UNL     1      -5.817  14.320  23.935  0.00  0.00    +0.062 HD
ATOM     29  H   UNL     1      -4.877  14.756  21.701  0.00  0.00    +0.062 HD
ATOM     30  H   UNL     1      -3.092  14.259  19.963  0.00  0.00    +0.084 HD
ENDBRANCH  12  15
ENDBRANCH   3  11
BRANCH   1  31
ATOM     31  C   UNL     1       2.753   5.885  20.321  0.00  0.00    +0.035 C 
ATOM     32  H   UNL     1       2.996   6.112  21.368  0.00  0.00    +0.046 HD
BRANCH  31  33
ATOM     33  C   UNL     1       1.635   4.844  20.333  0.00  0.00    -0.049 C 
ATOM     34  H   UNL     1       1.887   4.000  19.685  0.00  0.00    +0.024 HD
ATOM     35  H   UNL     1       1.445   4.442  21.331  0.00  0.00    +0.024 HD
ATOM     36  H   UNL     1       0.696   5.269  19.958  0.00  0.00    +0.024 HD
ENDBRANCH  31  33
BRANCH  31  37
ATOM     37  S   UNL     1       4.236   5.164  19.500  0.00  0.00    -0.077 S 
BRANCH  37  38
ATOM     38  C   UNL     1       3.556   3.763  18.747  0.00  0.00    +0.204 A 
ATOM     39  N   UNL     1       2.762   3.779  17.693  0.00  0.00    -0.208 NA
ATOM     40  C   UNL     1       2.572   2.448  17.444  0.00  0.00    +0.141 A 
ATOM     41  N   UNL     1       3.180   1.611  18.279  0.00  0.00    -0.142 NA
ATOM     42  N   UNL     1       3.817   2.469  19.099  0.00  0.00    -0.145 N 
ATOM     43 CL   UNL     1       4.643   1.915  20.506  0.00  0.00    +0.040 Cl
ATOM     44  H   UNL     1       1.959   2.080  16.632  0.00  0.00    +0.107 HD
ENDBRANCH  37  38
ENDBRANCH  31  37
ENDBRANCH   1  31
TORSDOF 6
ENDMDL
MODEL 14
REMARK VINA RESULT:    -7.624      1.094      1.635
REMARK INTER + INTRA:         -10.449
REMARK INTER:                  -9.903
REMARK INTRA:                  -0.546
REMARK UNBOUND:                -0.375
REMARK  Name = 
REMARK  6 active torsions:
REMARK  status: ('A' for Active; 'I' for Inactive)
REMARK    1  A    between atoms: C_1  and  C_2
REMARK    2  A    between atoms: C_2  and  C_3
REMARK    3  A    between atoms: C_2  and  S_22
REMARK    4  A    between atoms: C_5  and  N_9
REMARK    5  A    between atoms: C_10  and  C_12
REMARK    6  A    between atoms: S_22  and  C_23
REMARK                            x       y       z     vdW  Elec       q    Type
REMARK                         _______ _______ _______ _____ _____    ______ ____
ROOT
ATOM      1  C   UNL     1      -0.631  11.046  20.982  0.00  0.00    -0.033 A 
ATOM      2  C   UNL     1       0.368  10.311  20.318  0.00  0.00    -0.036 A 
ATOM      3  C   UNL     1       0.983   9.206  20.923  0.00  0.00    +0.034 A 
ATOM      4  C   UNL     1       0.638   8.868  22.226  0.00  0.00    -0.040 A 
ATOM      5  C   UNL     1      -0.312   9.618  22.920  0.00  0.00    -0.060 A 
ATOM      6  C   UNL     1      -0.947  10.696  22.301  0.00  0.00    -0.057 A 
ATOM      7  H   UNL     1       0.619  10.558  19.289  0.00  0.00    +0.064 HD
ATOM      8  H   UNL     1       1.096   8.022  22.731  0.00  0.00    +0.064 HD
ATOM      9  H   UNL     1      -0.580   9.337  23.940  0.00  0.00    +0.062 HD
ATOM     10  H   UNL     1      -1.710  11.233  22.858  0.00  0.00    +0.062 HD
ENDROOT
BRANCH   3  11
ATOM     11  N   UNL     1       1.897   8.479  20.142  0.00  0.00    -0.280 N 
ATOM     12  C   UNL     1       2.014   7.109  20.040  0.00  0.00    +0.267 C 
ATOM     13  O   UNL     1       1.396   6.259  20.674  0.00  0.00    -0.268 OA
ATOM     14  H   UNL     1       2.426   8.981  19.438  0.00  0.00    +0.155 HD
BRANCH  12  15
ATOM     15  C   UNL     1       2.954   6.702  18.941  0.00  0.00    +0.126 A 
ATOM     16  C   UNL     1       3.294   5.361  18.781  0.00  0.00    -0.023 A 
ATOM     17  C   UNL     1       4.076   4.998  17.677  0.00  0.00    -0.014 A 
ATOM     18  C   UNL     1       4.439   3.661  17.433  0.00  0.00    -0.054 A 
ATOM     19  C   UNL     1       5.200   3.326  16.309  0.00  0.00    -0.061 A 
ATOM     20  C   UNL     1       5.609   4.317  15.419  0.00  0.00    -0.061 A 
ATOM     21  C   UNL     1       5.272   5.648  15.656  0.00  0.00    -0.053 A 
ATOM     22  C   UNL     1       4.500   6.000  16.776  0.00  0.00    +0.000 A 
ATOM     23  C   UNL     1       4.116   7.316  17.047  0.00  0.00    +0.036 A 
ATOM     24  N   UNL     1       3.346   7.694  18.093  0.00  0.00    -0.250 NA
ATOM     25  H   UNL     1       2.925   4.622  19.480  0.00  0.00    +0.065 HD
ATOM     26  H   UNL     1       4.134   2.871  18.116  0.00  0.00    +0.062 HD
ATOM     27  H   UNL     1       5.472   2.289  16.131  0.00  0.00    +0.062 HD
ATOM     28  H   UNL     1       6.199   4.054  14.544  0.00  0.00    +0.062 HD
ATOM     29  H   UNL     1       5.615   6.411  14.958  0.00  0.00    +0.062 HD
ATOM     30  H   UNL     1       4.417   8.130  16.393  0.00  0.00    +0.084 HD
ENDBRANCH  12  15
ENDBRANCH   3  11
BRANCH   1  31
ATOM     31  C   UNL     1      -1.431  12.123  20.276  0.00  0.00    +0.035 C 
ATOM     32  H   UNL     1      -2.477  12.059  20.604  0.00  0.00    +0.046 HD
BRANCH  31  33
ATOM     33  C   UNL     1      -0.946  13.537  20.589  0.00  0.00    -0.049 C 
ATOM     34  H   UNL     1      -0.333  13.543  21.495  0.00  0.00    +0.024 HD
ATOM     35  H   UNL     1      -0.340  13.962  19.785  0.00  0.00    +0.024 HD
ATOM     36  H   UNL     1      -1.789  14.214  20.767  0.00  0.00    +0.024 HD
ENDBRANCH  31  33
BRANCH  31  37
ATOM     37  S   UNL     1      -1.352  11.850  18.455  0.00  0.00    -0.077 S 
BRANCH  37  38
ATOM     38  C   UNL     1      -3.025  11.630  18.074  0.00  0.00    +0.204 A 
ATOM     39  N   UNL     1      -4.028  11.881  18.895  0.00  0.00    -0.208 NA
ATOM     40  C   UNL     1      -5.121  11.629  18.112  0.00  0.00    +0.141 A 
ATOM     41  N   UNL     1      -4.864  11.226  16.872  0.00  0.00    -0.142 NA
ATOM     42  N   UNL     1      -3.517  11.244  16.860  0.00  0.00    -0.145 N 
ATOM     43 CL   UNL     1      -2.627  10.633  15.518  0.00  0.00    +0.040 Cl
ATOM     44  H   UNL     1      -6.138  11.734  18.465  0.00  0.00    +0.107 HD
ENDBRANCH  37  38
ENDBRANCH  31  37
ENDBRANCH   1  31
TORSDOF 6
ENDMDL
MODEL 15
REMARK VINA RESULT:    -7.606      2.716      3.375
REMARK INTER + INTRA:         -10.426
REMARK INTER:                 -10.185
REMARK INTRA:                  -0.241
REMARK UNBOUND:                -0.375
REMARK  Name = 
REMARK  6 active torsions:
REMARK  status: ('A' for Active; 'I' for Inactive)
REMARK    1  A    between atoms: C_1  and  C_2
REMARK    2  A    between atoms: C_2  and  C_3
REMARK    3  A    between atoms: C_2  and  S_22
REMARK    4  A    between atoms: C_5  and  N_9
REMARK    5  A    between atoms: C_10  and  C_12
REMARK    6  A    between atoms: S_22  and  C_23
REMARK                            x       y       z     vdW  Elec       q    Type
REMARK                         _______ _______ _______ _____ _____    ______ ____
ROOT
ATOM      1  C   UNL     1      -0.315  10.849  20.834  0.00  0.00    -0.033 A 
ATOM      2  C   UNL     1       0.393   9.751  20.312  0.00  0.00    -0.036 A 
ATOM      3  C   UNL     1       1.207   9.882  19.179  0.00  0.00    +0.034 A 
ATOM      4  C   UNL     1       1.269  11.108  18.526  0.00  0.00    -0.040 A 
ATOM      5  C   UNL     1       0.531  12.194  18.999  0.00  0.00    -0.060 A 
ATOM      6  C   UNL     1      -0.251  12.068  20.147  0.00  0.00    -0.057 A 
ATOM      7  H   UNL     1       0.368   8.799  20.837  0.00  0.00    +0.064 HD
ATOM      8  H   UNL     1       1.884  11.248  17.642  0.00  0.00    +0.064 HD
ATOM      9  H   UNL     1       0.594  13.154  18.482  0.00  0.00    +0.062 HD
ATOM     10  H   UNL     1      -0.781  12.945  20.509  0.00  0.00    +0.062 HD
ENDROOT
BRANCH   3  11
ATOM     11  N   UNL     1       1.950   8.754  18.793  0.00  0.00    -0.280 N 
ATOM     12  C   UNL     1       2.075   7.557  19.465  0.00  0.00    +0.267 C 
ATOM     13  O   UNL     1       1.625   7.274  20.572  0.00  0.00    -0.268 OA
ATOM     14  H   UNL     1       2.306   8.721  17.844  0.00  0.00    +0.155 HD
BRANCH  12  15
ATOM     15  C   UNL     1       2.768   6.512  18.638  0.00  0.00    +0.126 A 
ATOM     16  C   UNL     1       3.643   6.898  17.626  0.00  0.00    -0.023 A 
ATOM     17  C   UNL     1       4.365   5.904  16.953  0.00  0.00    -0.014 A 
ATOM     18  C   UNL     1       5.287   6.216  15.937  0.00  0.00    -0.054 A 
ATOM     19  C   UNL     1       6.009   5.204  15.300  0.00  0.00    -0.061 A 
ATOM     20  C   UNL     1       5.822   3.872  15.664  0.00  0.00    -0.061 A 
ATOM     21  C   UNL     1       4.900   3.546  16.656  0.00  0.00    -0.053 A 
ATOM     22  C   UNL     1       4.172   4.552  17.313  0.00  0.00    +0.000 A 
ATOM     23  C   UNL     1       3.252   4.280  18.330  0.00  0.00    +0.036 A 
ATOM     24  N   UNL     1       2.557   5.219  19.011  0.00  0.00    -0.250 NA
ATOM     25  H   UNL     1       3.781   7.948  17.401  0.00  0.00    +0.065 HD
ATOM     26  H   UNL     1       5.447   7.248  15.633  0.00  0.00    +0.062 HD
ATOM     27  H   UNL     1       6.720   5.459  14.517  0.00  0.00    +0.062 HD
ATOM     28  H   UNL     1       6.387   3.086  15.169  0.00  0.00    +0.062 HD
ATOM     29  H   UNL     1       4.755   2.498  16.916  0.00  0.00    +0.062 HD
ATOM     30  H   UNL     1       3.058   3.259  18.646  0.00  0.00    +0.084 HD
ENDBRANCH  12  15
ENDBRANCH   3  11
BRANCH   1  31
ATOM     31  C   UNL     1      -1.049  10.767  22.158  0.00  0.00    +0.035 C 
ATOM     32  H   UNL     1      -2.039  10.324  21.986  0.00  0.00    +0.046 HD
BRANCH  31  33
ATOM     33  C   UNL     1      -0.338   9.893  23.189  0.00  0.00    -0.049 C 
ATOM     34  H   UNL     1      -1.028   9.160  23.617  0.00  0.00    +0.024 HD
ATOM     35  H   UNL     1       0.502   9.337  22.763  0.00  0.00    +0.024 HD
ATOM     36  H   UNL     1       0.047  10.496  24.021  0.00  0.00    +0.024 HD
ENDBRANCH  31  33
BRANCH  31  37
ATOM     37  S   UNL     1      -1.258  12.462  22.850  0.00  0.00    -0.077 S 
BRANCH  37  38
ATOM     38  C   UNL     1      -2.978  12.548  23.017  0.00  0.00    +0.204 A 
ATOM     39  N   UNL     1      -3.630  12.510  24.163  0.00  0.00    -0.208 NA
ATOM     40  C   UNL     1      -4.929  12.691  23.772  0.00  0.00    +0.141 A 
ATOM     41  N   UNL     1      -5.125  12.823  22.464  0.00  0.00    -0.142 NA
ATOM     42  N   UNL     1      -3.865  12.742  21.996  0.00  0.00    -0.145 N 
ATOM     43 CL   UNL     1      -3.541  12.680  20.305  0.00  0.00    +0.040 Cl
ATOM     44  H   UNL     1      -5.758  12.717  24.467  0.00  0.00    +0.107 HD
ENDBRANCH  37  38
ENDBRANCH  31  37
ENDBRANCH   1  31
TORSDOF 6
ENDMDL
MODEL 16
REMARK VINA RESULT:    -7.483      6.125      8.806
REMARK INTER + INTRA:         -10.263
REMARK INTER:                  -9.767
REMARK INTRA:                  -0.496
REMARK UNBOUND:                -0.375
REMARK  Name = 
REMARK  6 active torsions:
REMARK  status: ('A' for Active; 'I' for Inactive)
REMARK    1  A    between atoms: C_1  and  C_2
REMARK    2  A    between atoms: C_2  and  C_3
REMARK    3  A    between atoms: C_2  and  S_22
REMARK    4  A    between atoms: C_5  and  N_9
REMARK    5  A    between atoms: C_10  and  C_12
REMARK    6  A    between atoms: S_22  and  C_23
REMARK                            x       y       z     vdW  Elec       q    Type
REMARK                         _______ _______ _______ _____ _____    ______ ____
ROOT
ATOM      1  C   UNL     1       5.038   4.273  16.657  0.00  0.00    -0.033 A 
ATOM      2  C   UNL     1       5.629   5.436  17.184  0.00  0.00    -0.036 A 
ATOM      3  C   UNL     1       6.634   6.122  16.488  0.00  0.00    +0.034 A 
ATOM      4  C   UNL     1       7.093   5.608  15.280  0.00  0.00    -0.040 A 
ATOM      5  C   UNL     1       6.556   4.426  14.769  0.00  0.00    -0.060 A 
ATOM      6  C   UNL     1       5.532   3.766  15.448  0.00  0.00    -0.057 A 
ATOM      7  H   UNL     1       5.251   5.854  18.114  0.00  0.00    +0.064 HD
ATOM      8  H   UNL     1       7.874   6.108  14.714  0.00  0.00    +0.064 HD
ATOM      9  H   UNL     1       6.921   4.038  13.816  0.00  0.00    +0.062 HD
ATOM     10  H   UNL     1       5.111   2.870  15.001  0.00  0.00    +0.062 HD
ENDROOT
BRANCH   3  11
ATOM     11  N   UNL     1       7.090   7.326  17.049  0.00  0.00    -0.280 N 
ATOM     12  C   UNL     1       7.892   7.488  18.159  0.00  0.00    +0.267 C 
ATOM     13  O   UNL     1       8.295   6.614  18.920  0.00  0.00    -0.268 OA
ATOM     14  H   UNL     1       6.979   8.176  16.506  0.00  0.00    +0.155 HD
BRANCH  12  15
ATOM     15  C   UNL     1       8.352   8.909  18.323  0.00  0.00    +0.126 A 
ATOM     16  C   UNL     1       7.786   9.915  17.544  0.00  0.00    -0.023 A 
ATOM     17  C   UNL     1       8.149  11.243  17.803  0.00  0.00    -0.014 A 
ATOM     18  C   UNL     1       7.601  12.316  17.076  0.00  0.00    -0.054 A 
ATOM     19  C   UNL     1       7.964  13.632  17.373  0.00  0.00    -0.061 A 
ATOM     20  C   UNL     1       8.877  13.895  18.393  0.00  0.00    -0.061 A 
ATOM     21  C   UNL     1       9.441  12.842  19.110  0.00  0.00    -0.053 A 
ATOM     22  C   UNL     1       9.079  11.513  18.830  0.00  0.00    +0.000 A 
ATOM     23  C   UNL     1       9.598  10.423  19.534  0.00  0.00    +0.036 A 
ATOM     24  N   UNL     1       9.252   9.133  19.320  0.00  0.00    -0.250 NA
ATOM     25  H   UNL     1       7.056   9.665  16.784  0.00  0.00    +0.065 HD
ATOM     26  H   UNL     1       6.890  12.135  16.273  0.00  0.00    +0.062 HD
ATOM     27  H   UNL     1       7.532  14.453  16.805  0.00  0.00    +0.062 HD
ATOM     28  H   UNL     1       9.156  14.920  18.625  0.00  0.00    +0.062 HD
ATOM     29  H   UNL     1      10.165  13.065  19.893  0.00  0.00    +0.062 HD
ATOM     30  H   UNL     1      10.321  10.568  20.331  0.00  0.00    +0.084 HD
ENDBRANCH  12  15
ENDBRANCH   3  11
BRANCH   1  31
ATOM     31  C   UNL     1       3.830   3.628  17.308  0.00  0.00    +0.035 C 
ATOM     32  H   UNL     1       3.299   3.033  16.554  0.00  0.00    +0.046 HD
BRANCH  31  33
ATOM     33  C   UNL     1       4.194   2.685  18.453  0.00  0.00    -0.049 C 
ATOM     34  H   UNL     1       5.240   2.818  18.744  0.00  0.00    +0.024 HD
ATOM     35  H   UNL     1       3.585   2.851  19.345  0.00  0.00    +0.024 HD
ATOM     36  H   UNL     1       4.074   1.636  18.155  0.00  0.00    +0.024 HD
ENDBRANCH  31  33
BRANCH  31  37
ATOM     37  S   UNL     1       2.703   4.940  17.945  0.00  0.00    -0.077 S 
BRANCH  37  38
ATOM     38  C   UNL     1       2.285   4.300  19.497  0.00  0.00    +0.204 A 
ATOM     39  N   UNL     1       2.762   4.734  20.649  0.00  0.00    -0.208 NA
ATOM     40  C   UNL     1       2.076   3.976  21.558  0.00  0.00    +0.141 A 
ATOM     41  N   UNL     1       1.221   3.094  21.048  0.00  0.00    -0.142 NA
ATOM     42  N   UNL     1       1.358   3.324  19.728  0.00  0.00    -0.145 N 
ATOM     43 CL   UNL     1       0.588   2.317  18.561  0.00  0.00    +0.040 Cl
ATOM     44  H   UNL     1       2.215   4.065  22.627  0.00  0.00    +0.107 HD
ENDBRANCH  37  38
ENDBRANCH  31  37
ENDBRANCH   1  31
TORSDOF 6
ENDMDL
MODEL 17
REMARK VINA RESULT:    -7.422      3.864      8.563
REMARK INTER + INTRA:         -10.183
REMARK INTER:                  -9.856
REMARK INTRA:                  -0.327
REMARK UNBOUND:                -0.375
REMARK  Name = 
REMARK  6 active torsions:
REMARK  status: ('A' for Active; 'I' for Inactive)
REMARK    1  A    between atoms: C_1  and  C_2
REMARK    2  A    between atoms: C_2  and  C_3
REMARK    3  A    between atoms: C_2  and  S_22
REMARK    4  A    between atoms: C_5  and  N_9
REMARK    5  A    between atoms: C_10  and  C_12
REMARK    6  A    between atoms: S_22  and  C_23
REMARK                            x       y       z     vdW  Elec       q    Type
REMARK                         _______ _______ _______ _____ _____    ______ ____
ROOT
ATOM      1  C   UNL     1       4.650   4.152  18.097  0.00  0.00    -0.033 A 
ATOM      2  C   UNL     1       4.019   5.163  18.845  0.00  0.00    -0.036 A 
ATOM      3  C   UNL     1       3.823   6.446  18.316  0.00  0.00    +0.034 A 
ATOM      4  C   UNL     1       4.315   6.738  17.049  0.00  0.00    -0.040 A 
ATOM      5  C   UNL     1       4.991   5.763  16.314  0.00  0.00    -0.060 A 
ATOM      6  C   UNL     1       5.153   4.478  16.831  0.00  0.00    -0.057 A 
ATOM      7  H   UNL     1       3.609   4.927  19.825  0.00  0.00    +0.064 HD
ATOM      8  H   UNL     1       4.188   7.722  16.606  0.00  0.00    +0.064 HD
ATOM      9  H   UNL     1       5.365   6.004  15.317  0.00  0.00    +0.062 HD
ATOM     10  H   UNL     1       5.649   3.733  16.216  0.00  0.00    +0.062 HD
ENDROOT
BRANCH   3  11
ATOM     11  N   UNL     1       3.096   7.356  19.101  0.00  0.00    -0.280 N 
ATOM     12  C   UNL     1       2.064   8.177  18.701  0.00  0.00    +0.267 C 
ATOM     13  O   UNL     1       1.635   8.333  17.561  0.00  0.00    -0.268 OA
ATOM     14  H   UNL     1       3.201   7.303  20.108  0.00  0.00    +0.155 HD
BRANCH  12  15
ATOM     15  C   UNL     1       1.387   8.844  19.864  0.00  0.00    +0.126 A 
ATOM     16  C   UNL     1       0.578   9.957  19.650  0.00  0.00    -0.023 A 
ATOM     17  C   UNL     1      -0.133  10.483  20.737  0.00  0.00    -0.014 A 
ATOM     18  C   UNL     1      -0.991  11.590  20.595  0.00  0.00    -0.054 A 
ATOM     19  C   UNL     1      -1.706  12.077  21.692  0.00  0.00    -0.061 A 
ATOM     20  C   UNL     1      -1.574  11.472  22.941  0.00  0.00    -0.061 A 
ATOM     21  C   UNL     1      -0.716  10.387  23.100  0.00  0.00    -0.053 A 
ATOM     22  C   UNL     1       0.004   9.878  22.005  0.00  0.00    +0.000 A 
ATOM     23  C   UNL     1       0.860   8.779  22.107  0.00  0.00    +0.036 A 
ATOM     24  N   UNL     1       1.544   8.236  21.073  0.00  0.00    -0.250 NA
ATOM     25  H   UNL     1       0.481  10.373  18.656  0.00  0.00    +0.065 HD
ATOM     26  H   UNL     1      -1.107  12.080  19.631  0.00  0.00    +0.062 HD
ATOM     27  H   UNL     1      -2.367  12.932  21.569  0.00  0.00    +0.062 HD
ATOM     28  H   UNL     1      -2.133  11.852  23.793  0.00  0.00    +0.062 HD
ATOM     29  H   UNL     1      -0.612   9.937  24.087  0.00  0.00    +0.062 HD
ATOM     30  H   UNL     1       1.010   8.275  23.058  0.00  0.00    +0.084 HD
ENDBRANCH  12  15
ENDBRANCH   3  11
BRANCH   1  31
ATOM     31  C   UNL     1       4.703   2.716  18.584  0.00  0.00    +0.035 C 
ATOM     32  H   UNL     1       5.558   2.215  18.111  0.00  0.00    +0.046 HD
BRANCH  31  33
ATOM     33  C   UNL     1       4.891   2.599  20.095  0.00  0.00    -0.049 C 
ATOM     34  H   UNL     1       5.462   3.448  20.480  0.00  0.00    +0.024 HD
ATOM     35  H   UNL     1       3.942   2.573  20.636  0.00  0.00    +0.024 HD
ATOM     36  H   UNL     1       5.450   1.691  20.355  0.00  0.00    +0.024 HD
ENDBRANCH  31  33
BRANCH  31  37
ATOM     37  S   UNL     1       3.152   1.847  18.101  0.00  0.00    -0.077 S 
BRANCH  37  38
ATOM     38  C   UNL     1       2.018   2.542  19.208  0.00  0.00    +0.204 A 
ATOM     39  N   UNL     1       1.806   2.119  20.440  0.00  0.00    -0.208 NA
ATOM     40  C   UNL     1       0.900   3.028  20.914  0.00  0.00    +0.141 A 
ATOM     41  N   UNL     1       0.528   3.974  20.057  0.00  0.00    -0.142 NA
ATOM     42  N   UNL     1       1.263   3.656  18.974  0.00  0.00    -0.145 N 
ATOM     43 CL   UNL     1       1.043   4.473  17.473  0.00  0.00    +0.040 Cl
ATOM     44  H   UNL     1       0.493   2.990  21.916  0.00  0.00    +0.107 HD
ENDBRANCH  37  38
ENDBRANCH  31  37
ENDBRANCH   1  31
TORSDOF 6
ENDMDL
MODEL 18
REMARK VINA RESULT:    -7.420      4.195      9.681
REMARK INTER + INTRA:         -10.180
REMARK INTER:                  -9.810
REMARK INTRA:                  -0.370
REMARK UNBOUND:                -0.375
REMARK  Name = 
REMARK  6 active torsions:
REMARK  status: ('A' for Active; 'I' for Inactive)
REMARK    1  A    between atoms: C_1  and  C_2
REMARK    2  A    between atoms: C_2  and  C_3
REMARK    3  A    between atoms: C_2  and  S_22
REMARK    4  A    between atoms: C_5  and  N_9
REMARK    5  A    between atoms: C_10  and  C_12
REMARK    6  A    between atoms: S_22  and  C_23
REMARK                            x       y       z     vdW  Elec       q    Type
REMARK                         _______ _______ _______ _____ _____    ______ ____
ROOT
ATOM      1  C   UNL     1       2.842   6.138  18.546  0.00  0.00    -0.033 A 
ATOM      2  C   UNL     1       2.381   7.415  18.915  0.00  0.00    -0.036 A 
ATOM      3  C   UNL     1       1.691   7.621  20.117  0.00  0.00    +0.034 A 
ATOM      4  C   UNL     1       1.407   6.530  20.931  0.00  0.00    -0.040 A 
ATOM      5  C   UNL     1       1.809   5.248  20.555  0.00  0.00    -0.060 A 
ATOM      6  C   UNL     1       2.526   5.053  19.374  0.00  0.00    -0.057 A 
ATOM      7  H   UNL     1       2.626   8.273  18.293  0.00  0.00    +0.064 HD
ATOM      8  H   UNL     1       0.870   6.648  21.868  0.00  0.00    +0.064 HD
ATOM      9  H   UNL     1       1.587   4.401  21.207  0.00  0.00    +0.062 HD
ATOM     10  H   UNL     1       2.857   4.047  19.132  0.00  0.00    +0.062 HD
ENDROOT
BRANCH   3  11
ATOM     11  N   UNL     1       1.359   8.946  20.443  0.00  0.00    -0.280 N 
ATOM     12  C   UNL     1       0.776   9.894  19.630  0.00  0.00    +0.267 C 
ATOM     13  O   UNL     1       0.508   9.788  18.436  0.00  0.00    -0.268 OA
ATOM     14  H   UNL     1       1.381   9.214  21.421  0.00  0.00    +0.155 HD
BRANCH  12  15
ATOM     15  C   UNL     1       0.372  11.124  20.392  0.00  0.00    +0.126 A 
ATOM     16  C   UNL     1      -0.707  11.071  21.271  0.00  0.00    -0.023 A 
ATOM     17  C   UNL     1      -0.984  12.198  22.055  0.00  0.00    -0.014 A 
ATOM     18  C   UNL     1      -2.041  12.213  22.985  0.00  0.00    -0.054 A 
ATOM     19  C   UNL     1      -2.278  13.344  23.770  0.00  0.00    -0.061 A 
ATOM     20  C   UNL     1      -1.471  14.472  23.638  0.00  0.00    -0.061 A 
ATOM     21  C   UNL     1      -0.432  14.479  22.710  0.00  0.00    -0.053 A 
ATOM     22  C   UNL     1      -0.173  13.346  21.919  0.00  0.00    +0.000 A 
ATOM     23  C   UNL     1       0.869  13.294  20.990  0.00  0.00    +0.036 A 
ATOM     24  N   UNL     1       1.174  12.214  20.234  0.00  0.00    -0.250 NA
ATOM     25  H   UNL     1      -1.285  10.161  21.363  0.00  0.00    +0.065 HD
ATOM     26  H   UNL     1      -2.686  11.345  23.102  0.00  0.00    +0.062 HD
ATOM     27  H   UNL     1      -3.097  13.342  24.486  0.00  0.00    +0.062 HD
ATOM     28  H   UNL     1      -1.656  15.350  24.252  0.00  0.00    +0.062 HD
ATOM     29  H   UNL     1       0.179  15.375  22.609  0.00  0.00    +0.062 HD
ATOM     30  H   UNL     1       1.523  14.148  20.837  0.00  0.00    +0.084 HD
ENDBRANCH  12  15
ENDBRANCH   3  11
BRANCH   1  31
ATOM     31  C   UNL     1       3.744   5.933  17.345  0.00  0.00    +0.035 C 
ATOM     32  H   UNL     1       3.149   6.058  16.430  0.00  0.00    +0.046 HD
BRANCH  31  33
ATOM     33  C   UNL     1       4.894   6.936  17.276  0.00  0.00    -0.049 C 
ATOM     34  H   UNL     1       5.776   6.481  16.816  0.00  0.00    +0.024 HD
ATOM     35  H   UNL     1       4.643   7.824  16.689  0.00  0.00    +0.024 HD
ATOM     36  H   UNL     1       5.189   7.268  18.278  0.00  0.00    +0.024 HD
ENDBRANCH  31  33
BRANCH  31  37
ATOM     37  S   UNL     1       4.438   4.226  17.384  0.00  0.00    -0.077 S 
BRANCH  37  38
ATOM     38  C   UNL     1       5.538   4.279  16.050  0.00  0.00    +0.204 A 
ATOM     39  N   UNL     1       5.191   4.201  14.779  0.00  0.00    -0.208 NA
ATOM     40  C   UNL     1       6.386   4.370  14.134  0.00  0.00    +0.141 A 
ATOM     41  N   UNL     1       7.448   4.531  14.918  0.00  0.00    -0.142 NA
ATOM     42  N   UNL     1       6.885   4.483  16.141  0.00  0.00    -0.145 N 
ATOM     43 CL   UNL     1       7.850   4.468  17.568  0.00  0.00    +0.040 Cl
ATOM     44  H   UNL     1       6.483   4.364  13.057  0.00  0.00    +0.107 HD
ENDBRANCH  37  38
ENDBRANCH  31  37
ENDBRANCH   1  31
TORSDOF 6
ENDMDL
MODEL 19
REMARK VINA RESULT:    -7.399      4.350      9.234
REMARK INTER + INTRA:         -10.152
REMARK INTER:                 -10.213
REMARK INTRA:                   0.061
REMARK UNBOUND:                -0.375
REMARK  Name = 
REMARK  6 active torsions:
REMARK  status: ('A' for Active; 'I' for Inactive)
REMARK    1  A    between atoms: C_1  and  C_2
REMARK    2  A    between atoms: C_2  and  C_3
REMARK    3  A    between atoms: C_2  and  S_22
REMARK    4  A    between atoms: C_5  and  N_9
REMARK    5  A    between atoms: C_10  and  C_12
REMARK    6  A    between atoms: S_22  and  C_23
REMARK                            x       y       z     vdW  Elec       q    Type
REMARK                         _______ _______ _______ _____ _____    ______ ____
ROOT
ATOM      1  C   UNL     1       4.365   4.892  17.568  0.00  0.00    -0.033 A 
ATOM      2  C   UNL     1       3.647   5.921  18.203  0.00  0.00    -0.036 A 
ATOM      3  C   UNL     1       3.066   5.733  19.465  0.00  0.00    +0.034 A 
ATOM      4  C   UNL     1       3.154   4.485  20.073  0.00  0.00    -0.040 A 
ATOM      5  C   UNL     1       3.816   3.437  19.433  0.00  0.00    -0.060 A 
ATOM      6  C   UNL     1       4.422   3.639  18.192  0.00  0.00    -0.057 A 
ATOM      7  H   UNL     1       3.601   6.905  17.742  0.00  0.00    +0.064 HD
ATOM      8  H   UNL     1       2.713   4.299  21.048  0.00  0.00    +0.064 HD
ATOM      9  H   UNL     1       3.885   2.464  19.924  0.00  0.00    +0.062 HD
ATOM     10  H   UNL     1       4.963   2.811  17.742  0.00  0.00    +0.062 HD
ENDROOT
BRANCH   3  11
ATOM     11  N   UNL     1       2.455   6.850  20.059  0.00  0.00    -0.280 N 
ATOM     12  C   UNL     1       1.921   7.953  19.429  0.00  0.00    +0.267 C 
ATOM     13  O   UNL     1       1.948   8.211  18.229  0.00  0.00    -0.268 OA
ATOM     14  H   UNL     1       2.213   6.792  21.042  0.00  0.00    +0.155 HD
BRANCH  12  15
ATOM     15  C   UNL     1       1.158   8.834  20.378  0.00  0.00    +0.126 A 
ATOM     16  C   UNL     1       0.354   9.856  19.880  0.00  0.00    -0.023 A 
ATOM     17  C   UNL     1      -0.436  10.581  20.781  0.00  0.00    -0.014 A 
ATOM     18  C   UNL     1      -1.293  11.612  20.353  0.00  0.00    -0.054 A 
ATOM     19  C   UNL     1      -2.087  12.302  21.272  0.00  0.00    -0.061 A 
ATOM     20  C   UNL     1      -2.036  11.977  22.626  0.00  0.00    -0.061 A 
ATOM     21  C   UNL     1      -1.179  10.971  23.068  0.00  0.00    -0.053 A 
ATOM     22  C   UNL     1      -0.381  10.261  22.156  0.00  0.00    +0.000 A 
ATOM     23  C   UNL     1       0.478   9.229  22.544  0.00  0.00    +0.036 A 
ATOM     24  N   UNL     1       1.237   8.498  21.696  0.00  0.00    -0.250 NA
ATOM     25  H   UNL     1       0.322  10.050  18.816  0.00  0.00    +0.065 HD
ATOM     26  H   UNL     1      -1.347  11.885  19.301  0.00  0.00    +0.062 HD
ATOM     27  H   UNL     1      -2.747  13.095  20.928  0.00  0.00    +0.062 HD
ATOM     28  H   UNL     1      -2.656  12.514  23.340  0.00  0.00    +0.062 HD
ATOM     29  H   UNL     1      -1.140  10.742  24.133  0.00  0.00    +0.062 HD
ATOM     30  H   UNL     1       0.566   8.942  23.588  0.00  0.00    +0.084 HD
ENDBRANCH  12  15
ENDBRANCH   3  11
BRANCH   1  31
ATOM     31  C   UNL     1       5.150   5.136  16.294  0.00  0.00    +0.035 C 
ATOM     32  H   UNL     1       4.764   4.473  15.509  0.00  0.00    +0.046 HD
BRANCH  31  33
ATOM     33  C   UNL     1       5.028   6.568  15.776  0.00  0.00    -0.049 C 
ATOM     34  H   UNL     1       5.547   7.264  16.441  0.00  0.00    +0.024 HD
ATOM     35  H   UNL     1       5.455   6.693  14.778  0.00  0.00    +0.024 HD
ATOM     36  H   UNL     1       3.979   6.885  15.734  0.00  0.00    +0.024 HD
ENDBRANCH  31  33
BRANCH  31  37
ATOM     37  S   UNL     1       6.928   4.753  16.587  0.00  0.00    -0.077 S 
BRANCH  37  38
ATOM     38  C   UNL     1       7.483   6.239  17.279  0.00  0.00    +0.204 A 
ATOM     39  N   UNL     1       7.632   7.372  16.621  0.00  0.00    -0.208 NA
ATOM     40  C   UNL     1       8.005   8.242  17.609  0.00  0.00    +0.141 A 
ATOM     41  N   UNL     1       8.111   7.722  18.827  0.00  0.00    -0.142 NA
ATOM     42  N   UNL     1       7.761   6.441  18.601  0.00  0.00    -0.145 N 
ATOM     43 CL   UNL     1       7.893   5.248  19.837  0.00  0.00    +0.040 Cl
ATOM     44  H   UNL     1       8.215   9.288  17.427  0.00  0.00    +0.107 HD
ENDBRANCH  37  38
ENDBRANCH  31  37
ENDBRANCH   1  31
TORSDOF 6
ENDMDL
MODEL 20
REMARK VINA RESULT:    -7.373      2.193      2.516
REMARK INTER + INTRA:         -10.118
REMARK INTER:                 -10.055
REMARK INTRA:                  -0.062
REMARK UNBOUND:                -0.375
REMARK  Name = 
REMARK  6 active torsions:
REMARK  status: ('A' for Active; 'I' for Inactive)
REMARK    1  A    between atoms: C_1  and  C_2
REMARK    2  A    between atoms: C_2  and  C_3
REMARK    3  A    between atoms: C_2  and  S_22
REMARK    4  A    between atoms: C_5  and  N_9
REMARK    5  A    between atoms: C_10  and  C_12
REMARK    6  A    between atoms: S_22  and  C_23
REMARK                            x       y       z     vdW  Elec       q    Type
REMARK                         _______ _______ _______ _____ _____    ______ ____
ROOT
ATOM      1  C   UNL     1      -0.092  10.596  20.399  0.00  0.00    -0.033 A 
ATOM      2  C   UNL     1       0.782   9.654  19.827  0.00  0.00    -0.036 A 
ATOM      3  C   UNL     1       1.324   8.608  20.586  0.00  0.00    +0.034 A 
ATOM      4  C   UNL     1       1.037   8.537  21.945  0.00  0.00    -0.040 A 
ATOM      5  C   UNL     1       0.215   9.494  22.541  0.00  0.00    -0.060 A 
ATOM      6  C   UNL     1      -0.350  10.514  21.774  0.00  0.00    -0.057 A 
ATOM      7  H   UNL     1       0.985   9.692  18.759  0.00  0.00    +0.064 HD
ATOM      8  H   UNL     1       1.442   7.744  22.567  0.00  0.00    +0.064 HD
ATOM      9  H   UNL     1      -0.009   9.422  23.607  0.00  0.00    +0.062 HD
ATOM     10  H   UNL     1      -1.016  11.218  22.263  0.00  0.00    +0.062 HD
ENDROOT
BRANCH   3  11
ATOM     11  N   UNL     1       2.105   7.662  19.902  0.00  0.00    -0.280 N 
ATOM     12  C   UNL     1       2.081   6.290  20.041  0.00  0.00    +0.267 C 
ATOM     13  O   UNL     1       1.430   5.635  20.849  0.00  0.00    -0.268 OA
ATOM     14  H   UNL     1       2.630   7.975  19.093  0.00  0.00    +0.155 HD
BRANCH  12  15
ATOM     15  C   UNL     1       2.897   5.600  18.986  0.00  0.00    +0.126 A 
ATOM     16  C   UNL     1       3.486   6.345  17.967  0.00  0.00    -0.023 A 
ATOM     17  C   UNL     1       4.337   5.689  17.068  0.00  0.00    -0.014 A 
ATOM     18  C   UNL     1       4.990   6.378  16.028  0.00  0.00    -0.054 A 
ATOM     19  C   UNL     1       5.852   5.702  15.162  0.00  0.00    -0.061 A 
ATOM     20  C   UNL     1       6.074   4.335  15.318  0.00  0.00    -0.061 A 
ATOM     21  C   UNL     1       5.422   3.636  16.332  0.00  0.00    -0.053 A 
ATOM     22  C   UNL     1       4.559   4.303  17.218  0.00  0.00    +0.000 A 
ATOM     23  C   UNL     1       3.899   3.653  18.264  0.00  0.00    +0.036 A 
ATOM     24  N   UNL     1       3.087   4.262  19.159  0.00  0.00    -0.250 NA
ATOM     25  H   UNL     1       3.310   7.411  17.906  0.00  0.00    +0.065 HD
ATOM     26  H   UNL     1       4.829   7.445  15.885  0.00  0.00    +0.062 HD
ATOM     27  H   UNL     1       6.351   6.246  14.364  0.00  0.00    +0.062 HD
ATOM     28  H   UNL     1       6.748   3.811  14.644  0.00  0.00    +0.062 HD
ATOM     29  H   UNL     1       5.595   2.565  16.429  0.00  0.00    +0.062 HD
ATOM     30  H   UNL     1       4.026   2.586  18.426  0.00  0.00    +0.084 HD
ENDBRANCH  12  15
ENDBRANCH   3  11
BRANCH   1  31
ATOM     31  C   UNL     1      -0.827  11.618  19.554  0.00  0.00    +0.035 C 
ATOM     32  H   UNL     1      -0.188  11.901  18.707  0.00  0.00    +0.046 HD
BRANCH  31  33
ATOM     33  C   UNL     1      -2.137  11.090  18.973  0.00  0.00    -0.049 C 
ATOM     34  H   UNL     1      -2.753  10.640  19.757  0.00  0.00    +0.024 HD
ATOM     35  H   UNL     1      -2.735  11.874  18.500  0.00  0.00    +0.024 HD
ATOM     36  H   UNL     1      -1.952  10.311  18.224  0.00  0.00    +0.024 HD
ENDBRANCH  31  33
BRANCH  31  37
ATOM     37  S   UNL     1      -1.180  13.114  20.571  0.00  0.00    -0.077 S 
BRANCH  37  38
ATOM     38  C   UNL     1      -2.894  12.990  20.768  0.00  0.00    +0.204 A 
ATOM     39  N   UNL     1      -3.786  13.266  19.835  0.00  0.00    -0.208 NA
ATOM     40  C   UNL     1      -4.966  12.938  20.446  0.00  0.00    +0.141 A 
ATOM     41  N   UNL     1      -4.866  12.493  21.695  0.00  0.00    -0.142 NA
ATOM     42  N   UNL     1      -3.532  12.521  21.881  0.00  0.00    -0.145 N 
ATOM     43 CL   UNL     1      -2.839  12.199  23.425  0.00  0.00    +0.040 Cl
ATOM     44  H   UNL     1      -5.929  13.037  19.963  0.00  0.00    +0.107 HD
ENDBRANCH  37  38
ENDBRANCH  31  37
ENDBRANCH   1  31
TORSDOF 6
ENDMDL
MODEL 21
REMARK VINA RESULT:    -7.365      2.591      3.121
REMARK INTER + INTRA:         -10.107
REMARK INTER:                  -9.744
REMARK INTRA:                  -0.363
REMARK UNBOUND:                -0.375
REMARK  Name = 
REMARK  6 active torsions:
REMARK  status: ('A' for Active; 'I' for Inactive)
REMARK    1  A    between atoms: C_1  and  C_2
REMARK    2  A    between atoms: C_2  and  C_3
REMARK    3  A    between atoms: C_2  and  S_22
REMARK    4  A    between atoms: C_5  and  N_9
REMARK    5  A    between atoms: C_10  and  C_12
REMARK    6  A    between atoms: S_22  and  C_23
REMARK                            x       y       z     vdW  Elec       q    Type
REMARK                         _______ _______ _______ _____ _____    ______ ____
ROOT
ATOM      1  C   UNL     1      -0.358  10.528  20.825  0.00  0.00    -0.033 A 
ATOM      2  C   UNL     1       0.480   9.609  20.167  0.00  0.00    -0.036 A 
ATOM      3  C   UNL     1       1.232   8.667  20.882  0.00  0.00    +0.034 A 
ATOM      4  C   UNL     1       1.190   8.681  22.272  0.00  0.00    -0.040 A 
ATOM      5  C   UNL     1       0.406   9.620  22.943  0.00  0.00    -0.060 A 
ATOM      6  C   UNL     1      -0.366  10.534  22.226  0.00  0.00    -0.057 A 
ATOM      7  H   UNL     1       0.492   9.579  19.080  0.00  0.00    +0.064 HD
ATOM      8  H   UNL     1       1.762   7.970  22.862  0.00  0.00    +0.064 HD
ATOM      9  H   UNL     1       0.376   9.615  24.034  0.00  0.00    +0.062 HD
ATOM     10  H   UNL     1      -0.995  11.225  22.780  0.00  0.00    +0.062 HD
ENDROOT
BRANCH   3  11
ATOM     11  N   UNL     1       1.960   7.729  20.132  0.00  0.00    -0.280 N 
ATOM     12  C   UNL     1       1.950   6.356  20.260  0.00  0.00    +0.267 C 
ATOM     13  O   UNL     1       1.364   5.692  21.110  0.00  0.00    -0.268 OA
ATOM     14  H   UNL     1       2.419   8.051  19.287  0.00  0.00    +0.155 HD
BRANCH  12  15
ATOM     15  C   UNL     1       2.683   5.677  19.138  0.00  0.00    +0.126 A 
ATOM     16  C   UNL     1       3.405   6.438  18.222  0.00  0.00    -0.023 A 
ATOM     17  C   UNL     1       4.175   5.770  17.261  0.00  0.00    -0.014 A 
ATOM     18  C   UNL     1       4.952   6.468  16.318  0.00  0.00    -0.054 A 
ATOM     19  C   UNL     1       5.728   5.774  15.386  0.00  0.00    -0.061 A 
ATOM     20  C   UNL     1       5.739   4.381  15.380  0.00  0.00    -0.061 A 
ATOM     21  C   UNL     1       4.962   3.676  16.296  0.00  0.00    -0.053 A 
ATOM     22  C   UNL     1       4.182   4.358  17.246  0.00  0.00    +0.000 A 
ATOM     23  C   UNL     1       3.403   3.698  18.200  0.00  0.00    +0.036 A 
ATOM     24  N   UNL     1       2.666   4.315  19.153  0.00  0.00    -0.250 NA
ATOM     25  H   UNL     1       3.393   7.518  18.287  0.00  0.00    +0.065 HD
ATOM     26  H   UNL     1       4.957   7.556  16.301  0.00  0.00    +0.062 HD
ATOM     27  H   UNL     1       6.326   6.325  14.664  0.00  0.00    +0.062 HD
ATOM     28  H   UNL     1       6.346   3.842  14.656  0.00  0.00    +0.062 HD
ATOM     29  H   UNL     1       4.969   2.587  16.266  0.00  0.00    +0.062 HD
ATOM     30  H   UNL     1       3.364   2.614  18.235  0.00  0.00    +0.084 HD
ENDBRANCH  12  15
ENDBRANCH   3  11
BRANCH   1  31
ATOM     31  C   UNL     1      -1.311  11.426  20.061  0.00  0.00    +0.035 C 
ATOM     32  H   UNL     1      -2.251  10.884  19.895  0.00  0.00    +0.046 HD
BRANCH  31  33
ATOM     33  C   UNL     1      -1.658  12.712  20.809  0.00  0.00    -0.049 C 
ATOM     34  H   UNL     1      -2.720  12.732  21.069  0.00  0.00    +0.024 HD
ATOM     35  H   UNL     1      -1.095  12.823  21.739  0.00  0.00    +0.024 HD
ATOM     36  H   UNL     1      -1.461  13.596  20.190  0.00  0.00    +0.024 HD
ENDBRANCH  31  33
BRANCH  31  37
ATOM     37  S   UNL     1      -0.569  11.862  18.431  0.00  0.00    -0.077 S 
BRANCH  37  38
ATOM     38  C   UNL     1       0.758  12.858  18.921  0.00  0.00    +0.204 A 
ATOM     39  N   UNL     1       1.962  12.416  19.234  0.00  0.00    -0.208 NA
ATOM     40  C   UNL     1       2.652  13.574  19.465  0.00  0.00    +0.141 A 
ATOM     41  N   UNL     1       1.956  14.699  19.330  0.00  0.00    -0.142 NA
ATOM     42  N   UNL     1       0.749  14.223  18.969  0.00  0.00    -0.145 N 
ATOM     43 CL   UNL     1      -0.616  15.265  18.827  0.00  0.00    +0.040 Cl
ATOM     44  H   UNL     1       3.696  13.593  19.750  0.00  0.00    +0.107 HD
ENDBRANCH  37  38
ENDBRANCH  31  37
ENDBRANCH   1  31
TORSDOF 6
ENDMDL
MODEL 22
REMARK VINA RESULT:    -7.364      2.525      4.001
REMARK INTER + INTRA:         -10.106
REMARK INTER:                  -9.620
REMARK INTRA:                  -0.487
REMARK UNBOUND:                -0.375
REMARK  Name = 
REMARK  6 active torsions:
REMARK  status: ('A' for Active; 'I' for Inactive)
REMARK    1  A    between atoms: C_1  and  C_2
REMARK    2  A    between atoms: C_2  and  C_3
REMARK    3  A    between atoms: C_2  and  S_22
REMARK    4  A    between atoms: C_5  and  N_9
REMARK    5  A    between atoms: C_10  and  C_12
REMARK    6  A    between atoms: S_22  and  C_23
REMARK                            x       y       z     vdW  Elec       q    Type
REMARK                         _______ _______ _______ _____ _____    ______ ____
ROOT
ATOM      1  C   UNL     1       1.627   7.589  19.967  0.00  0.00    -0.033 A 
ATOM      2  C   UNL     1       2.651   7.300  19.046  0.00  0.00    -0.036 A 
ATOM      3  C   UNL     1       3.218   6.021  18.964  0.00  0.00    +0.034 A 
ATOM      4  C   UNL     1       2.798   5.036  19.851  0.00  0.00    -0.040 A 
ATOM      5  C   UNL     1       1.823   5.319  20.807  0.00  0.00    -0.060 A 
ATOM      6  C   UNL     1       1.237   6.584  20.862  0.00  0.00    -0.057 A 
ATOM      7  H   UNL     1       2.960   8.062  18.334  0.00  0.00    +0.064 HD
ATOM      8  H   UNL     1       3.217   4.034  19.822  0.00  0.00    +0.064 HD
ATOM      9  H   UNL     1       1.496   4.534  21.492  0.00  0.00    +0.062 HD
ATOM     10  H   UNL     1       0.452   6.757  21.593  0.00  0.00    +0.062 HD
ENDROOT
BRANCH   3  11
ATOM     11  N   UNL     1       4.162   5.806  17.947  0.00  0.00    -0.280 N 
ATOM     12  C   UNL     1       5.245   4.954  17.969  0.00  0.00    +0.267 C 
ATOM     13  O   UNL     1       5.642   4.278  18.913  0.00  0.00    -0.268 OA
ATOM     14  H   UNL     1       3.957   6.171  17.023  0.00  0.00    +0.155 HD
BRANCH  12  15
ATOM     15  C   UNL     1       5.895   4.828  16.620  0.00  0.00    +0.126 A 
ATOM     16  C   UNL     1       5.260   4.111  15.609  0.00  0.00    -0.023 A 
ATOM     17  C   UNL     1       5.832   4.112  14.331  0.00  0.00    -0.014 A 
ATOM     18  C   UNL     1       5.236   3.433  13.251  0.00  0.00    -0.054 A 
ATOM     19  C   UNL     1       5.817   3.472  11.981  0.00  0.00    -0.061 A 
ATOM     20  C   UNL     1       6.997   4.185  11.771  0.00  0.00    -0.061 A 
ATOM     21  C   UNL     1       7.607   4.848  12.833  0.00  0.00    -0.053 A 
ATOM     22  C   UNL     1       7.031   4.826  14.115  0.00  0.00    +0.000 A 
ATOM     23  C   UNL     1       7.591   5.493  15.208  0.00  0.00    +0.036 A 
ATOM     24  N   UNL     1       7.052   5.527  16.448  0.00  0.00    -0.250 NA
ATOM     25  H   UNL     1       4.328   3.600  15.812  0.00  0.00    +0.065 HD
ATOM     26  H   UNL     1       4.318   2.867  13.393  0.00  0.00    +0.062 HD
ATOM     27  H   UNL     1       5.346   2.945  11.155  0.00  0.00    +0.062 HD
ATOM     28  H   UNL     1       7.446   4.216  10.781  0.00  0.00    +0.062 HD
ATOM     29  H   UNL     1       8.537   5.386  12.654  0.00  0.00    +0.062 HD
ATOM     30  H   UNL     1       8.515   6.054  15.104  0.00  0.00    +0.084 HD
ENDBRANCH  12  15
ENDBRANCH   3  11
BRANCH   1  31
ATOM     31  C   UNL     1       0.882   8.909  19.943  0.00  0.00    +0.035 C 
ATOM     32  H   UNL     1      -0.184   8.709  19.771  0.00  0.00    +0.046 HD
BRANCH  31  33
ATOM     33  C   UNL     1       0.989   9.686  21.253  0.00  0.00    -0.049 C 
ATOM     34  H   UNL     1       1.776  10.443  21.188  0.00  0.00    +0.024 HD
ATOM     35  H   UNL     1       0.062  10.203  21.513  0.00  0.00    +0.024 HD
ATOM     36  H   UNL     1       1.249   9.023  22.087  0.00  0.00    +0.024 HD
ENDBRANCH  31  33
BRANCH  31  37
ATOM     37  S   UNL     1       1.529   9.953  18.569  0.00  0.00    -0.077 S 
BRANCH  37  38
ATOM     38  C   UNL     1       0.613  11.404  18.789  0.00  0.00    +0.204 A 
ATOM     39  N   UNL     1       1.115  12.567  19.160  0.00  0.00    -0.208 NA
ATOM     40  C   UNL     1       0.023  13.391  19.109  0.00  0.00    +0.141 A 
ATOM     41  N   UNL     1      -1.119  12.815  18.748  0.00  0.00    -0.142 NA
ATOM     42  N   UNL     1      -0.721  11.545  18.534  0.00  0.00    -0.145 N 
ATOM     43 CL   UNL     1      -1.860  10.296  18.202  0.00  0.00    +0.040 Cl
ATOM     44  H   UNL     1       0.065  14.443  19.354  0.00  0.00    +0.107 HD
ENDBRANCH  37  38
ENDBRANCH  31  37
ENDBRANCH   1  31
TORSDOF 6
ENDMDL
MODEL 23
REMARK VINA RESULT:    -7.324      3.711      5.139
REMARK INTER + INTRA:         -10.053
REMARK INTER:                  -9.522
REMARK INTRA:                  -0.531
REMARK UNBOUND:                -0.375
REMARK  Name = 
REMARK  6 active torsions:
REMARK  status: ('A' for Active; 'I' for Inactive)
REMARK    1  A    between atoms: C_1  and  C_2
REMARK    2  A    between atoms: C_2  and  C_3
REMARK    3  A    between atoms: C_2  and  S_22
REMARK    4  A    between atoms: C_5  and  N_9
REMARK    5  A    between atoms: C_10  and  C_12
REMARK    6  A    between atoms: S_22  and  C_23
REMARK                            x       y       z     vdW  Elec       q    Type
REMARK                         _______ _______ _______ _____ _____    ______ ____
ROOT
ATOM      1  C   UNL     1      -0.679  12.402  19.841  0.00  0.00    -0.033 A 
ATOM      2  C   UNL     1      -0.198  11.086  19.718  0.00  0.00    -0.036 A 
ATOM      3  C   UNL     1       1.026  10.813  19.093  0.00  0.00    +0.034 A 
ATOM      4  C   UNL     1       1.749  11.861  18.533  0.00  0.00    -0.040 A 
ATOM      5  C   UNL     1       1.261  13.166  18.598  0.00  0.00    -0.060 A 
ATOM      6  C   UNL     1       0.059  13.437  19.252  0.00  0.00    -0.057 A 
ATOM      7  H   UNL     1      -0.749  10.269  20.180  0.00  0.00    +0.064 HD
ATOM      8  H   UNL     1       2.700  11.689  18.036  0.00  0.00    +0.064 HD
ATOM      9  H   UNL     1       1.843  13.980  18.162  0.00  0.00    +0.062 HD
ATOM     10  H   UNL     1      -0.271  14.470  19.318  0.00  0.00    +0.062 HD
ENDROOT
BRANCH   3  11
ATOM     11  N   UNL     1       1.467   9.480  19.108  0.00  0.00    -0.280 N 
ATOM     12  C   UNL     1       1.593   8.645  20.199  0.00  0.00    +0.267 C 
ATOM     13  O   UNL     1       1.421   8.933  21.379  0.00  0.00    -0.268 OA
ATOM     14  H   UNL     1       1.546   8.995  18.220  0.00  0.00    +0.155 HD
BRANCH  12  15
ATOM     15  C   UNL     1       1.880   7.227  19.796  0.00  0.00    +0.126 A 
ATOM     16  C   UNL     1       1.567   6.184  20.664  0.00  0.00    -0.023 A 
ATOM     17  C   UNL     1       1.736   4.868  20.213  0.00  0.00    -0.014 A 
ATOM     18  C   UNL     1       1.417   3.761  21.021  0.00  0.00    -0.054 A 
ATOM     19  C   UNL     1       1.573   2.460  20.536  0.00  0.00    -0.061 A 
ATOM     20  C   UNL     1       2.050   2.246  19.244  0.00  0.00    -0.061 A 
ATOM     21  C   UNL     1       2.386   3.332  18.438  0.00  0.00    -0.053 A 
ATOM     22  C   UNL     1       2.226   4.647  18.908  0.00  0.00    +0.000 A 
ATOM     23  C   UNL     1       2.528   5.770  18.132  0.00  0.00    +0.036 A 
ATOM     24  N   UNL     1       2.356   7.051  18.532  0.00  0.00    -0.250 NA
ATOM     25  H   UNL     1       1.168   6.398  21.647  0.00  0.00    +0.065 HD
ATOM     26  H   UNL     1       1.047   3.904  22.034  0.00  0.00    +0.062 HD
ATOM     27  H   UNL     1       1.321   1.613  21.169  0.00  0.00    +0.062 HD
ATOM     28  H   UNL     1       2.168   1.233  18.866  0.00  0.00    +0.062 HD
ATOM     29  H   UNL     1       2.773   3.145  17.437  0.00  0.00    +0.062 HD
ATOM     30  H   UNL     1       2.913   5.662  17.122  0.00  0.00    +0.084 HD
ENDBRANCH  12  15
ENDBRANCH   3  11
BRANCH   1  31
ATOM     31  C   UNL     1      -1.905  12.728  20.672  0.00  0.00    +0.035 C 
ATOM     32  H   UNL     1      -1.941  13.813  20.837  0.00  0.00    +0.046 HD
BRANCH  31  33
ATOM     33  C   UNL     1      -3.215  12.331  19.995  0.00  0.00    -0.049 C 
ATOM     34  H   UNL     1      -3.940  13.148  20.048  0.00  0.00    +0.024 HD
ATOM     35  H   UNL     1      -3.085  12.081  18.939  0.00  0.00    +0.024 HD
ATOM     36  H   UNL     1      -3.670  11.465  20.491  0.00  0.00    +0.024 HD
ENDBRANCH  31  33
BRANCH  31  37
ATOM     37  S   UNL     1      -1.787  11.874  22.301  0.00  0.00    -0.077 S 
BRANCH  37  38
ATOM     38  C   UNL     1      -1.962  13.204  23.393  0.00  0.00    +0.204 A 
ATOM     39  N   UNL     1      -1.094  14.189  23.532  0.00  0.00    -0.208 NA
ATOM     40  C   UNL     1      -1.717  15.007  24.434  0.00  0.00    +0.141 A 
ATOM     41  N   UNL     1      -2.900  14.590  24.872  0.00  0.00    -0.142 NA
ATOM     42  N   UNL     1      -3.048  13.440  24.186  0.00  0.00    -0.145 N 
ATOM     43 CL   UNL     1      -4.363  12.373  24.503  0.00  0.00    +0.040 Cl
ATOM     44  H   UNL     1      -1.285  15.933  24.788  0.00  0.00    +0.107 HD
ENDBRANCH  37  38
ENDBRANCH  31  37
ENDBRANCH   1  31
TORSDOF 6
ENDMDL
MODEL 24
REMARK VINA RESULT:    -7.296      2.621      3.611
REMARK INTER + INTRA:         -10.016
REMARK INTER:                  -9.422
REMARK INTRA:                  -0.594
REMARK UNBOUND:                -0.375
REMARK  Name = 
REMARK  6 active torsions:
REMARK  status: ('A' for Active; 'I' for Inactive)
REMARK    1  A    between atoms: C_1  and  C_2
REMARK    2  A    between atoms: C_2  and  C_3
REMARK    3  A    between atoms: C_2  and  S_22
REMARK    4  A    between atoms: C_5  and  N_9
REMARK    5  A    between atoms: C_10  and  C_12
REMARK    6  A    between atoms: S_22  and  C_23
REMARK                            x       y       z     vdW  Elec       q    Type
REMARK                         _______ _______ _______ _____ _____    ______ ____
ROOT
ATOM      1  C   UNL     1       0.259  12.268  21.542  0.00  0.00    -0.033 A 
ATOM      2  C   UNL     1       0.848  11.048  21.163  0.00  0.00    -0.036 A 
ATOM      3  C   UNL     1       0.379   9.826  21.664  0.00  0.00    +0.034 A 
ATOM      4  C   UNL     1      -0.651   9.827  22.599  0.00  0.00    -0.040 A 
ATOM      5  C   UNL     1      -1.211  11.031  23.027  0.00  0.00    -0.060 A 
ATOM      6  C   UNL     1      -0.764  12.243  22.499  0.00  0.00    -0.057 A 
ATOM      7  H   UNL     1       1.634  11.044  20.411  0.00  0.00    +0.064 HD
ATOM      8  H   UNL     1      -1.038   8.901  23.014  0.00  0.00    +0.064 HD
ATOM      9  H   UNL     1      -2.024  11.017  23.755  0.00  0.00    +0.062 HD
ATOM     10  H   UNL     1      -1.249  13.158  22.826  0.00  0.00    +0.062 HD
ENDROOT
BRANCH   3  11
ATOM     11  N   UNL     1       0.966   8.658  21.150  0.00  0.00    -0.280 N 
ATOM     12  C   UNL     1       1.406   8.431  19.863  0.00  0.00    +0.267 C 
ATOM     13  O   UNL     1       1.294   9.179  18.896  0.00  0.00    -0.268 OA
ATOM     14  H   UNL     1       1.270   7.949  21.809  0.00  0.00    +0.155 HD
BRANCH  12  15
ATOM     15  C   UNL     1       2.177   7.148  19.746  0.00  0.00    +0.126 A 
ATOM     16  C   UNL     1       1.895   6.088  20.603  0.00  0.00    -0.023 A 
ATOM     17  C   UNL     1       2.547   4.867  20.392  0.00  0.00    -0.014 A 
ATOM     18  C   UNL     1       2.295   3.742  21.200  0.00  0.00    -0.054 A 
ATOM     19  C   UNL     1       2.943   2.530  20.949  0.00  0.00    -0.061 A 
ATOM     20  C   UNL     1       3.850   2.424  19.896  0.00  0.00    -0.061 A 
ATOM     21  C   UNL     1       4.122   3.532  19.098  0.00  0.00    -0.053 A 
ATOM     22  C   UNL     1       3.472   4.756  19.330  0.00  0.00    +0.000 A 
ATOM     23  C   UNL     1       3.693   5.892  18.546  0.00  0.00    +0.036 A 
ATOM     24  N   UNL     1       3.063   7.078  18.713  0.00  0.00    -0.250 NA
ATOM     25  H   UNL     1       1.158   6.208  21.388  0.00  0.00    +0.065 HD
ATOM     26  H   UNL     1       1.595   3.803  22.030  0.00  0.00    +0.062 HD
ATOM     27  H   UNL     1       2.739   1.668  21.580  0.00  0.00    +0.062 HD
ATOM     28  H   UNL     1       4.351   1.478  19.701  0.00  0.00    +0.062 HD
ATOM     29  H   UNL     1       4.846   3.435  18.289  0.00  0.00    +0.062 HD
ATOM     30  H   UNL     1       4.397   5.869  17.719  0.00  0.00    +0.084 HD
ENDBRANCH  12  15
ENDBRANCH   3  11
BRANCH   1  31
ATOM     31  C   UNL     1       0.632  13.575  20.871  0.00  0.00    +0.035 C 
ATOM     32  H   UNL     1       0.977  14.280  21.639  0.00  0.00    +0.046 HD
BRANCH  31  33
ATOM     33  C   UNL     1       1.762  13.430  19.854  0.00  0.00    -0.049 C 
ATOM     34  H   UNL     1       1.894  12.382  19.570  0.00  0.00    +0.024 HD
ATOM     35  H   UNL     1       1.578  13.994  18.936  0.00  0.00    +0.024 HD
ATOM     36  H   UNL     1       2.717  13.772  20.271  0.00  0.00    +0.024 HD
ENDBRANCH  31  33
BRANCH  31  37
ATOM     37  S   UNL     1      -0.848  14.277  20.028  0.00  0.00    -0.077 S 
BRANCH  37  38
ATOM     38  C   UNL     1      -1.396  12.911  19.118  0.00  0.00    +0.204 A 
ATOM     39  N   UNL     1      -0.751  12.371  18.102  0.00  0.00    -0.208 NA
ATOM     40  C   UNL     1      -1.539  11.297  17.788  0.00  0.00    +0.141 A 
ATOM     41  N   UNL     1      -2.632  11.146  18.529  0.00  0.00    -0.142 NA
ATOM     42  N   UNL     1      -2.519  12.180  19.384  0.00  0.00    -0.145 N 
ATOM     43 CL   UNL     1      -3.785  12.573  20.485  0.00  0.00    +0.040 Cl
ATOM     44  H   UNL     1      -1.309  10.610  16.984  0.00  0.00    +0.107 HD
ENDBRANCH  37  38
ENDBRANCH  31  37
ENDBRANCH   1  31
TORSDOF 6
ENDMDL
MODEL 25
REMARK VINA RESULT:    -7.252      2.420      3.506
REMARK INTER + INTRA:          -9.958
REMARK INTER:                  -9.028
REMARK INTRA:                  -0.930
REMARK UNBOUND:                -0.375
REMARK  Name = 
REMARK  6 active torsions:
REMARK  status: ('A' for Active; 'I' for Inactive)
REMARK    1  A    between atoms: C_1  and  C_2
REMARK    2  A    between atoms: C_2  and  C_3
REMARK    3  A    between atoms: C_2  and  S_22
REMARK    4  A    between atoms: C_5  and  N_9
REMARK    5  A    between atoms: C_10  and  C_12
REMARK    6  A    between atoms: S_22  and  C_23
REMARK                            x       y       z     vdW  Elec       q    Type
REMARK                         _______ _______ _______ _____ _____    ______ ____
ROOT
ATOM      1  C   UNL     1      -1.223  12.010  21.047  0.00  0.00    -0.033 A 
ATOM      2  C   UNL     1      -0.647  10.808  20.598  0.00  0.00    -0.036 A 
ATOM      3  C   UNL     1       0.732  10.702  20.368  0.00  0.00    +0.034 A 
ATOM      4  C   UNL     1       1.534  11.825  20.533  0.00  0.00    -0.040 A 
ATOM      5  C   UNL     1       0.972  13.040  20.925  0.00  0.00    -0.060 A 
ATOM      6  C   UNL     1      -0.396  13.132  21.186  0.00  0.00    -0.057 A 
ATOM      7  H   UNL     1      -1.269   9.922  20.496  0.00  0.00    +0.064 HD
ATOM      8  H   UNL     1       2.606  11.784  20.359  0.00  0.00    +0.064 HD
ATOM      9  H   UNL     1       1.615  13.913  21.059  0.00  0.00    +0.062 HD
ATOM     10  H   UNL     1      -0.792  14.083  21.528  0.00  0.00    +0.062 HD
ENDROOT
BRANCH   3  11
ATOM     11  N   UNL     1       1.224   9.434  20.018  0.00  0.00    -0.280 N 
ATOM     12  C   UNL     1       1.542   8.391  20.861  0.00  0.00    +0.267 C 
ATOM     13  O   UNL     1       1.534   8.396  22.088  0.00  0.00    -0.268 OA
ATOM     14  H   UNL     1       1.192   9.165  19.040  0.00  0.00    +0.155 HD
BRANCH  12  15
ATOM     15  C   UNL     1       1.826   7.121  20.109  0.00  0.00    +0.126 A 
ATOM     16  C   UNL     1       1.450   5.896  20.652  0.00  0.00    -0.023 A 
ATOM     17  C   UNL     1       1.619   4.742  19.876  0.00  0.00    -0.014 A 
ATOM     18  C   UNL     1       1.239   3.470  20.344  0.00  0.00    -0.054 A 
ATOM     19  C   UNL     1       1.398   2.341  19.538  0.00  0.00    -0.061 A 
ATOM     20  C   UNL     1       1.938   2.463  18.259  0.00  0.00    -0.061 A 
ATOM     21  C   UNL     1       2.334   3.712  17.787  0.00  0.00    -0.053 A 
ATOM     22  C   UNL     1       2.172   4.860  18.582  0.00  0.00    +0.000 A 
ATOM     23  C   UNL     1       2.533   6.138  18.148  0.00  0.00    +0.036 A 
ATOM     24  N   UNL     1       2.363   7.272  18.866  0.00  0.00    -0.250 NA
ATOM     25  H   UNL     1       1.004   5.854  21.638  0.00  0.00    +0.065 HD
ATOM     26  H   UNL     1       0.820   3.351  21.341  0.00  0.00    +0.062 HD
ATOM     27  H   UNL     1       1.099   1.364  19.911  0.00  0.00    +0.062 HD
ATOM     28  H   UNL     1       2.058   1.582  17.631  0.00  0.00    +0.062 HD
ATOM     29  H   UNL     1       2.769   3.786  16.791  0.00  0.00    +0.062 HD
ATOM     30  H   UNL     1       2.968   6.290  17.164  0.00  0.00    +0.084 HD
ENDBRANCH  12  15
ENDBRANCH   3  11
BRANCH   1  31
ATOM     31  C   UNL     1      -2.676  12.087  21.474  0.00  0.00    +0.035 C 
ATOM     32  H   UNL     1      -3.098  11.074  21.474  0.00  0.00    +0.046 HD
BRANCH  31  33
ATOM     33  C   UNL     1      -2.862  12.653  22.881  0.00  0.00    -0.049 C 
ATOM     34  H   UNL     1      -2.234  12.117  23.598  0.00  0.00    +0.024 HD
ATOM     35  H   UNL     1      -2.600  13.712  22.947  0.00  0.00    +0.024 HD
ATOM     36  H   UNL     1      -3.900  12.543  23.217  0.00  0.00    +0.024 HD
ENDBRANCH  31  33
BRANCH  31  37
ATOM     37  S   UNL     1      -3.612  13.131  20.278  0.00  0.00    -0.077 S 
BRANCH  37  38
ATOM     38  C   UNL     1      -3.811  12.033  18.956  0.00  0.00    +0.204 A 
ATOM     39  N   UNL     1      -4.873  11.275  18.755  0.00  0.00    -0.208 NA
ATOM     40  C   UNL     1      -4.582  10.668  17.564  0.00  0.00    +0.141 A 
ATOM     41  N   UNL     1      -3.410  10.987  17.023  0.00  0.00    -0.142 NA
ATOM     42  N   UNL     1      -2.934  11.872  17.921  0.00  0.00    -0.145 N 
ATOM     43 CL   UNL     1      -1.332  12.492  17.803  0.00  0.00    +0.040 Cl
ATOM     44  H   UNL     1      -5.245   9.963  17.082  0.00  0.00    +0.107 HD
ENDBRANCH  37  38
ENDBRANCH  31  37
ENDBRANCH   1  31
TORSDOF 6
ENDMDL
MODEL 26
REMARK VINA RESULT:    -7.251      3.328      4.622
REMARK INTER + INTRA:          -9.957
REMARK INTER:                  -9.104
REMARK INTRA:                  -0.853
REMARK UNBOUND:                -0.375
REMARK  Name = 
REMARK  6 active torsions:
REMARK  status: ('A' for Active; 'I' for Inactive)
REMARK    1  A    between atoms: C_1  and  C_2
REMARK    2  A    between atoms: C_2  and  C_3
REMARK    3  A    between atoms: C_2  and  S_22
REMARK    4  A    between atoms: C_5  and  N_9
REMARK    5  A    between atoms: C_10  and  C_12
REMARK    6  A    between atoms: S_22  and  C_23
REMARK                            x       y       z     vdW  Elec       q    Type
REMARK                         _______ _______ _______ _____ _____    ______ ____
ROOT
ATOM      1  C   UNL     1      -0.371  12.380  18.593  0.00  0.00    -0.033 A 
ATOM      2  C   UNL     1       0.082  11.049  18.621  0.00  0.00    -0.036 A 
ATOM      3  C   UNL     1       1.446  10.741  18.518  0.00  0.00    +0.034 A 
ATOM      4  C   UNL     1       2.361  11.770  18.327  0.00  0.00    -0.040 A 
ATOM      5  C   UNL     1       1.924  13.093  18.243  0.00  0.00    -0.060 A 
ATOM      6  C   UNL     1       0.569  13.397  18.380  0.00  0.00    -0.057 A 
ATOM      7  H   UNL     1      -0.629  10.245  18.798  0.00  0.00    +0.064 HD
ATOM      8  H   UNL     1       3.425  11.572  18.238  0.00  0.00    +0.064 HD
ATOM      9  H   UNL     1       2.653  13.893  18.101  0.00  0.00    +0.062 HD
ATOM     10  H   UNL     1       0.270  14.441  18.349  0.00  0.00    +0.062 HD
ENDROOT
BRANCH   3  11
ATOM     11  N   UNL     1       1.807   9.391  18.656  0.00  0.00    -0.280 N 
ATOM     12  C   UNL     1       1.725   8.608  19.788  0.00  0.00    +0.267 C 
ATOM     13  O   UNL     1       1.398   8.962  20.917  0.00  0.00    -0.268 OA
ATOM     14  H   UNL     1       1.989   8.859  17.812  0.00  0.00    +0.155 HD
BRANCH  12  15
ATOM     15  C   UNL     1       1.992   7.158  19.495  0.00  0.00    +0.126 A 
ATOM     16  C   UNL     1       1.625   6.186  20.421  0.00  0.00    -0.023 A 
ATOM     17  C   UNL     1       1.777   4.838  20.069  0.00  0.00    -0.014 A 
ATOM     18  C   UNL     1       1.406   3.797  20.940  0.00  0.00    -0.054 A 
ATOM     19  C   UNL     1       1.547   2.463  20.551  0.00  0.00    -0.061 A 
ATOM     20  C   UNL     1       2.060   2.149  19.294  0.00  0.00    -0.061 A 
ATOM     21  C   UNL     1       2.448   3.168  18.427  0.00  0.00    -0.053 A 
ATOM     22  C   UNL     1       2.304   4.516  18.799  0.00  0.00    +0.000 A 
ATOM     23  C   UNL     1       2.658   5.575  17.958  0.00  0.00    +0.036 A 
ATOM     24  N   UNL     1       2.504   6.884  18.263  0.00  0.00    -0.250 NA
ATOM     25  H   UNL     1       1.200   6.477  21.373  0.00  0.00    +0.065 HD
ATOM     26  H   UNL     1       1.006   4.019  21.927  0.00  0.00    +0.062 HD
ATOM     27  H   UNL     1       1.254   1.668  21.233  0.00  0.00    +0.062 HD
ATOM     28  H   UNL     1       2.167   1.110  18.992  0.00  0.00    +0.062 HD
ATOM     29  H   UNL     1       2.863   2.904  17.455  0.00  0.00    +0.062 HD
ATOM     30  H   UNL     1       3.073   5.388  16.973  0.00  0.00    +0.084 HD
ENDBRANCH  12  15
ENDBRANCH   3  11
BRANCH   1  31
ATOM     31  C   UNL     1      -1.815  12.737  18.886  0.00  0.00    +0.035 C 
ATOM     32  H   UNL     1      -2.222  13.291  18.029  0.00  0.00    +0.046 HD
BRANCH  31  33
ATOM     33  C   UNL     1      -2.707  11.515  19.098  0.00  0.00    -0.049 C 
ATOM     34  H   UNL     1      -3.198  11.230  18.164  0.00  0.00    +0.024 HD
ATOM     35  H   UNL     1      -2.150  10.644  19.452  0.00  0.00    +0.024 HD
ATOM     36  H   UNL     1      -3.499  11.726  19.827  0.00  0.00    +0.024 HD
ENDBRANCH  31  33
BRANCH  31  37
ATOM     37  S   UNL     1      -1.891  13.804  20.386  0.00  0.00    -0.077 S 
BRANCH  37  38
ATOM     38  C   UNL     1      -1.758  12.625  21.645  0.00  0.00    +0.204 A 
ATOM     39  N   UNL     1      -0.657  11.965  21.951  0.00  0.00    -0.208 NA
ATOM     40  C   UNL     1      -1.044  11.233  23.041  0.00  0.00    +0.141 A 
ATOM     41  N   UNL     1      -2.309  11.384  23.420  0.00  0.00    -0.142 NA
ATOM     42  N   UNL     1      -2.749  12.288  22.523  0.00  0.00    -0.145 N 
ATOM     43 CL   UNL     1      -4.412  12.730  22.441  0.00  0.00    +0.040 Cl
ATOM     44  H   UNL     1      -0.380  10.561  23.568  0.00  0.00    +0.107 HD
ENDBRANCH  37  38
ENDBRANCH  31  37
ENDBRANCH   1  31
TORSDOF 6
ENDMDL
MODEL 27
REMARK VINA RESULT:    -7.162      3.885      8.787
REMARK INTER + INTRA:          -9.840
REMARK INTER:                  -9.412
REMARK INTRA:                  -0.428
REMARK UNBOUND:                -0.375
REMARK  Name = 
REMARK  6 active torsions:
REMARK  status: ('A' for Active; 'I' for Inactive)
REMARK    1  A    between atoms: C_1  and  C_2
REMARK    2  A    between atoms: C_2  and  C_3
REMARK    3  A    between atoms: C_2  and  S_22
REMARK    4  A    between atoms: C_5  and  N_9
REMARK    5  A    between atoms: C_10  and  C_12
REMARK    6  A    between atoms: S_22  and  C_23
REMARK                            x       y       z     vdW  Elec       q    Type
REMARK                         _______ _______ _______ _____ _____    ______ ____
ROOT
ATOM      1  C   UNL     1       3.225   3.637  19.341  0.00  0.00    -0.033 A 
ATOM      2  C   UNL     1       2.962   5.011  19.192  0.00  0.00    -0.036 A 
ATOM      3  C   UNL     1       2.223   5.719  20.150  0.00  0.00    +0.034 A 
ATOM      4  C   UNL     1       1.693   5.036  21.238  0.00  0.00    -0.040 A 
ATOM      5  C   UNL     1       1.899   3.662  21.375  0.00  0.00    -0.060 A 
ATOM      6  C   UNL     1       2.664   2.968  20.436  0.00  0.00    -0.057 A 
ATOM      7  H   UNL     1       3.399   5.552  18.356  0.00  0.00    +0.064 HD
ATOM      8  H   UNL     1       1.112   5.548  21.999  0.00  0.00    +0.064 HD
ATOM      9  H   UNL     1       1.484   3.139  22.239  0.00  0.00    +0.062 HD
ATOM     10  H   UNL     1       2.836   1.908  20.596  0.00  0.00    +0.062 HD
ENDROOT
BRANCH   3  11
ATOM     11  N   UNL     1       2.099   7.105  19.962  0.00  0.00    -0.280 N 
ATOM     12  C   UNL     1       2.035   7.792  18.768  0.00  0.00    +0.267 C 
ATOM     13  O   UNL     1       2.158   7.331  17.637  0.00  0.00    -0.268 OA
ATOM     14  H   UNL     1       1.855   7.674  20.765  0.00  0.00    +0.155 HD
BRANCH  12  15
ATOM     15  C   UNL     1       1.679   9.238  18.964  0.00  0.00    +0.126 A 
ATOM     16  C   UNL     1       0.950   9.626  20.084  0.00  0.00    -0.023 A 
ATOM     17  C   UNL     1       0.737  10.994  20.300  0.00  0.00    -0.014 A 
ATOM     18  C   UNL     1       0.032  11.466  21.424  0.00  0.00    -0.054 A 
ATOM     19  C   UNL     1      -0.143  12.837  21.625  0.00  0.00    -0.061 A 
ATOM     20  C   UNL     1       0.376  13.753  20.712  0.00  0.00    -0.061 A 
ATOM     21  C   UNL     1       1.061  13.301  19.587  0.00  0.00    -0.053 A 
ATOM     22  C   UNL     1       1.255  11.925  19.374  0.00  0.00    +0.000 A 
ATOM     23  C   UNL     1       1.954  11.420  18.273  0.00  0.00    +0.036 A 
ATOM     24  N   UNL     1       2.193  10.108  18.049  0.00  0.00    -0.250 NA
ATOM     25  H   UNL     1       0.594   8.881  20.784  0.00  0.00    +0.065 HD
ATOM     26  H   UNL     1      -0.385  10.770  22.147  0.00  0.00    +0.062 HD
ATOM     27  H   UNL     1      -0.688  13.190  22.498  0.00  0.00    +0.062 HD
ATOM     28  H   UNL     1       0.241  14.820  20.872  0.00  0.00    +0.062 HD
ATOM     29  H   UNL     1       1.447  14.030  18.875  0.00  0.00    +0.062 HD
ATOM     30  H   UNL     1       2.371  12.088  17.525  0.00  0.00    +0.084 HD
ENDBRANCH  12  15
ENDBRANCH   3  11
BRANCH   1  31
ATOM     31  C   UNL     1       4.172   2.902  18.413  0.00  0.00    +0.035 C 
ATOM     32  H   UNL     1       5.153   2.821  18.900  0.00  0.00    +0.046 HD
BRANCH  31  33
ATOM     33  C   UNL     1       3.713   1.482  18.085  0.00  0.00    -0.049 C 
ATOM     34  H   UNL     1       4.544   0.889  17.691  0.00  0.00    +0.024 HD
ATOM     35  H   UNL     1       3.323   0.953  18.958  0.00  0.00    +0.024 HD
ATOM     36  H   UNL     1       2.929   1.487  17.318  0.00  0.00    +0.024 HD
ENDBRANCH  31  33
BRANCH  31  37
ATOM     37  S   UNL     1       4.353   3.851  16.844  0.00  0.00    -0.077 S 
BRANCH  37  38
ATOM     38  C   UNL     1       5.730   4.835  17.203  0.00  0.00    +0.204 A 
ATOM     39  N   UNL     1       6.681   4.523  18.064  0.00  0.00    -0.208 NA
ATOM     40  C   UNL     1       7.559   5.563  17.926  0.00  0.00    +0.141 A 
ATOM     41  N   UNL     1       7.210   6.502  17.052  0.00  0.00    -0.142 NA
ATOM     42  N   UNL     1       6.043   6.015  16.589  0.00  0.00    -0.145 N 
ATOM     43 CL   UNL     1       5.046   6.938  15.529  0.00  0.00    +0.040 Cl
ATOM     44  H   UNL     1       8.478   5.639  18.491  0.00  0.00    +0.107 HD
ENDBRANCH  37  38
ENDBRANCH  31  37
ENDBRANCH   1  31
TORSDOF 6
ENDMDL
MODEL 28
REMARK VINA RESULT:    -7.095      3.957      8.871
REMARK INTER + INTRA:          -9.751
REMARK INTER:                  -9.376
REMARK INTRA:                  -0.375
REMARK UNBOUND:                -0.375
REMARK  Name = 
REMARK  6 active torsions:
REMARK  status: ('A' for Active; 'I' for Inactive)
REMARK    1  A    between atoms: C_1  and  C_2
REMARK    2  A    between atoms: C_2  and  C_3
REMARK    3  A    between atoms: C_2  and  S_22
REMARK    4  A    between atoms: C_5  and  N_9
REMARK    5  A    between atoms: C_10  and  C_12
REMARK    6  A    between atoms: S_22  and  C_23
REMARK                            x       y       z     vdW  Elec       q    Type
REMARK                         _______ _______ _______ _____ _____    ______ ____
ROOT
ATOM      1  C   UNL     1       3.421   4.908  18.963  0.00  0.00    -0.033 A 
ATOM      2  C   UNL     1       3.022   6.253  18.857  0.00  0.00    -0.036 A 
ATOM      3  C   UNL     1       2.142   6.827  19.785  0.00  0.00    +0.034 A 
ATOM      4  C   UNL     1       1.611   6.033  20.796  0.00  0.00    -0.040 A 
ATOM      5  C   UNL     1       1.953   4.683  20.884  0.00  0.00    -0.060 A 
ATOM      6  C   UNL     1       2.856   4.125  19.978  0.00  0.00    -0.057 A 
ATOM      7  H   UNL     1       3.458   6.881  18.084  0.00  0.00    +0.064 HD
ATOM      8  H   UNL     1       0.922   6.440  21.531  0.00  0.00    +0.064 HD
ATOM      9  H   UNL     1       1.535   4.073  21.687  0.00  0.00    +0.062 HD
ATOM     10  H   UNL     1       3.130   3.081  20.101  0.00  0.00    +0.062 HD
ENDROOT
BRANCH   3  11
ATOM     11  N   UNL     1       1.882   8.200  19.652  0.00  0.00    -0.280 N 
ATOM     12  C   UNL     1       1.745   8.924  18.487  0.00  0.00    +0.267 C 
ATOM     13  O   UNL     1       1.905   8.522  17.338  0.00  0.00    -0.268 OA
ATOM     14  H   UNL     1       1.589   8.711  20.479  0.00  0.00    +0.155 HD
BRANCH  12  15
ATOM     15  C   UNL     1       1.251  10.320  18.741  0.00  0.00    +0.126 A 
ATOM     16  C   UNL     1       2.093  11.405  18.513  0.00  0.00    -0.023 A 
ATOM     17  C   UNL     1       1.567  12.696  18.644  0.00  0.00    -0.014 A 
ATOM     18  C   UNL     1       2.348  13.843  18.405  0.00  0.00    -0.054 A 
ATOM     19  C   UNL     1       1.788  15.118  18.521  0.00  0.00    -0.061 A 
ATOM     20  C   UNL     1       0.449  15.267  18.877  0.00  0.00    -0.061 A 
ATOM     21  C   UNL     1      -0.332  14.143  19.133  0.00  0.00    -0.053 A 
ATOM     22  C   UNL     1       0.213  12.852  19.012  0.00  0.00    +0.000 A 
ATOM     23  C   UNL     1      -0.533  11.692  19.237  0.00  0.00    +0.036 A 
ATOM     24  N   UNL     1      -0.059  10.432  19.098  0.00  0.00    -0.250 NA
ATOM     25  H   UNL     1       3.118  11.239  18.206  0.00  0.00    +0.065 HD
ATOM     26  H   UNL     1       3.396  13.751  18.130  0.00  0.00    +0.062 HD
ATOM     27  H   UNL     1       2.402  15.996  18.332  0.00  0.00    +0.062 HD
ATOM     28  H   UNL     1       0.015  16.260  18.964  0.00  0.00    +0.062 HD
ATOM     29  H   UNL     1      -1.372  14.279  19.426  0.00  0.00    +0.062 HD
ATOM     30  H   UNL     1      -1.578  11.749  19.527  0.00  0.00    +0.084 HD
ENDBRANCH  12  15
ENDBRANCH   3  11
BRANCH   1  31
ATOM     31  C   UNL     1       4.508   4.327  18.079  0.00  0.00    +0.035 C 
ATOM     32  H   UNL     1       5.445   4.290  18.650  0.00  0.00    +0.046 HD
BRANCH  31  33
ATOM     33  C   UNL     1       4.208   2.905  17.611  0.00  0.00    -0.049 C 
ATOM     34  H   UNL     1       5.120   2.415  17.257  0.00  0.00    +0.024 HD
ATOM     35  H   UNL     1       3.791   2.279  18.404  0.00  0.00    +0.024 HD
ATOM     36  H   UNL     1       3.498   2.905  16.775  0.00  0.00    +0.024 HD
ENDBRANCH  31  33
BRANCH  31  37
ATOM     37  S   UNL     1       4.742   5.408  16.605  0.00  0.00    -0.077 S 
BRANCH  37  38
ATOM     38  C   UNL     1       6.061   6.401  17.121  0.00  0.00    +0.204 A 
ATOM     39  N   UNL     1       6.049   7.720  17.153  0.00  0.00    -0.208 NA
ATOM     40  C   UNL     1       7.268   8.015  17.701  0.00  0.00    +0.141 A 
ATOM     41  N   UNL     1       8.037   6.971  17.996  0.00  0.00    -0.142 NA
ATOM     42  N   UNL     1       7.244   5.945  17.631  0.00  0.00    -0.145 N 
ATOM     43 CL   UNL     1       7.823   4.322  17.638  0.00  0.00    +0.040 Cl
ATOM     44  H   UNL     1       7.607   9.026  17.880  0.00  0.00    +0.107 HD
ENDBRANCH  37  38
ENDBRANCH  31  37
ENDBRANCH   1  31
TORSDOF 6
ENDMDL
MODEL 29
REMARK VINA RESULT:    -7.085      3.091      4.017
REMARK INTER + INTRA:          -9.738
REMARK INTER:                  -9.247
REMARK INTRA:                  -0.492
REMARK UNBOUND:                -0.375
REMARK  Name = 
REMARK  6 active torsions:
REMARK  status: ('A' for Active; 'I' for Inactive)
REMARK    1  A    between atoms: C_1  and  C_2
REMARK    2  A    between atoms: C_2  and  C_3
REMARK    3  A    between atoms: C_2  and  S_22
REMARK    4  A    between atoms: C_5  and  N_9
REMARK    5  A    between atoms: C_10  and  C_12
REMARK    6  A    between atoms: S_22  and  C_23
REMARK                            x       y       z     vdW  Elec       q    Type
REMARK                         _______ _______ _______ _____ _____    ______ ____
ROOT
ATOM      1  C   UNL     1      -0.799  11.122  20.456  0.00  0.00    -0.033 A 
ATOM      2  C   UNL     1      -0.098  10.046  19.881  0.00  0.00    -0.036 A 
ATOM      3  C   UNL     1       0.592   9.119  20.674  0.00  0.00    +0.034 A 
ATOM      4  C   UNL     1       0.630   9.302  22.052  0.00  0.00    -0.040 A 
ATOM      5  C   UNL     1      -0.014  10.394  22.635  0.00  0.00    -0.060 A 
ATOM      6  C   UNL     1      -0.728  11.295  21.844  0.00  0.00    -0.057 A 
ATOM      7  H   UNL     1      -0.150   9.886  18.806  0.00  0.00    +0.064 HD
ATOM      8  H   UNL     1       1.158   8.608  22.700  0.00  0.00    +0.064 HD
ATOM      9  H   UNL     1       0.016  10.521  23.719  0.00  0.00    +0.062 HD
ATOM     10  H   UNL     1      -1.251  12.110  22.336  0.00  0.00    +0.062 HD
ENDROOT
BRANCH   3  11
ATOM     11  N   UNL     1       1.177   8.025  20.015  0.00  0.00    -0.280 N 
ATOM     12  C   UNL     1       2.036   8.052  18.937  0.00  0.00    +0.267 C 
ATOM     13  O   UNL     1       2.392   9.034  18.293  0.00  0.00    -0.268 OA
ATOM     14  H   UNL     1       1.118   7.116  20.460  0.00  0.00    +0.155 HD
BRANCH  12  15
ATOM     15  C   UNL     1       2.627   6.701  18.650  0.00  0.00    +0.126 A 
ATOM     16  C   UNL     1       2.066   5.563  19.224  0.00  0.00    -0.023 A 
ATOM     17  C   UNL     1       2.563   4.310  18.843  0.00  0.00    -0.014 A 
ATOM     18  C   UNL     1       2.031   3.114  19.359  0.00  0.00    -0.054 A 
ATOM     19  C   UNL     1       2.531   1.878  18.943  0.00  0.00    -0.061 A 
ATOM     20  C   UNL     1       3.566   1.818  18.012  0.00  0.00    -0.061 A 
ATOM     21  C   UNL     1       4.115   2.993  17.505  0.00  0.00    -0.053 A 
ATOM     22  C   UNL     1       3.617   4.245  17.906  0.00  0.00    +0.000 A 
ATOM     23  C   UNL     1       4.117   5.453  17.411  0.00  0.00    +0.036 A 
ATOM     24  N   UNL     1       3.644   6.676  17.744  0.00  0.00    -0.250 NA
ATOM     25  H   UNL     1       1.241   5.658  19.918  0.00  0.00    +0.065 HD
ATOM     26  H   UNL     1       1.225   3.136  20.090  0.00  0.00    +0.062 HD
ATOM     27  H   UNL     1       2.110   0.960  19.348  0.00  0.00    +0.062 HD
ATOM     28  H   UNL     1       3.953   0.854  17.687  0.00  0.00    +0.062 HD
ATOM     29  H   UNL     1       4.934   2.928  16.790  0.00  0.00    +0.062 HD
ATOM     30  H   UNL     1       4.930   5.465  16.692  0.00  0.00    +0.084 HD
ENDBRANCH  12  15
ENDBRANCH   3  11
BRANCH   1  31
ATOM     31  C   UNL     1      -1.696  12.022  19.628  0.00  0.00    +0.035 C 
ATOM     32  H   UNL     1      -2.401  11.396  19.066  0.00  0.00    +0.046 HD
BRANCH  31  33
ATOM     33  C   UNL     1      -2.525  12.988  20.473  0.00  0.00    -0.049 C 
ATOM     34  H   UNL     1      -3.050  12.452  21.268  0.00  0.00    +0.024 HD
ATOM     35  H   UNL     1      -1.915  13.760  20.949  0.00  0.00    +0.024 HD
ATOM     36  H   UNL     1      -3.287  13.490  19.865  0.00  0.00    +0.024 HD
ENDBRANCH  31  33
BRANCH  31  37
ATOM     37  S   UNL     1      -0.669  12.989  18.443  0.00  0.00    -0.077 S 
BRANCH  37  38
ATOM     38  C   UNL     1       0.619  13.520  19.469  0.00  0.00    +0.204 A 
ATOM     39  N   UNL     1       0.475  14.299  20.524  0.00  0.00    -0.208 NA
ATOM     40  C   UNL     1       1.746  14.356  21.027  0.00  0.00    +0.141 A 
ATOM     41  N   UNL     1       2.667  13.679  20.348  0.00  0.00    -0.142 NA
ATOM     42  N   UNL     1       1.926  13.139  19.360  0.00  0.00    -0.145 N 
ATOM     43 CL   UNL     1       2.661  12.280  18.060  0.00  0.00    +0.040 Cl
ATOM     44  H   UNL     1       2.007  14.919  21.912  0.00  0.00    +0.107 HD
ENDBRANCH  37  38
ENDBRANCH  31  37
ENDBRANCH   1  31
TORSDOF 6
ENDMDL
MODEL 30
REMARK VINA RESULT:    -7.061      3.126      4.303
REMARK INTER + INTRA:          -9.706
REMARK INTER:                  -8.886
REMARK INTRA:                  -0.820
REMARK UNBOUND:                -0.375
REMARK  Name = 
REMARK  6 active torsions:
REMARK  status: ('A' for Active; 'I' for Inactive)
REMARK    1  A    between atoms: C_1  and  C_2
REMARK    2  A    between atoms: C_2  and  C_3
REMARK    3  A    between atoms: C_2  and  S_22
REMARK    4  A    between atoms: C_5  and  N_9
REMARK    5  A    between atoms: C_10  and  C_12
REMARK    6  A    between atoms: S_22  and  C_23
REMARK                            x       y       z     vdW  Elec       q    Type
REMARK                         _______ _______ _______ _____ _____    ______ ____
ROOT
ATOM      1  C   UNL     1      -1.062  11.799  19.966  0.00  0.00    -0.033 A 
ATOM      2  C   UNL     1      -0.256  10.695  19.636  0.00  0.00    -0.036 A 
ATOM      3  C   UNL     1      -0.409  10.020  18.417  0.00  0.00    +0.034 A 
ATOM      4  C   UNL     1      -1.416  10.417  17.544  0.00  0.00    -0.040 A 
ATOM      5  C   UNL     1      -2.260  11.476  17.880  0.00  0.00    -0.060 A 
ATOM      6  C   UNL     1      -2.082  12.167  19.079  0.00  0.00    -0.057 A 
ATOM      7  H   UNL     1       0.550  10.401  20.304  0.00  0.00    +0.064 HD
ATOM      8  H   UNL     1      -1.570   9.916  16.593  0.00  0.00    +0.064 HD
ATOM      9  H   UNL     1      -3.042  11.783  17.182  0.00  0.00    +0.062 HD
ATOM     10  H   UNL     1      -2.732  13.011  19.289  0.00  0.00    +0.062 HD
ENDROOT
BRANCH   3  11
ATOM     11  N   UNL     1       0.508   8.994  18.136  0.00  0.00    -0.280 N 
ATOM     12  C   UNL     1       1.862   9.113  17.902  0.00  0.00    +0.267 C 
ATOM     13  O   UNL     1       2.513  10.150  17.812  0.00  0.00    -0.268 OA
ATOM     14  H   UNL     1       0.209   8.036  18.283  0.00  0.00    +0.155 HD
BRANCH  12  15
ATOM     15  C   UNL     1       2.549   7.779  17.860  0.00  0.00    +0.126 A 
ATOM     16  C   UNL     1       1.842   6.624  18.186  0.00  0.00    -0.023 A 
ATOM     17  C   UNL     1       2.476   5.386  18.023  0.00  0.00    -0.014 A 
ATOM     18  C   UNL     1       1.819   4.174  18.306  0.00  0.00    -0.054 A 
ATOM     19  C   UNL     1       2.469   2.953  18.110  0.00  0.00    -0.061 A 
ATOM     20  C   UNL     1       3.778   2.923  17.634  0.00  0.00    -0.061 A 
ATOM     21  C   UNL     1       4.447   4.114  17.365  0.00  0.00    -0.053 A 
ATOM     22  C   UNL     1       3.805   5.351  17.547  0.00  0.00    +0.000 A 
ATOM     23  C   UNL     1       4.424   6.574  17.272  0.00  0.00    +0.036 A 
ATOM     24  N   UNL     1       3.832   7.783  17.400  0.00  0.00    -0.250 NA
ATOM     25  H   UNL     1       0.816   6.695  18.521  0.00  0.00    +0.065 HD
ATOM     26  H   UNL     1       0.798   4.173  18.682  0.00  0.00    +0.062 HD
ATOM     27  H   UNL     1       1.949   2.023  18.331  0.00  0.00    +0.062 HD
ATOM     28  H   UNL     1       4.281   1.971  17.479  0.00  0.00    +0.062 HD
ATOM     29  H   UNL     1       5.476   4.073  17.009  0.00  0.00    +0.062 HD
ATOM     30  H   UNL     1       5.447   6.610  16.909  0.00  0.00    +0.084 HD
ENDBRANCH  12  15
ENDBRANCH   3  11
BRANCH   1  31
ATOM     31  C   UNL     1      -0.787  12.648  21.192  0.00  0.00    +0.035 C 
ATOM     32  H   UNL     1      -0.888  12.019  22.087  0.00  0.00    +0.046 HD
BRANCH  31  33
ATOM     33  C   UNL     1       0.621  13.240  21.213  0.00  0.00    -0.049 C 
ATOM     34  H   UNL     1       0.609  14.276  20.861  0.00  0.00    +0.024 HD
ATOM     35  H   UNL     1       1.062  13.242  22.213  0.00  0.00    +0.024 HD
ATOM     36  H   UNL     1       1.294  12.683  20.550  0.00  0.00    +0.024 HD
ENDBRANCH  31  33
BRANCH  31  37
ATOM     37  S   UNL     1      -2.016  14.019  21.277  0.00  0.00    -0.077 S 
BRANCH  37  38
ATOM     38  C   UNL     1      -3.071  13.449  22.525  0.00  0.00    +0.204 A 
ATOM     39  N   UNL     1      -2.780  13.430  23.812  0.00  0.00    -0.208 NA
ATOM     40  C   UNL     1      -3.944  12.979  24.372  0.00  0.00    +0.141 A 
ATOM     41  N   UNL     1      -4.927  12.704  23.520  0.00  0.00    -0.142 NA
ATOM     42  N   UNL     1      -4.356  13.023  22.342  0.00  0.00    -0.145 N 
ATOM     43 CL   UNL     1      -5.145  12.691  20.848  0.00  0.00    +0.040 Cl
ATOM     44  H   UNL     1      -4.072  12.838  25.437  0.00  0.00    +0.107 HD
ENDBRANCH  37  38
ENDBRANCH  31  37
ENDBRANCH   1  31
TORSDOF 6
ENDMDL
MODEL 31
REMARK VINA RESULT:    -7.044      3.285      4.708
REMARK INTER + INTRA:          -9.684
REMARK INTER:                  -8.779
REMARK INTRA:                  -0.905
REMARK UNBOUND:                -0.375
REMARK  Name = 
REMARK  6 active torsions:
REMARK  status: ('A' for Active; 'I' for Inactive)
REMARK    1  A    between atoms: C_1  and  C_2
REMARK    2  A    between atoms: C_2  and  C_3
REMARK    3  A    between atoms: C_2  and  S_22
REMARK    4  A    between atoms: C_5  and  N_9
REMARK    5  A    between atoms: C_10  and  C_12
REMARK    6  A    between atoms: S_22  and  C_23
REMARK                            x       y       z     vdW  Elec       q    Type
REMARK                         _______ _______ _______ _____ _____    ______ ____
ROOT
ATOM      1  C   UNL     1       0.079  12.793  19.293  0.00  0.00    -0.033 A 
ATOM      2  C   UNL     1       0.748  11.576  19.516  0.00  0.00    -0.036 A 
ATOM      3  C   UNL     1       0.310  10.385  18.922  0.00  0.00    +0.034 A 
ATOM      4  C   UNL     1      -0.843  10.399  18.145  0.00  0.00    -0.040 A 
ATOM      5  C   UNL     1      -1.550  11.587  17.957  0.00  0.00    -0.060 A 
ATOM      6  C   UNL     1      -1.090  12.777  18.522  0.00  0.00    -0.057 A 
ATOM      7  H   UNL     1       1.665  11.569  20.101  0.00  0.00    +0.064 HD
ATOM      8  H   UNL     1      -1.217   9.495  17.672  0.00  0.00    +0.064 HD
ATOM      9  H   UNL     1      -2.449  11.586  17.338  0.00  0.00    +0.062 HD
ATOM     10  H   UNL     1      -1.644  13.690  18.322  0.00  0.00    +0.062 HD
ENDROOT
BRANCH   3  11
ATOM     11  N   UNL     1       1.101   9.242  19.125  0.00  0.00    -0.280 N 
ATOM     12  C   UNL     1       1.243   8.510  20.285  0.00  0.00    +0.267 C 
ATOM     13  O   UNL     1       0.769   8.763  21.388  0.00  0.00    -0.268 OA
ATOM     14  H   UNL     1       1.488   8.781  18.309  0.00  0.00    +0.155 HD
BRANCH  12  15
ATOM     15  C   UNL     1       1.997   7.230  20.058  0.00  0.00    +0.126 A 
ATOM     16  C   UNL     1       1.744   6.125  20.866  0.00  0.00    -0.023 A 
ATOM     17  C   UNL     1       2.375   4.913  20.555  0.00  0.00    -0.014 A 
ATOM     18  C   UNL     1       2.150   3.746  21.308  0.00  0.00    -0.054 A 
ATOM     19  C   UNL     1       2.775   2.546  20.959  0.00  0.00    -0.061 A 
ATOM     20  C   UNL     1       3.630   2.494  19.860  0.00  0.00    -0.061 A 
ATOM     21  C   UNL     1       3.875   3.645  19.114  0.00  0.00    -0.053 A 
ATOM     22  C   UNL     1       3.247   4.858  19.446  0.00  0.00    +0.000 A 
ATOM     23  C   UNL     1       3.442   6.035  18.718  0.00  0.00    +0.036 A 
ATOM     24  N   UNL     1       2.833   7.214  18.983  0.00  0.00    -0.250 NA
ATOM     25  H   UNL     1       1.047   6.205  21.690  0.00  0.00    +0.065 HD
ATOM     26  H   UNL     1       1.490   3.764  22.173  0.00  0.00    +0.062 HD
ATOM     27  H   UNL     1       2.592   1.650  21.548  0.00  0.00    +0.062 HD
ATOM     28  H   UNL     1       4.113   1.558  19.588  0.00  0.00    +0.062 HD
ATOM     29  H   UNL     1       4.559   3.589  18.268  0.00  0.00    +0.062 HD
ATOM     30  H   UNL     1       4.106   6.055  17.859  0.00  0.00    +0.084 HD
ENDBRANCH  12  15
ENDBRANCH   3  11
BRANCH   1  31
ATOM     31  C   UNL     1       0.645  14.114  19.777  0.00  0.00    +0.035 C 
ATOM     32  H   UNL     1       1.249  13.932  20.676  0.00  0.00    +0.046 HD
BRANCH  31  33
ATOM     33  C   UNL     1       1.554  14.792  18.753  0.00  0.00    -0.049 C 
ATOM     34  H   UNL     1       1.026  15.605  18.247  0.00  0.00    +0.024 HD
ATOM     35  H   UNL     1       2.452  15.219  19.205  0.00  0.00    +0.024 HD
ATOM     36  H   UNL     1       1.873  14.085  17.978  0.00  0.00    +0.024 HD
ENDBRANCH  31  33
BRANCH  31  37
ATOM     37  S   UNL     1      -0.738  15.256  20.200  0.00  0.00    -0.077 S 
BRANCH  37  38
ATOM     38  C   UNL     1      -1.217  14.646  21.746  0.00  0.00    +0.204 A 
ATOM     39  N   UNL     1      -0.513  14.758  22.857  0.00  0.00    -0.208 NA
ATOM     40  C   UNL     1      -1.342  14.201  23.792  0.00  0.00    +0.141 A 
ATOM     41  N   UNL     1      -2.502  13.739  23.334  0.00  0.00    -0.142 NA
ATOM     42  N   UNL     1      -2.411  14.043  22.025  0.00  0.00    -0.145 N 
ATOM     43 CL   UNL     1      -3.598  13.504  20.898  0.00  0.00    +0.040 Cl
ATOM     44  H   UNL     1      -1.083  14.122  24.839  0.00  0.00    +0.107 HD
ENDBRANCH  37  38
ENDBRANCH  31  37
ENDBRANCH   1  31
TORSDOF 6
ENDMDL
MODEL 32
REMARK VINA RESULT:    -7.031      3.207      4.537
REMARK INTER + INTRA:          -9.667
REMARK INTER:                  -8.659
REMARK INTRA:                  -1.008
REMARK UNBOUND:                -0.375
REMARK  Name = 
REMARK  6 active torsions:
REMARK  status: ('A' for Active; 'I' for Inactive)
REMARK    1  A    between atoms: C_1  and  C_2
REMARK    2  A    between atoms: C_2  and  C_3
REMARK    3  A    between atoms: C_2  and  S_22
REMARK    4  A    between atoms: C_5  and  N_9
REMARK    5  A    between atoms: C_10  and  C_12
REMARK    6  A    between atoms: S_22  and  C_23
REMARK                            x       y       z     vdW  Elec       q    Type
REMARK                         _______ _______ _______ _____ _____    ______ ____
ROOT
ATOM      1  C   UNL     1      -0.970  12.037  18.486  0.00  0.00    -0.033 A 
ATOM      2  C   UNL     1      -0.357  10.772  18.544  0.00  0.00    -0.036 A 
ATOM      3  C   UNL     1       1.032  10.641  18.685  0.00  0.00    +0.034 A 
ATOM      4  C   UNL     1       1.821  11.786  18.711  0.00  0.00    -0.040 A 
ATOM      5  C   UNL     1       1.235  13.047  18.601  0.00  0.00    -0.060 A 
ATOM      6  C   UNL     1      -0.151  13.173  18.495  0.00  0.00    -0.057 A 
ATOM      7  H   UNL     1      -0.975   9.878  18.552  0.00  0.00    +0.064 HD
ATOM      8  H   UNL     1       2.901  11.726  18.815  0.00  0.00    +0.064 HD
ATOM      9  H   UNL     1       1.865  13.938  18.631  0.00  0.00    +0.062 HD
ATOM     10  H   UNL     1      -0.576  14.172  18.451  0.00  0.00    +0.062 HD
ENDROOT
BRANCH   3  11
ATOM     11  N   UNL     1       1.538   9.340  18.833  0.00  0.00    -0.280 N 
ATOM     12  C   UNL     1       1.598   8.584  19.984  0.00  0.00    +0.267 C 
ATOM     13  O   UNL     1       1.294   8.934  21.121  0.00  0.00    -0.268 OA
ATOM     14  H   UNL     1       1.730   8.807  17.992  0.00  0.00    +0.155 HD
BRANCH  12  15
ATOM     15  C   UNL     1       1.997   7.162  19.709  0.00  0.00    +0.126 A 
ATOM     16  C   UNL     1       1.546   6.142  20.541  0.00  0.00    -0.023 A 
ATOM     17  C   UNL     1       1.837   4.817  20.190  0.00  0.00    -0.014 A 
ATOM     18  C   UNL     1       1.393   3.730  20.966  0.00  0.00    -0.054 A 
ATOM     19  C   UNL     1       1.679   2.419  20.578  0.00  0.00    -0.061 A 
ATOM     20  C   UNL     1       2.409   2.174  19.416  0.00  0.00    -0.061 A 
ATOM     21  C   UNL     1       2.869   3.240  18.647  0.00  0.00    -0.053 A 
ATOM     22  C   UNL     1       2.583   4.565  19.018  0.00  0.00    +0.000 A 
ATOM     23  C   UNL     1       3.002   5.668  18.270  0.00  0.00    +0.036 A 
ATOM     24  N   UNL     1       2.720   6.956  18.572  0.00  0.00    -0.250 NA
ATOM     25  H   UNL     1       0.954   6.379  21.416  0.00  0.00    +0.065 HD
ATOM     26  H   UNL     1       0.825   3.897  21.879  0.00  0.00    +0.062 HD
ATOM     27  H   UNL     1       1.329   1.587  21.185  0.00  0.00    +0.062 HD
ATOM     28  H   UNL     1       2.627   1.152  19.114  0.00  0.00    +0.062 HD
ATOM     29  H   UNL     1       3.452   3.030  17.751  0.00  0.00    +0.062 HD
ATOM     30  H   UNL     1       3.584   5.537  17.362  0.00  0.00    +0.084 HD
ENDBRANCH  12  15
ENDBRANCH   3  11
BRANCH   1  31
ATOM     31  C   UNL     1      -2.478  12.194  18.518  0.00  0.00    +0.035 C 
ATOM     32  H   UNL     1      -2.736  13.197  18.153  0.00  0.00    +0.046 HD
BRANCH  31  33
ATOM     33  C   UNL     1      -3.208  11.188  17.630  0.00  0.00    -0.049 C 
ATOM     34  H   UNL     1      -3.792  10.491  18.236  0.00  0.00    +0.024 HD
ATOM     35  H   UNL     1      -3.897  11.667  16.930  0.00  0.00    +0.024 HD
ATOM     36  H   UNL     1      -2.499  10.590  17.045  0.00  0.00    +0.024 HD
ENDBRANCH  31  33
BRANCH  31  37
ATOM     37  S   UNL     1      -3.077  12.009  20.251  0.00  0.00    -0.077 S 
BRANCH  37  38
ATOM     38  C   UNL     1      -2.193  13.264  21.049  0.00  0.00    +0.204 A 
ATOM     39  N   UNL     1      -2.448  14.555  20.944  0.00  0.00    -0.208 NA
ATOM     40  C   UNL     1      -1.544  15.107  21.809  0.00  0.00    +0.141 A 
ATOM     41  N   UNL     1      -0.739  14.250  22.430  0.00  0.00    -0.142 NA
ATOM     42  N   UNL     1      -1.176  13.073  21.941  0.00  0.00    -0.145 N 
ATOM     43 CL   UNL     1      -0.353  11.601  22.288  0.00  0.00    +0.040 Cl
ATOM     44  H   UNL     1      -1.467  16.172  21.983  0.00  0.00    +0.107 HD
ENDBRANCH  37  38
ENDBRANCH  31  37
ENDBRANCH   1  31
TORSDOF 6
ENDMDL
MODEL 33
REMARK VINA RESULT:    -6.976      3.446      4.634
REMARK INTER + INTRA:          -9.593
REMARK INTER:                  -9.075
REMARK INTRA:                  -0.518
REMARK UNBOUND:                -0.375
REMARK  Name = 
REMARK  6 active torsions:
REMARK  status: ('A' for Active; 'I' for Inactive)
REMARK    1  A    between atoms: C_1  and  C_2
REMARK    2  A    between atoms: C_2  and  C_3
REMARK    3  A    between atoms: C_2  and  S_22
REMARK    4  A    between atoms: C_5  and  N_9
REMARK    5  A    between atoms: C_10  and  C_12
REMARK    6  A    between atoms: S_22  and  C_23
REMARK                            x       y       z     vdW  Elec       q    Type
REMARK                         _______ _______ _______ _____ _____    ______ ____
ROOT
ATOM      1  C   UNL     1      -0.567  12.297  19.822  0.00  0.00    -0.033 A 
ATOM      2  C   UNL     1      -0.092  10.976  19.734  0.00  0.00    -0.036 A 
ATOM      3  C   UNL     1       1.123  10.679  19.101  0.00  0.00    +0.034 A 
ATOM      4  C   UNL     1       1.841  11.706  18.498  0.00  0.00    -0.040 A 
ATOM      5  C   UNL     1       1.358  13.014  18.529  0.00  0.00    -0.060 A 
ATOM      6  C   UNL     1       0.166  13.310  19.190  0.00  0.00    -0.057 A 
ATOM      7  H   UNL     1      -0.639  10.177  20.229  0.00  0.00    +0.064 HD
ATOM      8  H   UNL     1       2.784  11.515  17.994  0.00  0.00    +0.064 HD
ATOM      9  H   UNL     1       1.936  13.813  18.059  0.00  0.00    +0.062 HD
ATOM     10  H   UNL     1      -0.159  14.346  19.228  0.00  0.00    +0.062 HD
ENDROOT
BRANCH   3  11
ATOM     11  N   UNL     1       1.559   9.345  19.152  0.00  0.00    -0.280 N 
ATOM     12  C   UNL     1       1.630   8.523  20.256  0.00  0.00    +0.267 C 
ATOM     13  O   UNL     1       1.402   8.824  21.424  0.00  0.00    -0.268 OA
ATOM     14  H   UNL     1       1.680   8.851  18.275  0.00  0.00    +0.155 HD
BRANCH  12  15
ATOM     15  C   UNL     1       1.933   7.099  19.884  0.00  0.00    +0.126 A 
ATOM     16  C   UNL     1       2.679   6.826  18.741  0.00  0.00    -0.023 A 
ATOM     17  C   UNL     1       3.046   5.498  18.486  0.00  0.00    -0.014 A 
ATOM     18  C   UNL     1       3.822   5.146  17.365  0.00  0.00    -0.054 A 
ATOM     19  C   UNL     1       4.193   3.816  17.151  0.00  0.00    -0.061 A 
ATOM     20  C   UNL     1       3.796   2.823  18.045  0.00  0.00    -0.061 A 
ATOM     21  C   UNL     1       3.014   3.154  19.149  0.00  0.00    -0.053 A 
ATOM     22  C   UNL     1       2.640   4.488  19.385  0.00  0.00    +0.000 A 
ATOM     23  C   UNL     1       1.876   4.876  20.489  0.00  0.00    +0.036 A 
ATOM     24  N   UNL     1       1.523   6.151  20.772  0.00  0.00    -0.250 NA
ATOM     25  H   UNL     1       2.992   7.634  18.093  0.00  0.00    +0.065 HD
ATOM     26  H   UNL     1       4.139   5.903  16.652  0.00  0.00    +0.062 HD
ATOM     27  H   UNL     1       4.793   3.557  16.282  0.00  0.00    +0.062 HD
ATOM     28  H   UNL     1       4.088   1.789  17.877  0.00  0.00    +0.062 HD
ATOM     29  H   UNL     1       2.700   2.363  19.829  0.00  0.00    +0.062 HD
ATOM     30  H   UNL     1       1.530   4.143  21.212  0.00  0.00    +0.084 HD
ENDBRANCH  12  15
ENDBRANCH   3  11
BRANCH   1  31
ATOM     31  C   UNL     1      -1.780  12.654  20.659  0.00  0.00    +0.035 C 
ATOM     32  H   UNL     1      -1.796  13.741  20.812  0.00  0.00    +0.046 HD
BRANCH  31  33
ATOM     33  C   UNL     1      -3.103  12.272  19.998  0.00  0.00    -0.049 C 
ATOM     34  H   UNL     1      -3.675  11.598  20.641  0.00  0.00    +0.024 HD
ATOM     35  H   UNL     1      -3.736  13.139  19.791  0.00  0.00    +0.024 HD
ATOM     36  H   UNL     1      -2.933  11.747  19.050  0.00  0.00    +0.024 HD
ENDBRANCH  31  33
BRANCH  31  37
ATOM     37  S   UNL     1      -1.663  11.816  22.296  0.00  0.00    -0.077 S 
BRANCH  37  38
ATOM     38  C   UNL     1      -1.853  13.155  23.375  0.00  0.00    +0.204 A 
ATOM     39  N   UNL     1      -0.992  14.147  23.510  0.00  0.00    -0.208 NA
ATOM     40  C   UNL     1      -1.625  14.970  24.400  0.00  0.00    +0.141 A 
ATOM     41  N   UNL     1      -2.809  14.549  24.836  0.00  0.00    -0.142 NA
ATOM     42  N   UNL     1      -2.945  13.392  24.160  0.00  0.00    -0.145 N 
ATOM     43 CL   UNL     1      -4.255  12.320  24.479  0.00  0.00    +0.040 Cl
ATOM     44  H   UNL     1      -1.201  15.902  24.749  0.00  0.00    +0.107 HD
ENDBRANCH  37  38
ENDBRANCH  31  37
ENDBRANCH   1  31
TORSDOF 6
ENDMDL
