MODEL 1
REMARK VINA RESULT:    -8.421      0.000      0.000
REMARK INTER + INTRA:         -13.073
REMARK INTER:                 -12.244
REMARK INTRA:                  -0.829
REMARK UNBOUND:                -1.207
REMARK  Name = 
REMARK  8 active torsions:
REMARK  status: ('A' for Active; 'I' for Inactive)
REMARK    1  A    between atoms: C_1  and  C_2
REMARK    2  A    between atoms: C_2  and  C_3
REMARK    3  A    between atoms: C_2  and  C_10
REMARK    4  A    between atoms: C_3  and  C_4
REMARK    5  A    between atoms: N_8  and  C_9
REMARK    6  A    between atoms: N_13  and  C_14
REMARK    7  A    between atoms: C_19  and  N_21
REMARK    8  A    between atoms: C_28  and  C_29
REMARK                            x       y       z     vdW  Elec       q    Type
REMARK                         _______ _______ _______ _____ _____    ______ ____
ROOT
ATOM      1  C   UNL     1       4.508   6.038  17.303  0.00  0.00    -0.038 A 
ATOM      2  C   UNL     1       4.376   4.921  18.130  0.00  0.00    -0.018 A 
ATOM      3  C   UNL     1       3.485   4.957  19.197  0.00  0.00    +0.121 A 
ATOM      4  N   UNL     1       3.392   3.820  20.034  0.00  0.00    -0.326 N 
ATOM      5  N   UNL     1       2.760   6.054  19.481  0.00  0.00    -0.217 NA
ATOM      6  C   UNL     1       2.881   7.150  18.695  0.00  0.00    +0.130 A 
ATOM      7  C   UNL     1       3.740   7.169  17.602  0.00  0.00    -0.018 A 
ATOM      8  H   UNL     1       4.969   4.028  17.960  0.00  0.00    +0.065 HD
ATOM      9  H   UNL     1       3.266   3.006  19.439  0.00  0.00    +0.148 HD
ATOM     10  H   UNL     1       3.833   8.052  16.978  0.00  0.00    +0.065 HD
ENDROOT
BRANCH   6  11
ATOM     11  N   UNL     1       2.095   8.261  19.054  0.00  0.00    -0.248 N 
ATOM     12  C   UNL     1       1.452   8.291  20.357  0.00  0.00    +0.048 C 
ATOM     13  C   UNL     1       0.735   9.605  20.344  0.00  0.00    -0.006 A 
ATOM     14  C   UNL     1       0.968  10.250  19.133  0.00  0.00    +0.042 A 
ATOM     15  C   UNL     1       0.432  11.489  18.832  0.00  0.00    -0.049 A 
ATOM     16  C   UNL     1      -0.370  12.094  19.800  0.00  0.00    -0.060 A 
ATOM     17  C   UNL     1      -0.614  11.455  21.030  0.00  0.00    -0.050 A 
ATOM     18  C   UNL     1      -0.062  10.193  21.323  0.00  0.00    +0.060 A 
ATOM     19  C   UNL     1       1.837   9.400  18.306  0.00  0.00    +0.253 C 
ATOM     20  O   UNL     1       2.203   9.727  17.194  0.00  0.00    -0.270 OA
ATOM     21  H   UNL     1       0.746   7.460  20.443  0.00  0.00    +0.052 HD
ATOM     22  H   UNL     1       2.210   8.266  21.147  0.00  0.00    +0.052 HD
ATOM     23  H   UNL     1       0.632  11.966  17.878  0.00  0.00    +0.063 HD
ATOM     24  H   UNL     1      -0.811  13.070  19.601  0.00  0.00    +0.062 HD
ATOM     25  H   UNL     1      -1.245  11.957  21.764  0.00  0.00    +0.062 HD
BRANCH  18  26
ATOM     26  C   UNL     1      -0.316   9.502  22.636  0.00  0.00    +0.418 C 
ATOM     27  F   UNL     1      -1.146  10.216  23.443  0.00  0.00    -0.166 F 
ATOM     28  F   UNL     1       0.812   9.274  23.363  0.00  0.00    -0.166 F 
ATOM     29  F   UNL     1      -0.909   8.287  22.472  0.00  0.00    -0.166 F 
ENDBRANCH  18  26
ENDBRANCH   6  11
BRANCH   4  30
ATOM     30  C   UNL     1       2.491   3.787  21.159  0.00  0.00    +0.022 C 
ATOM     31  C   UNL     1       1.033   4.084  20.733  0.00  0.00    -0.034 C 
ATOM     32  C   UNL     1       0.820   2.564  20.576  0.00  0.00    -0.050 C 
ATOM     33  C   UNL     1       2.020   2.359  21.522  0.00  0.00    -0.034 C 
ATOM     34  H   UNL     1       2.851   4.399  21.992  0.00  0.00    +0.050 HD
ATOM     35  H   UNL     1       0.430   4.528  21.535  0.00  0.00    +0.028 HD
ATOM     36  H   UNL     1       0.891   4.676  19.825  0.00  0.00    +0.028 HD
ATOM     37  H   UNL     1       0.993   2.198  19.558  0.00  0.00    +0.027 HD
ATOM     38  H   UNL     1      -0.138   2.180  20.934  0.00  0.00    +0.027 HD
ATOM     39  H   UNL     1       1.733   2.254  22.576  0.00  0.00    +0.028 HD
ATOM     40  H   UNL     1       2.682   1.527  21.261  0.00  0.00    +0.028 HD
ENDBRANCH   4  30
BRANCH   1  41
ATOM     41  C   UNL     1       5.481   6.070  16.130  0.00  0.00    -0.012 C 
ATOM     42  H   UNL     1       5.453   7.079  15.693  0.00  0.00    +0.035 HD
BRANCH  41  43
ATOM     43  C   UNL     1       5.046   5.098  15.022  0.00  0.00    -0.058 C 
ATOM     44  H   UNL     1       4.465   4.258  15.419  0.00  0.00    +0.024 HD
ATOM     45  H   UNL     1       5.911   4.678  14.499  0.00  0.00    +0.024 HD
ATOM     46  H   UNL     1       4.429   5.610  14.275  0.00  0.00    +0.024 HD
ENDBRANCH  41  43
BRANCH  41  47
ATOM     47  C   UNL     1       6.911   5.786  16.635  0.00  0.00    +0.014 C 
ATOM     48  H   UNL     1       7.563   5.540  15.787  0.00  0.00    +0.035 HD
ATOM     49  H   UNL     1       6.897   4.902  17.287  0.00  0.00    +0.035 HD
BRANCH  47  50
ATOM     50  C   UNL     1       7.516   6.909  17.411  0.00  0.00    +0.134 A 
ATOM     51  N   UNL     1       7.624   8.172  17.050  0.00  0.00    -0.135 NA
ATOM     52  N   UNL     1       8.241   8.861  18.067  0.00  0.00    -0.138 NA
ATOM     53  C   UNL     1       8.485   8.009  19.034  0.00  0.00    +0.120 A 
ATOM     54  N   UNL     1       8.045   6.775  18.669  0.00  0.00    -0.320 N 
ATOM     55  H   UNL     1       8.959   8.235  19.978  0.00  0.00    +0.105 HD
BRANCH  54  56
ATOM     56  C   UNL     1       8.121   5.577  19.460  0.00  0.00    +0.014 C 
ATOM     57  H   UNL     1       7.147   5.080  19.467  0.00  0.00    +0.046 HD
ATOM     58  H   UNL     1       8.402   5.851  20.480  0.00  0.00    +0.046 HD
ATOM     59  H   UNL     1       8.868   4.913  19.021  0.00  0.00    +0.046 HD
ENDBRANCH  54  56
ENDBRANCH  47  50
ENDBRANCH  41  47
ENDBRANCH   1  41
TORSDOF 8
ENDMDL
MODEL 2
REMARK VINA RESULT:    -7.540      1.874      2.714
REMARK INTER + INTRA:         -11.833
REMARK INTER:                 -11.376
REMARK INTRA:                  -0.457
REMARK UNBOUND:                -1.207
REMARK  Name = 
REMARK  8 active torsions:
REMARK  status: ('A' for Active; 'I' for Inactive)
REMARK    1  A    between atoms: C_1  and  C_2
REMARK    2  A    between atoms: C_2  and  C_3
REMARK    3  A    between atoms: C_2  and  C_10
REMARK    4  A    between atoms: C_3  and  C_4
REMARK    5  A    between atoms: N_8  and  C_9
REMARK    6  A    between atoms: N_13  and  C_14
REMARK    7  A    between atoms: C_19  and  N_21
REMARK    8  A    between atoms: C_28  and  C_29
REMARK                            x       y       z     vdW  Elec       q    Type
REMARK                         _______ _______ _______ _____ _____    ______ ____
ROOT
ATOM      1  C   UNL     1       4.483   6.029  17.319  0.00  0.00    -0.038 A 
ATOM      2  C   UNL     1       4.370   4.910  18.147  0.00  0.00    -0.018 A 
ATOM      3  C   UNL     1       3.475   4.931  19.212  0.00  0.00    +0.121 A 
ATOM      4  N   UNL     1       3.400   3.793  20.050  0.00  0.00    -0.326 N 
ATOM      5  N   UNL     1       2.730   6.015  19.493  0.00  0.00    -0.217 NA
ATOM      6  C   UNL     1       2.834   7.112  18.707  0.00  0.00    +0.130 A 
ATOM      7  C   UNL     1       3.695   7.146  17.616  0.00  0.00    -0.018 A 
ATOM      8  H   UNL     1       4.978   4.028  17.979  0.00  0.00    +0.065 HD
ATOM      9  H   UNL     1       3.291   2.976  19.455  0.00  0.00    +0.148 HD
ATOM     10  H   UNL     1       3.774   8.030  16.991  0.00  0.00    +0.065 HD
ENDROOT
BRANCH   6  11
ATOM     11  N   UNL     1       2.027   8.209  19.063  0.00  0.00    -0.248 N 
ATOM     12  C   UNL     1       1.421   8.252  20.383  0.00  0.00    +0.048 C 
ATOM     13  C   UNL     1       0.667   9.545  20.361  0.00  0.00    -0.006 A 
ATOM     14  C   UNL     1       0.847  10.168  19.129  0.00  0.00    +0.042 A 
ATOM     15  C   UNL     1       0.269  11.385  18.817  0.00  0.00    -0.049 A 
ATOM     16  C   UNL     1      -0.522  11.990  19.793  0.00  0.00    -0.060 A 
ATOM     17  C   UNL     1      -0.714  11.373  21.043  0.00  0.00    -0.050 A 
ATOM     18  C   UNL     1      -0.119  10.134  21.349  0.00  0.00    +0.060 A 
ATOM     19  C   UNL     1       1.717   9.323  18.298  0.00  0.00    +0.253 C 
ATOM     20  O   UNL     1       2.043   9.635  17.169  0.00  0.00    -0.270 OA
ATOM     21  H   UNL     1       0.740   7.404  20.507  0.00  0.00    +0.052 HD
ATOM     22  H   UNL     1       2.200   8.266  21.152  0.00  0.00    +0.052 HD
ATOM     23  H   UNL     1       0.429  11.845  17.847  0.00  0.00    +0.063 HD
ATOM     24  H   UNL     1      -0.995  12.948  19.586  0.00  0.00    +0.062 HD
ATOM     25  H   UNL     1      -1.338  11.875  21.784  0.00  0.00    +0.062 HD
BRANCH  18  26
ATOM     26  C   UNL     1      -0.317   9.466  22.683  0.00  0.00    +0.418 C 
ATOM     27  F   UNL     1      -1.131  10.184  23.504  0.00  0.00    -0.166 F 
ATOM     28  F   UNL     1       0.838   9.272  23.376  0.00  0.00    -0.166 F 
ATOM     29  F   UNL     1      -0.895   8.239  22.565  0.00  0.00    -0.166 F 
ENDBRANCH  18  26
ENDBRANCH   6  11
BRANCH   4  30
ATOM     30  C   UNL     1       2.497   3.745  21.172  0.00  0.00    +0.022 C 
ATOM     31  C   UNL     1       1.043   4.067  20.751  0.00  0.00    -0.034 C 
ATOM     32  C   UNL     1       0.814   2.553  20.560  0.00  0.00    -0.050 C 
ATOM     33  C   UNL     1       2.011   2.314  21.502  0.00  0.00    -0.034 C 
ATOM     34  H   UNL     1       2.863   4.334  22.019  0.00  0.00    +0.050 HD
ATOM     35  H   UNL     1       0.444   4.499  21.562  0.00  0.00    +0.028 HD
ATOM     36  H   UNL     1       0.909   4.680  19.856  0.00  0.00    +0.028 HD
ATOM     37  H   UNL     1       0.984   2.208  19.534  0.00  0.00    +0.027 HD
ATOM     38  H   UNL     1      -0.149   2.172  20.908  0.00  0.00    +0.027 HD
ATOM     39  H   UNL     1       1.721   2.189  22.553  0.00  0.00    +0.028 HD
ATOM     40  H   UNL     1       2.664   1.481  21.225  0.00  0.00    +0.028 HD
ENDBRANCH   4  30
BRANCH   1  41
ATOM     41  C   UNL     1       5.459   6.077  16.148  0.00  0.00    -0.012 C 
ATOM     42  H   UNL     1       6.429   6.424  16.531  0.00  0.00    +0.035 HD
BRANCH  41  43
ATOM     43  C   UNL     1       5.008   7.099  15.094  0.00  0.00    -0.058 C 
ATOM     44  H   UNL     1       3.920   7.221  15.080  0.00  0.00    +0.024 HD
ATOM     45  H   UNL     1       5.315   6.795  14.088  0.00  0.00    +0.024 HD
ATOM     46  H   UNL     1       5.453   8.082  15.288  0.00  0.00    +0.024 HD
ENDBRANCH  41  43
BRANCH  41  47
ATOM     47  C   UNL     1       5.633   4.661  15.561  0.00  0.00    +0.014 C 
ATOM     48  H   UNL     1       4.649   4.211  15.377  0.00  0.00    +0.035 HD
ATOM     49  H   UNL     1       6.138   4.022  16.298  0.00  0.00    +0.035 HD
BRANCH  47  50
ATOM     50  C   UNL     1       6.434   4.619  14.302  0.00  0.00    +0.134 A 
ATOM     51  N   UNL     1       7.632   5.126  14.091  0.00  0.00    -0.135 NA
ATOM     52  N   UNL     1       7.995   4.853  12.794  0.00  0.00    -0.138 NA
ATOM     53  C   UNL     1       7.019   4.173  12.243  0.00  0.00    +0.120 A 
ATOM     54  N   UNL     1       6.022   4.000  13.150  0.00  0.00    -0.320 N 
ATOM     55  H   UNL     1       6.996   3.802  11.228  0.00  0.00    +0.105 HD
BRANCH  54  56
ATOM     56  C   UNL     1       4.787   3.297  12.932  0.00  0.00    +0.014 C 
ATOM     57  H   UNL     1       4.274   3.150  13.887  0.00  0.00    +0.046 HD
ATOM     58  H   UNL     1       5.014   2.327  12.483  0.00  0.00    +0.046 HD
ATOM     59  H   UNL     1       4.157   3.890  12.266  0.00  0.00    +0.046 HD
ENDBRANCH  54  56
ENDBRANCH  47  50
ENDBRANCH  41  47
ENDBRANCH   1  41
TORSDOF 8
ENDMDL
MODEL 3
REMARK VINA RESULT:    -7.496      1.693      2.670
REMARK INTER + INTRA:         -11.770
REMARK INTER:                 -11.588
REMARK INTRA:                  -0.183
REMARK UNBOUND:                -1.207
REMARK  Name = 
REMARK  8 active torsions:
REMARK  status: ('A' for Active; 'I' for Inactive)
REMARK    1  A    between atoms: C_1  and  C_2
REMARK    2  A    between atoms: C_2  and  C_3
REMARK    3  A    between atoms: C_2  and  C_10
REMARK    4  A    between atoms: C_3  and  C_4
REMARK    5  A    between atoms: N_8  and  C_9
REMARK    6  A    between atoms: N_13  and  C_14
REMARK    7  A    between atoms: C_19  and  N_21
REMARK    8  A    between atoms: C_28  and  C_29
REMARK                            x       y       z     vdW  Elec       q    Type
REMARK                         _______ _______ _______ _____ _____    ______ ____
ROOT
ATOM      1  C   UNL     1       5.575   5.153  18.900  0.00  0.00    -0.038 A 
ATOM      2  C   UNL     1       4.991   3.947  19.290  0.00  0.00    -0.018 A 
ATOM      3  C   UNL     1       3.647   3.916  19.643  0.00  0.00    +0.121 A 
ATOM      4  N   UNL     1       3.088   2.684  20.060  0.00  0.00    -0.326 N 
ATOM      5  N   UNL     1       2.888   5.027  19.652  0.00  0.00    -0.217 NA
ATOM      6  C   UNL     1       3.440   6.207  19.285  0.00  0.00    +0.130 A 
ATOM      7  C   UNL     1       4.773   6.300  18.903  0.00  0.00    -0.018 A 
ATOM      8  H   UNL     1       5.575   3.033  19.334  0.00  0.00    +0.065 HD
ATOM      9  H   UNL     1       3.333   1.982  19.367  0.00  0.00    +0.148 HD
ATOM     10  H   UNL     1       5.208   7.250  18.611  0.00  0.00    +0.065 HD
ENDROOT
BRANCH   6  11
ATOM     11  N   UNL     1       2.588   7.328  19.321  0.00  0.00    -0.248 N 
ATOM     12  C   UNL     1       1.876   7.646  20.547  0.00  0.00    +0.048 C 
ATOM     13  C   UNL     1       1.103   8.873  20.175  0.00  0.00    -0.006 A 
ATOM     14  C   UNL     1       1.372   9.208  18.851  0.00  0.00    +0.042 A 
ATOM     15  C   UNL     1       0.800  10.302  18.227  0.00  0.00    -0.049 A 
ATOM     16  C   UNL     1      -0.078  11.083  18.979  0.00  0.00    -0.060 A 
ATOM     17  C   UNL     1      -0.359  10.757  20.319  0.00  0.00    -0.050 A 
ATOM     18  C   UNL     1       0.230   9.640  20.941  0.00  0.00    +0.060 A 
ATOM     19  C   UNL     1       2.321   8.229  18.301  0.00  0.00    +0.253 C 
ATOM     20  O   UNL     1       2.731   8.289  17.159  0.00  0.00    -0.270 OA
ATOM     21  H   UNL     1       1.203   6.823  20.810  0.00  0.00    +0.052 HD
ATOM     22  H   UNL     1       2.590   7.860  21.349  0.00  0.00    +0.052 HD
ATOM     23  H   UNL     1       1.030  10.537  17.193  0.00  0.00    +0.063 HD
ATOM     24  H   UNL     1      -0.549  11.953  18.524  0.00  0.00    +0.062 HD
ATOM     25  H   UNL     1      -1.050  11.391  20.876  0.00  0.00    +0.062 HD
BRANCH  18  26
ATOM     26  C   UNL     1      -0.063   9.285  22.374  0.00  0.00    +0.418 C 
ATOM     27  F   UNL     1      -0.839  10.218  22.989  0.00  0.00    -0.166 F 
ATOM     28  F   UNL     1       1.050   9.154  23.146  0.00  0.00    -0.166 F 
ATOM     29  F   UNL     1      -0.737   8.107  22.485  0.00  0.00    -0.166 F 
ENDBRANCH  18  26
ENDBRANCH   6  11
BRANCH   4  30
ATOM     30  C   UNL     1       1.702   2.578  20.441  0.00  0.00    +0.022 C 
ATOM     31  C   UNL     1       0.842   3.685  19.786  0.00  0.00    -0.034 C 
ATOM     32  C   UNL     1       0.551   2.708  18.629  0.00  0.00    -0.050 C 
ATOM     33  C   UNL     1       0.912   1.557  19.589  0.00  0.00    -0.034 C 
ATOM     34  H   UNL     1       1.580   2.494  21.526  0.00  0.00    +0.050 HD
ATOM     35  H   UNL     1      -0.048   3.944  20.372  0.00  0.00    +0.028 HD
ATOM     36  H   UNL     1       1.353   4.610  19.505  0.00  0.00    +0.028 HD
ATOM     37  H   UNL     1       1.241   2.809  17.783  0.00  0.00    +0.027 HD
ATOM     38  H   UNL     1      -0.475   2.709  18.254  0.00  0.00    +0.027 HD
ATOM     39  H   UNL     1       0.044   1.137  20.114  0.00  0.00    +0.028 HD
ATOM     40  H   UNL     1       1.473   0.732  19.140  0.00  0.00    +0.028 HD
ENDBRANCH   4  30
BRANCH   1  41
ATOM     41  C   UNL     1       7.048   5.258  18.520  0.00  0.00    -0.012 C 
ATOM     42  H   UNL     1       7.443   4.237  18.415  0.00  0.00    +0.035 HD
BRANCH  41  43
ATOM     43  C   UNL     1       7.861   5.932  19.636  0.00  0.00    -0.058 C 
ATOM     44  H   UNL     1       8.323   5.200  20.306  0.00  0.00    +0.024 HD
ATOM     45  H   UNL     1       7.230   6.583  20.250  0.00  0.00    +0.024 HD
ATOM     46  H   UNL     1       8.660   6.553  19.215  0.00  0.00    +0.024 HD
ENDBRANCH  41  43
BRANCH  41  47
ATOM     47  C   UNL     1       7.184   5.987  17.168  0.00  0.00    +0.014 C 
ATOM     48  H   UNL     1       8.234   6.257  16.995  0.00  0.00    +0.035 HD
ATOM     49  H   UNL     1       6.620   6.929  17.205  0.00  0.00    +0.035 HD
BRANCH  47  50
ATOM     50  C   UNL     1       6.679   5.204  16.001  0.00  0.00    +0.134 A 
ATOM     51  N   UNL     1       7.090   4.024  15.583  0.00  0.00    -0.135 NA
ATOM     52  N   UNL     1       6.349   3.673  14.480  0.00  0.00    -0.138 NA
ATOM     53  C   UNL     1       5.492   4.640  14.254  0.00  0.00    +0.120 A 
ATOM     54  N   UNL     1       5.659   5.618  15.183  0.00  0.00    -0.320 N 
ATOM     55  H   UNL     1       4.761   4.669  13.459  0.00  0.00    +0.105 HD
BRANCH  54  56
ATOM     56  C   UNL     1       4.903   6.837  15.280  0.00  0.00    +0.014 C 
ATOM     57  H   UNL     1       4.668   7.204  14.278  0.00  0.00    +0.046 HD
ATOM     58  H   UNL     1       5.505   7.577  15.813  0.00  0.00    +0.046 HD
ATOM     59  H   UNL     1       3.977   6.634  15.822  0.00  0.00    +0.046 HD
ENDBRANCH  54  56
ENDBRANCH  47  50
ENDBRANCH  41  47
ENDBRANCH   1  41
TORSDOF 8
ENDMDL
MODEL 4
REMARK VINA RESULT:    -7.433      4.187      8.734
REMARK INTER + INTRA:         -11.681
REMARK INTER:                 -10.476
REMARK INTRA:                  -1.204
REMARK UNBOUND:                -1.207
REMARK  Name = 
REMARK  8 active torsions:
REMARK  status: ('A' for Active; 'I' for Inactive)
REMARK    1  A    between atoms: C_1  and  C_2
REMARK    2  A    between atoms: C_2  and  C_3
REMARK    3  A    between atoms: C_2  and  C_10
REMARK    4  A    between atoms: C_3  and  C_4
REMARK    5  A    between atoms: N_8  and  C_9
REMARK    6  A    between atoms: N_13  and  C_14
REMARK    7  A    between atoms: C_19  and  N_21
REMARK    8  A    between atoms: C_28  and  C_29
REMARK                            x       y       z     vdW  Elec       q    Type
REMARK                         _______ _______ _______ _____ _____    ______ ____
ROOT
ATOM      1  C   UNL     1       0.658  12.644  19.721  0.00  0.00    -0.038 A 
ATOM      2  C   UNL     1      -0.374  12.731  18.785  0.00  0.00    -0.018 A 
ATOM      3  C   UNL     1      -0.781  11.590  18.103  0.00  0.00    +0.121 A 
ATOM      4  N   UNL     1      -1.812  11.714  17.141  0.00  0.00    -0.326 N 
ATOM      5  N   UNL     1      -0.188  10.397  18.293  0.00  0.00    -0.217 NA
ATOM      6  C   UNL     1       0.820  10.296  19.190  0.00  0.00    +0.130 A 
ATOM      7  C   UNL     1       1.260  11.396  19.918  0.00  0.00    -0.018 A 
ATOM      8  H   UNL     1      -0.856  13.680  18.573  0.00  0.00    +0.065 HD
ATOM      9  H   UNL     1      -2.583  12.214  17.575  0.00  0.00    +0.148 HD
ATOM     10  H   UNL     1       2.070  11.306  20.634  0.00  0.00    +0.065 HD
ENDROOT
BRANCH   6  11
ATOM     11  N   UNL     1       1.396   9.019  19.334  0.00  0.00    -0.248 N 
ATOM     12  C   UNL     1       2.377   8.564  18.364  0.00  0.00    +0.048 C 
ATOM     13  C   UNL     1       2.731   7.198  18.865  0.00  0.00    -0.006 A 
ATOM     14  C   UNL     1       2.007   6.924  20.021  0.00  0.00    +0.042 A 
ATOM     15  C   UNL     1       2.126   5.733  20.712  0.00  0.00    -0.049 A 
ATOM     16  C   UNL     1       3.015   4.784  20.207  0.00  0.00    -0.060 A 
ATOM     17  C   UNL     1       3.755   5.046  19.039  0.00  0.00    -0.050 A 
ATOM     18  C   UNL     1       3.624   6.264  18.346  0.00  0.00    +0.060 A 
ATOM     19  C   UNL     1       1.155   8.083  20.328  0.00  0.00    +0.253 C 
ATOM     20  O   UNL     1       0.419   8.113  21.295  0.00  0.00    -0.270 OA
ATOM     21  H   UNL     1       1.921   8.511  17.370  0.00  0.00    +0.052 HD
ATOM     22  H   UNL     1       3.250   9.224  18.378  0.00  0.00    +0.052 HD
ATOM     23  H   UNL     1       1.547   5.549  21.611  0.00  0.00    +0.063 HD
ATOM     24  H   UNL     1       3.137   3.832  20.722  0.00  0.00    +0.062 HD
ATOM     25  H   UNL     1       4.442   4.281  18.673  0.00  0.00    +0.062 HD
BRANCH  18  26
ATOM     26  C   UNL     1       4.412   6.554  17.096  0.00  0.00    +0.418 C 
ATOM     27  F   UNL     1       5.629   7.099  17.368  0.00  0.00    -0.166 F 
ATOM     28  F   UNL     1       3.794   7.420  16.247  0.00  0.00    -0.166 F 
ATOM     29  F   UNL     1       4.660   5.429  16.370  0.00  0.00    -0.166 F 
ENDBRANCH  18  26
ENDBRANCH   6  11
BRANCH   4  30
ATOM     30  C   UNL     1      -2.284  10.574  16.395  0.00  0.00    +0.022 C 
ATOM     31  C   UNL     1      -3.483   9.890  17.094  0.00  0.00    -0.034 C 
ATOM     32  C   UNL     1      -4.421  10.774  16.247  0.00  0.00    -0.050 C 
ATOM     33  C   UNL     1      -3.257  10.953  15.253  0.00  0.00    -0.034 C 
ATOM     34  H   UNL     1      -1.470   9.894  16.125  0.00  0.00    +0.050 HD
ATOM     35  H   UNL     1      -3.565   8.820  16.861  0.00  0.00    +0.028 HD
ATOM     36  H   UNL     1      -3.566  10.016  18.176  0.00  0.00    +0.028 HD
ATOM     37  H   UNL     1      -4.721  11.702  16.747  0.00  0.00    +0.027 HD
ATOM     38  H   UNL     1      -5.311  10.280  15.852  0.00  0.00    +0.027 HD
ATOM     39  H   UNL     1      -3.265  10.223  14.434  0.00  0.00    +0.028 HD
ATOM     40  H   UNL     1      -3.162  11.953  14.820  0.00  0.00    +0.028 HD
ENDBRANCH   4  30
BRANCH   1  41
ATOM     41  C   UNL     1       1.165  13.860  20.488  0.00  0.00    -0.012 C 
ATOM     42  H   UNL     1       0.832  14.761  19.951  0.00  0.00    +0.035 HD
BRANCH  41  43
ATOM     43  C   UNL     1       2.700  13.902  20.509  0.00  0.00    -0.058 C 
ATOM     44  H   UNL     1       3.087  14.899  20.270  0.00  0.00    +0.024 HD
ATOM     45  H   UNL     1       3.127  13.204  19.781  0.00  0.00    +0.024 HD
ATOM     46  H   UNL     1       3.085  13.621  21.496  0.00  0.00    +0.024 HD
ENDBRANCH  41  43
BRANCH  41  47
ATOM     47  C   UNL     1       0.555  13.871  21.904  0.00  0.00    +0.014 C 
ATOM     48  H   UNL     1       0.848  14.790  22.429  0.00  0.00    +0.035 HD
ATOM     49  H   UNL     1       0.968  13.034  22.484  0.00  0.00    +0.035 HD
BRANCH  47  50
ATOM     50  C   UNL     1      -0.932  13.745  21.928  0.00  0.00    +0.134 A 
ATOM     51  N   UNL     1      -1.823  14.633  21.534  0.00  0.00    -0.135 NA
ATOM     52  N   UNL     1      -3.076  14.103  21.727  0.00  0.00    -0.138 NA
ATOM     53  C   UNL     1      -2.927  12.898  22.223  0.00  0.00    +0.120 A 
ATOM     54  N   UNL     1      -1.602  12.629  22.363  0.00  0.00    -0.320 N 
ATOM     55  H   UNL     1      -3.721  12.214  22.484  0.00  0.00    +0.105 HD
BRANCH  54  56
ATOM     56  C   UNL     1      -1.030  11.409  22.862  0.00  0.00    +0.014 C 
ATOM     57  H   UNL     1      -1.828  10.708  23.120  0.00  0.00    +0.046 HD
ATOM     58  H   UNL     1      -0.440  11.640  23.753  0.00  0.00    +0.046 HD
ATOM     59  H   UNL     1      -0.397  10.973  22.085  0.00  0.00    +0.046 HD
ENDBRANCH  54  56
ENDBRANCH  47  50
ENDBRANCH  41  47
ENDBRANCH   1  41
TORSDOF 8
ENDMDL
MODEL 5
REMARK VINA RESULT:    -7.378      4.286      8.011
REMARK INTER + INTRA:         -11.604
REMARK INTER:                 -10.657
REMARK INTRA:                  -0.947
REMARK UNBOUND:                -1.207
REMARK  Name = 
REMARK  8 active torsions:
REMARK  status: ('A' for Active; 'I' for Inactive)
REMARK    1  A    between atoms: C_1  and  C_2
REMARK    2  A    between atoms: C_2  and  C_3
REMARK    3  A    between atoms: C_2  and  C_10
REMARK    4  A    between atoms: C_3  and  C_4
REMARK    5  A    between atoms: N_8  and  C_9
REMARK    6  A    between atoms: N_13  and  C_14
REMARK    7  A    between atoms: C_19  and  N_21
REMARK    8  A    between atoms: C_28  and  C_29
REMARK                            x       y       z     vdW  Elec       q    Type
REMARK                         _______ _______ _______ _____ _____    ______ ____
ROOT
ATOM      1  C   UNL     1       0.776  12.606  19.959  0.00  0.00    -0.038 A 
ATOM      2  C   UNL     1      -0.258  12.752  19.032  0.00  0.00    -0.018 A 
ATOM      3  C   UNL     1      -0.715  11.642  18.331  0.00  0.00    +0.121 A 
ATOM      4  N   UNL     1      -1.747  11.825  17.380  0.00  0.00    -0.326 N 
ATOM      5  N   UNL     1      -0.169  10.423  18.494  0.00  0.00    -0.217 NA
ATOM      6  C   UNL     1       0.841  10.264  19.382  0.00  0.00    +0.130 A 
ATOM      7  C   UNL     1       1.329  11.331  20.127  0.00  0.00    -0.018 A 
ATOM      8  H   UNL     1      -0.703  13.723  18.842  0.00  0.00    +0.065 HD
ATOM      9  H   UNL     1      -2.494  12.347  17.829  0.00  0.00    +0.148 HD
ATOM     10  H   UNL     1       2.140  11.196  20.835  0.00  0.00    +0.065 HD
ENDROOT
BRANCH   6  11
ATOM     11  N   UNL     1       1.365   8.963  19.497  0.00  0.00    -0.248 N 
ATOM     12  C   UNL     1       2.344   8.498  18.529  0.00  0.00    +0.048 C 
ATOM     13  C   UNL     1       2.639   7.106  18.995  0.00  0.00    -0.006 A 
ATOM     14  C   UNL     1       1.887   6.828  20.132  0.00  0.00    +0.042 A 
ATOM     15  C   UNL     1       1.950   5.613  20.790  0.00  0.00    -0.049 A 
ATOM     16  C   UNL     1       2.811   4.646  20.271  0.00  0.00    -0.060 A 
ATOM     17  C   UNL     1       3.579   4.913  19.122  0.00  0.00    -0.050 A 
ATOM     18  C   UNL     1       3.504   6.154  18.462  0.00  0.00    +0.060 A 
ATOM     19  C   UNL     1       1.075   8.009  20.460  0.00  0.00    +0.253 C 
ATOM     20  O   UNL     1       0.325   8.040  21.416  0.00  0.00    -0.270 OA
ATOM     21  H   UNL     1       1.902   8.491  17.527  0.00  0.00    +0.052 HD
ATOM     22  H   UNL     1       3.241   9.125  18.574  0.00  0.00    +0.052 HD
ATOM     23  H   UNL     1       1.350   5.426  21.675  0.00  0.00    +0.063 HD
ATOM     24  H   UNL     1       2.889   3.676  20.760  0.00  0.00    +0.062 HD
ATOM     25  H   UNL     1       4.242   4.133  18.744  0.00  0.00    +0.062 HD
BRANCH  18  26
ATOM     26  C   UNL     1       4.322   6.449  17.233  0.00  0.00    +0.418 C 
ATOM     27  F   UNL     1       5.557   6.930  17.538  0.00  0.00    -0.166 F 
ATOM     28  F   UNL     1       3.754   7.369  16.405  0.00  0.00    -0.166 F 
ATOM     29  F   UNL     1       4.530   5.339  16.473  0.00  0.00    -0.166 F 
ENDBRANCH  18  26
ENDBRANCH   6  11
BRANCH   4  30
ATOM     30  C   UNL     1      -2.269  10.720  16.616  0.00  0.00    +0.022 C 
ATOM     31  C   UNL     1      -3.504  10.085  17.299  0.00  0.00    -0.034 C 
ATOM     32  C   UNL     1      -4.393  11.025  16.460  0.00  0.00    -0.050 C 
ATOM     33  C   UNL     1      -3.215  11.161  15.474  0.00  0.00    -0.034 C 
ATOM     34  H   UNL     1      -1.488  10.005  16.342  0.00  0.00    +0.050 HD
ATOM     35  H   UNL     1      -3.637   9.024  17.052  0.00  0.00    +0.028 HD
ATOM     36  H   UNL     1      -3.587  10.201  18.383  0.00  0.00    +0.028 HD
ATOM     37  H   UNL     1      -4.650  11.960  16.970  0.00  0.00    +0.027 HD
ATOM     38  H   UNL     1      -5.304  10.580  16.053  0.00  0.00    +0.027 HD
ATOM     39  H   UNL     1      -3.254  10.442  14.645  0.00  0.00    +0.028 HD
ATOM     40  H   UNL     1      -3.070  12.161  15.055  0.00  0.00    +0.028 HD
ENDBRANCH   4  30
BRANCH   1  41
ATOM     41  C   UNL     1       1.337  13.786  20.744  0.00  0.00    -0.012 C 
ATOM     42  H   UNL     1       2.285  13.469  21.200  0.00  0.00    +0.035 HD
BRANCH  41  43
ATOM     43  C   UNL     1       0.401  14.177  21.898  0.00  0.00    -0.058 C 
ATOM     44  H   UNL     1       0.857  14.921  22.561  0.00  0.00    +0.024 HD
ATOM     45  H   UNL     1       0.142  13.309  22.513  0.00  0.00    +0.024 HD
ATOM     46  H   UNL     1      -0.535  14.598  21.516  0.00  0.00    +0.024 HD
ENDBRANCH  41  43
BRANCH  41  47
ATOM     47  C   UNL     1       1.614  14.961  19.785  0.00  0.00    +0.014 C 
ATOM     48  H   UNL     1       1.481  15.914  20.315  0.00  0.00    +0.035 HD
ATOM     49  H   UNL     1       0.875  14.949  18.972  0.00  0.00    +0.035 HD
BRANCH  47  50
ATOM     50  C   UNL     1       2.970  14.932  19.162  0.00  0.00    +0.134 A 
ATOM     51  N   UNL     1       3.269  14.794  17.886  0.00  0.00    -0.135 NA
ATOM     52  N   UNL     1       4.637  14.827  17.756  0.00  0.00    -0.138 NA
ATOM     53  C   UNL     1       5.146  14.997  18.952  0.00  0.00    +0.120 A 
ATOM     54  N   UNL     1       4.140  15.072  19.864  0.00  0.00    -0.320 N 
ATOM     55  H   UNL     1       6.197  15.070  19.192  0.00  0.00    +0.105 HD
BRANCH  54  56
ATOM     56  C   UNL     1       4.290  15.267  21.280  0.00  0.00    +0.014 C 
ATOM     57  H   UNL     1       4.617  16.291  21.477  0.00  0.00    +0.046 HD
ATOM     58  H   UNL     1       5.038  14.562  21.651  0.00  0.00    +0.046 HD
ATOM     59  H   UNL     1       3.325  15.092  21.763  0.00  0.00    +0.046 HD
ENDBRANCH  54  56
ENDBRANCH  47  50
ENDBRANCH  41  47
ENDBRANCH   1  41
TORSDOF 8
ENDMDL
MODEL 6
REMARK VINA RESULT:    -7.365      2.313      3.266
REMARK INTER + INTRA:         -11.586
REMARK INTER:                 -11.811
REMARK INTRA:                   0.225
REMARK UNBOUND:                -1.207
REMARK  Name = 
REMARK  8 active torsions:
REMARK  status: ('A' for Active; 'I' for Inactive)
REMARK    1  A    between atoms: C_1  and  C_2
REMARK    2  A    between atoms: C_2  and  C_3
REMARK    3  A    between atoms: C_2  and  C_10
REMARK    4  A    between atoms: C_3  and  C_4
REMARK    5  A    between atoms: N_8  and  C_9
REMARK    6  A    between atoms: N_13  and  C_14
REMARK    7  A    between atoms: C_19  and  N_21
REMARK    8  A    between atoms: C_28  and  C_29
REMARK                            x       y       z     vdW  Elec       q    Type
REMARK                         _______ _______ _______ _____ _____    ______ ____
ROOT
ATOM      1  C   UNL     1       5.085   4.551  17.400  0.00  0.00    -0.038 A 
ATOM      2  C   UNL     1       4.461   3.448  17.986  0.00  0.00    -0.018 A 
ATOM      3  C   UNL     1       3.283   3.624  18.703  0.00  0.00    +0.121 A 
ATOM      4  N   UNL     1       2.688   2.491  19.307  0.00  0.00    -0.326 N 
ATOM      5  N   UNL     1       2.734   4.840  18.880  0.00  0.00    -0.217 NA
ATOM      6  C   UNL     1       3.330   5.922  18.327  0.00  0.00    +0.130 A 
ATOM      7  C   UNL     1       4.498   5.808  17.583  0.00  0.00    -0.018 A 
ATOM      8  H   UNL     1       4.890   2.455  17.899  0.00  0.00    +0.065 HD
ATOM      9  H   UNL     1       2.618   1.764  18.601  0.00  0.00    +0.148 HD
ATOM     10  H   UNL     1       4.970   6.681  17.144  0.00  0.00    +0.065 HD
ENDROOT
BRANCH   6  11
ATOM     11  N   UNL     1       2.701   7.160  18.557  0.00  0.00    -0.248 N 
ATOM     12  C   UNL     1       1.958   7.368  19.788  0.00  0.00    +0.048 C 
ATOM     13  C   UNL     1       1.462   8.773  19.646  0.00  0.00    -0.006 A 
ATOM     14  C   UNL     1       1.902   9.301  18.434  0.00  0.00    +0.042 A 
ATOM     15  C   UNL     1       1.599  10.587  18.027  0.00  0.00    -0.049 A 
ATOM     16  C   UNL     1       0.820  11.365  18.883  0.00  0.00    -0.060 A 
ATOM     17  C   UNL     1       0.369  10.846  20.111  0.00  0.00    -0.050 A 
ATOM     18  C   UNL     1       0.684   9.535  20.514  0.00  0.00    +0.060 A 
ATOM     19  C   UNL     1       2.695   8.279  17.737  0.00  0.00    +0.253 C 
ATOM     20  O   UNL     1       3.206   8.478  16.652  0.00  0.00    -0.270 OA
ATOM     21  H   UNL     1       1.123   6.661  19.842  0.00  0.00    +0.052 HD
ATOM     22  H   UNL     1       2.628   7.274  20.649  0.00  0.00    +0.052 HD
ATOM     23  H   UNL     1       1.956  10.969  17.076  0.00  0.00    +0.063 HD
ATOM     24  H   UNL     1       0.559  12.383  18.599  0.00  0.00    +0.062 HD
ATOM     25  H   UNL     1      -0.238  11.484  20.756  0.00  0.00    +0.062 HD
BRANCH  18  26
ATOM     26  C   UNL     1       0.207   8.971  21.826  0.00  0.00    +0.418 C 
ATOM     27  F   UNL     1       1.237   8.581  22.625  0.00  0.00    -0.166 F 
ATOM     28  F   UNL     1      -0.599   7.882  21.694  0.00  0.00    -0.166 F 
ATOM     29  F   UNL     1      -0.503   9.879  22.549  0.00  0.00    -0.166 F 
ENDBRANCH  18  26
ENDBRANCH   6  11
BRANCH   4  30
ATOM     30  C   UNL     1       1.467   2.600  20.066  0.00  0.00    +0.022 C 
ATOM     31  C   UNL     1       1.659   2.137  21.529  0.00  0.00    -0.034 C 
ATOM     32  C   UNL     1       1.968   3.601  21.903  0.00  0.00    -0.050 C 
ATOM     33  C   UNL     1       1.219   4.022  20.622  0.00  0.00    -0.034 C 
ATOM     34  H   UNL     1       0.621   2.132  19.552  0.00  0.00    +0.050 HD
ATOM     35  H   UNL     1       0.738   1.755  21.987  0.00  0.00    +0.028 HD
ATOM     36  H   UNL     1       2.463   1.422  21.723  0.00  0.00    +0.028 HD
ATOM     37  H   UNL     1       3.036   3.843  21.889  0.00  0.00    +0.027 HD
ATOM     38  H   UNL     1       1.535   3.952  22.843  0.00  0.00    +0.027 HD
ATOM     39  H   UNL     1       0.157   4.241  20.789  0.00  0.00    +0.028 HD
ATOM     40  H   UNL     1       1.661   4.862  20.078  0.00  0.00    +0.028 HD
ENDBRANCH   4  30
BRANCH   1  41
ATOM     41  C   UNL     1       6.388   4.428  16.619  0.00  0.00    -0.012 C 
ATOM     42  H   UNL     1       6.496   3.380  16.304  0.00  0.00    +0.035 HD
BRANCH  41  43
ATOM     43  C   UNL     1       7.599   4.749  17.508  0.00  0.00    -0.058 C 
ATOM     44  H   UNL     1       7.404   4.524  18.562  0.00  0.00    +0.024 HD
ATOM     45  H   UNL     1       7.870   5.807  17.445  0.00  0.00    +0.024 HD
ATOM     46  H   UNL     1       8.476   4.168  17.198  0.00  0.00    +0.024 HD
ENDBRANCH  41  43
BRANCH  41  47
ATOM     47  C   UNL     1       6.326   5.321  15.363  0.00  0.00    +0.014 C 
ATOM     48  H   UNL     1       7.183   6.006  15.350  0.00  0.00    +0.035 HD
ATOM     49  H   UNL     1       5.424   5.948  15.407  0.00  0.00    +0.035 HD
BRANCH  47  50
ATOM     50  C   UNL     1       6.284   4.562  14.078  0.00  0.00    +0.134 A 
ATOM     51  N   UNL     1       5.384   3.682  13.689  0.00  0.00    -0.135 NA
ATOM     52  N   UNL     1       5.730   3.233  12.437  0.00  0.00    -0.138 NA
ATOM     53  C   UNL     1       6.827   3.856  12.081  0.00  0.00    +0.120 A 
ATOM     54  N   UNL     1       7.209   4.701  13.075  0.00  0.00    -0.320 N 
ATOM     55  H   UNL     1       7.356   3.730  11.147  0.00  0.00    +0.105 HD
BRANCH  54  56
ATOM     56  C   UNL     1       8.356   5.568  13.059  0.00  0.00    +0.014 C 
ATOM     57  H   UNL     1       8.527   5.968  14.062  0.00  0.00    +0.046 HD
ATOM     58  H   UNL     1       8.162   6.387  12.363  0.00  0.00    +0.046 HD
ATOM     59  H   UNL     1       9.228   4.992  12.742  0.00  0.00    +0.046 HD
ENDBRANCH  54  56
ENDBRANCH  47  50
ENDBRANCH  41  47
ENDBRANCH   1  41
TORSDOF 8
ENDMDL
MODEL 7
REMARK VINA RESULT:    -7.134      2.109      2.630
REMARK INTER + INTRA:         -11.261
REMARK INTER:                 -10.759
REMARK INTRA:                  -0.502
REMARK UNBOUND:                -1.207
REMARK  Name = 
REMARK  8 active torsions:
REMARK  status: ('A' for Active; 'I' for Inactive)
REMARK    1  A    between atoms: C_1  and  C_2
REMARK    2  A    between atoms: C_2  and  C_3
REMARK    3  A    between atoms: C_2  and  C_10
REMARK    4  A    between atoms: C_3  and  C_4
REMARK    5  A    between atoms: N_8  and  C_9
REMARK    6  A    between atoms: N_13  and  C_14
REMARK    7  A    between atoms: C_19  and  N_21
REMARK    8  A    between atoms: C_28  and  C_29
REMARK                            x       y       z     vdW  Elec       q    Type
REMARK                         _______ _______ _______ _____ _____    ______ ____
ROOT
ATOM      1  C   UNL     1       4.226   6.211  17.042  0.00  0.00    -0.038 A 
ATOM      2  C   UNL     1       3.713   4.917  17.149  0.00  0.00    -0.018 A 
ATOM      3  C   UNL     1       2.612   4.678  17.964  0.00  0.00    +0.121 A 
ATOM      4  N   UNL     1       2.131   3.352  18.074  0.00  0.00    -0.326 N 
ATOM      5  N   UNL     1       2.035   5.657  18.685  0.00  0.00    -0.217 NA
ATOM      6  C   UNL     1       2.524   6.917  18.600  0.00  0.00    +0.130 A 
ATOM      7  C   UNL     1       3.610   7.223  17.788  0.00  0.00    -0.018 A 
ATOM      8  H   UNL     1       4.170   4.090  16.615  0.00  0.00    +0.065 HD
ATOM      9  H   UNL     1       2.016   2.985  17.133  0.00  0.00    +0.148 HD
ATOM     10  H   UNL     1       3.997   8.235  17.727  0.00  0.00    +0.065 HD
ENDROOT
BRANCH   6  11
ATOM     11  N   UNL     1       1.874   7.888  19.384  0.00  0.00    -0.248 N 
ATOM     12  C   UNL     1       1.546   9.178  18.800  0.00  0.00    +0.048 C 
ATOM     13  C   UNL     1       0.881   9.897  19.932  0.00  0.00    -0.006 A 
ATOM     14  C   UNL     1       0.840   9.069  21.050  0.00  0.00    +0.042 A 
ATOM     15  C   UNL     1       0.281   9.464  22.251  0.00  0.00    -0.049 A 
ATOM     16  C   UNL     1      -0.257  10.749  22.317  0.00  0.00    -0.060 A 
ATOM     17  C   UNL     1      -0.224  11.598  21.195  0.00  0.00    -0.050 A 
ATOM     18  C   UNL     1       0.349  11.183  19.978  0.00  0.00    +0.060 A 
ATOM     19  C   UNL     1       1.469   7.785  20.707  0.00  0.00    +0.253 C 
ATOM     20  O   UNL     1       1.563   6.871  21.503  0.00  0.00    -0.270 OA
ATOM     21  H   UNL     1       2.463   9.691  18.494  0.00  0.00    +0.052 HD
ATOM     22  H   UNL     1       0.855   9.042  17.961  0.00  0.00    +0.052 HD
ATOM     23  H   UNL     1       0.265   8.794  23.105  0.00  0.00    +0.063 HD
ATOM     24  H   UNL     1      -0.706  11.098  23.246  0.00  0.00    +0.062 HD
ATOM     25  H   UNL     1      -0.655  12.596  21.283  0.00  0.00    +0.062 HD
BRANCH  18  26
ATOM     26  C   UNL     1       0.388  12.083  18.772  0.00  0.00    +0.418 C 
ATOM     27  F   UNL     1      -0.455  11.666  17.789  0.00  0.00    -0.166 F 
ATOM     28  F   UNL     1       1.618  12.177  18.198  0.00  0.00    -0.166 F 
ATOM     29  F   UNL     1       0.013  13.358  19.068  0.00  0.00    -0.166 F 
ENDBRANCH  18  26
ENDBRANCH   6  11
BRANCH   4  30
ATOM     30  C   UNL     1       0.995   3.031  18.901  0.00  0.00    +0.022 C 
ATOM     31  C   UNL     1       1.193   1.694  19.654  0.00  0.00    -0.034 C 
ATOM     32  C   UNL     1       1.768   2.500  20.836  0.00  0.00    -0.050 C 
ATOM     33  C   UNL     1       1.026   3.732  20.280  0.00  0.00    -0.034 C 
ATOM     34  H   UNL     1       0.052   3.103  18.349  0.00  0.00    +0.050 HD
ATOM     35  H   UNL     1       0.250   1.187  19.890  0.00  0.00    +0.028 HD
ATOM     36  H   UNL     1       1.874   0.967  19.204  0.00  0.00    +0.028 HD
ATOM     37  H   UNL     1       2.860   2.596  20.815  0.00  0.00    +0.027 HD
ATOM     38  H   UNL     1       1.460   2.170  21.831  0.00  0.00    +0.027 HD
ATOM     39  H   UNL     1       0.029   3.875  20.714  0.00  0.00    +0.028 HD
ATOM     40  H   UNL     1       1.571   4.678  20.353  0.00  0.00    +0.028 HD
ENDBRANCH   4  30
BRANCH   1  41
ATOM     41  C   UNL     1       5.442   6.535  16.182  0.00  0.00    -0.012 C 
ATOM     42  H   UNL     1       5.486   7.626  16.056  0.00  0.00    +0.035 HD
BRANCH  41  43
ATOM     43  C   UNL     1       5.302   5.933  14.776  0.00  0.00    -0.058 C 
ATOM     44  H   UNL     1       5.415   4.843  14.783  0.00  0.00    +0.024 HD
ATOM     45  H   UNL     1       6.059   6.334  14.094  0.00  0.00    +0.024 HD
ATOM     46  H   UNL     1       4.321   6.166  14.348  0.00  0.00    +0.024 HD
ENDBRANCH  41  43
BRANCH  41  47
ATOM     47  C   UNL     1       6.723   6.065  16.900  0.00  0.00    +0.014 C 
ATOM     48  H   UNL     1       7.392   5.570  16.183  0.00  0.00    +0.035 HD
ATOM     49  H   UNL     1       6.461   5.311  17.656  0.00  0.00    +0.035 HD
BRANCH  47  50
ATOM     50  C   UNL     1       7.469   7.157  17.593  0.00  0.00    +0.134 A 
ATOM     51  N   UNL     1       7.589   8.415  17.219  0.00  0.00    -0.135 NA
ATOM     52  N   UNL     1       8.356   9.072  18.151  0.00  0.00    -0.138 NA
ATOM     53  C   UNL     1       8.677   8.207  19.082  0.00  0.00    +0.120 A 
ATOM     54  N   UNL     1       8.142   6.996  18.778  0.00  0.00    -0.320 N 
ATOM     55  H   UNL     1       9.273   8.410  19.960  0.00  0.00    +0.105 HD
BRANCH  54  56
ATOM     56  C   UNL     1       8.259   5.794  19.557  0.00  0.00    +0.014 C 
ATOM     57  H   UNL     1       8.315   6.048  20.618  0.00  0.00    +0.046 HD
ATOM     58  H   UNL     1       9.169   5.271  19.254  0.00  0.00    +0.046 HD
ATOM     59  H   UNL     1       7.381   5.170  19.377  0.00  0.00    +0.046 HD
ENDBRANCH  54  56
ENDBRANCH  47  50
ENDBRANCH  41  47
ENDBRANCH   1  41
TORSDOF 8
ENDMDL
MODEL 8
REMARK VINA RESULT:    -7.121      2.422      2.848
REMARK INTER + INTRA:         -11.241
REMARK INTER:                 -10.423
REMARK INTRA:                  -0.818
REMARK UNBOUND:                -1.207
REMARK  Name = 
REMARK  8 active torsions:
REMARK  status: ('A' for Active; 'I' for Inactive)
REMARK    1  A    between atoms: C_1  and  C_2
REMARK    2  A    between atoms: C_2  and  C_3
REMARK    3  A    between atoms: C_2  and  C_10
REMARK    4  A    between atoms: C_3  and  C_4
REMARK    5  A    between atoms: N_8  and  C_9
REMARK    6  A    between atoms: N_13  and  C_14
REMARK    7  A    between atoms: C_19  and  N_21
REMARK    8  A    between atoms: C_28  and  C_29
REMARK                            x       y       z     vdW  Elec       q    Type
REMARK                         _______ _______ _______ _____ _____    ______ ____
ROOT
ATOM      1  C   UNL     1       4.135   6.959  17.401  0.00  0.00    -0.038 A 
ATOM      2  C   UNL     1       4.119   5.831  18.224  0.00  0.00    -0.018 A 
ATOM      3  C   UNL     1       3.149   5.716  19.213  0.00  0.00    +0.121 A 
ATOM      4  N   UNL     1       3.173   4.575  20.050  0.00  0.00    -0.326 N 
ATOM      5  N   UNL     1       2.233   6.679  19.427  0.00  0.00    -0.217 NA
ATOM      6  C   UNL     1       2.240   7.783  18.644  0.00  0.00    +0.130 A 
ATOM      7  C   UNL     1       3.171   7.948  17.626  0.00  0.00    -0.018 A 
ATOM      8  H   UNL     1       4.861   5.048  18.111  0.00  0.00    +0.065 HD
ATOM      9  H   UNL     1       3.231   3.754  19.453  0.00  0.00    +0.148 HD
ATOM     10  H   UNL     1       3.171   8.837  17.004  0.00  0.00    +0.065 HD
ENDROOT
BRANCH   6  11
ATOM     11  N   UNL     1       1.256   8.749  18.928  0.00  0.00    -0.248 N 
ATOM     12  C   UNL     1       0.228   9.036  17.940  0.00  0.00    +0.048 C 
ATOM     13  C   UNL     1      -0.596  10.089  18.613  0.00  0.00    -0.006 A 
ATOM     14  C   UNL     1      -0.069  10.358  19.873  0.00  0.00    +0.042 A 
ATOM     15  C   UNL     1      -0.623  11.290  20.730  0.00  0.00    -0.049 A 
ATOM     16  C   UNL     1      -1.756  11.974  20.290  0.00  0.00    -0.060 A 
ATOM     17  C   UNL     1      -2.301  11.713  19.019  0.00  0.00    -0.050 A 
ATOM     18  C   UNL     1      -1.726  10.761  18.156  0.00  0.00    +0.060 A 
ATOM     19  C   UNL     1       1.110   9.505  20.082  0.00  0.00    +0.253 C 
ATOM     20  O   UNL     1       1.763   9.533  21.107  0.00  0.00    -0.270 OA
ATOM     21  H   UNL     1       0.689   9.423  17.026  0.00  0.00    +0.052 HD
ATOM     22  H   UNL     1      -0.365   8.136  17.748  0.00  0.00    +0.052 HD
ATOM     23  H   UNL     1      -0.188  11.478  21.707  0.00  0.00    +0.063 HD
ATOM     24  H   UNL     1      -2.223  12.717  20.935  0.00  0.00    +0.062 HD
ATOM     25  H   UNL     1      -3.188  12.266  18.707  0.00  0.00    +0.062 HD
BRANCH  18  26
ATOM     26  C   UNL     1      -2.303  10.473  16.795  0.00  0.00    +0.418 C 
ATOM     27  F   UNL     1      -3.642  10.242  16.840  0.00  0.00    -0.166 F 
ATOM     28  F   UNL     1      -1.754   9.386  16.186  0.00  0.00    -0.166 F 
ATOM     29  F   UNL     1      -2.132  11.513  15.933  0.00  0.00    -0.166 F 
ENDBRANCH  18  26
ENDBRANCH   6  11
BRANCH   4  30
ATOM     30  C   UNL     1       2.199   4.390  21.096  0.00  0.00    +0.022 C 
ATOM     31  C   UNL     1       0.839   3.913  20.534  0.00  0.00    -0.034 C 
ATOM     32  C   UNL     1       1.303   2.461  20.773  0.00  0.00    -0.050 C 
ATOM     33  C   UNL     1       2.312   3.016  21.799  0.00  0.00    -0.034 C 
ATOM     34  H   UNL     1       2.134   5.261  21.755  0.00  0.00    +0.050 HD
ATOM     35  H   UNL     1      -0.014   4.205  21.160  0.00  0.00    +0.028 HD
ATOM     36  H   UNL     1       0.611   4.170  19.496  0.00  0.00    +0.028 HD
ATOM     37  H   UNL     1       1.773   2.000  19.897  0.00  0.00    +0.027 HD
ATOM     38  H   UNL     1       0.547   1.781  21.171  0.00  0.00    +0.027 HD
ATOM     39  H   UNL     1       1.929   3.025  22.827  0.00  0.00    +0.028 HD
ATOM     40  H   UNL     1       3.291   2.529  21.801  0.00  0.00    +0.028 HD
ENDBRANCH   4  30
BRANCH   1  41
ATOM     41  C   UNL     1       5.184   7.154  16.312  0.00  0.00    -0.012 C 
ATOM     42  H   UNL     1       5.368   8.234  16.209  0.00  0.00    +0.035 HD
BRANCH  41  43
ATOM     43  C   UNL     1       4.668   6.664  14.951  0.00  0.00    -0.058 C 
ATOM     44  H   UNL     1       5.070   5.679  14.691  0.00  0.00    +0.024 HD
ATOM     45  H   UNL     1       4.948   7.353  14.147  0.00  0.00    +0.024 HD
ATOM     46  H   UNL     1       3.574   6.590  14.952  0.00  0.00    +0.024 HD
ENDBRANCH  41  43
BRANCH  41  47
ATOM     47  C   UNL     1       6.498   6.463  16.728  0.00  0.00    +0.014 C 
ATOM     48  H   UNL     1       7.045   6.134  15.835  0.00  0.00    +0.035 HD
ATOM     49  H   UNL     1       6.265   5.557  17.305  0.00  0.00    +0.035 HD
BRANCH  47  50
ATOM     50  C   UNL     1       7.394   7.313  17.567  0.00  0.00    +0.134 A 
ATOM     51  N   UNL     1       7.696   8.584  17.392  0.00  0.00    -0.135 NA
ATOM     52  N   UNL     1       8.550   8.968  18.398  0.00  0.00    -0.138 NA
ATOM     53  C   UNL     1       8.743   7.929  19.174  0.00  0.00    +0.120 A 
ATOM     54  N   UNL     1       8.037   6.871  18.695  0.00  0.00    -0.320 N 
ATOM     55  H   UNL     1       9.362   7.902  20.059  0.00  0.00    +0.105 HD
BRANCH  54  56
ATOM     56  C   UNL     1       7.979   5.556  19.273  0.00  0.00    +0.014 C 
ATOM     57  H   UNL     1       6.949   5.192  19.255  0.00  0.00    +0.046 HD
ATOM     58  H   UNL     1       8.333   5.614  20.305  0.00  0.00    +0.046 HD
ATOM     59  H   UNL     1       8.614   4.886  18.687  0.00  0.00    +0.046 HD
ENDBRANCH  54  56
ENDBRANCH  47  50
ENDBRANCH  41  47
ENDBRANCH   1  41
TORSDOF 8
ENDMDL
MODEL 9
REMARK VINA RESULT:    -7.011      3.501      7.783
REMARK INTER + INTRA:         -11.086
REMARK INTER:                 -10.040
REMARK INTRA:                  -1.047
REMARK UNBOUND:                -1.207
REMARK  Name = 
REMARK  8 active torsions:
REMARK  status: ('A' for Active; 'I' for Inactive)
REMARK    1  A    between atoms: C_1  and  C_2
REMARK    2  A    between atoms: C_2  and  C_3
REMARK    3  A    between atoms: C_2  and  C_10
REMARK    4  A    between atoms: C_3  and  C_4
REMARK    5  A    between atoms: N_8  and  C_9
REMARK    6  A    between atoms: N_13  and  C_14
REMARK    7  A    between atoms: C_19  and  N_21
REMARK    8  A    between atoms: C_28  and  C_29
REMARK                            x       y       z     vdW  Elec       q    Type
REMARK                         _______ _______ _______ _____ _____    ______ ____
ROOT
ATOM      1  C   UNL     1      -0.243  11.951  20.890  0.00  0.00    -0.038 A 
ATOM      2  C   UNL     1      -1.447  11.977  20.183  0.00  0.00    -0.018 A 
ATOM      3  C   UNL     1      -1.702  11.004  19.223  0.00  0.00    +0.121 A 
ATOM      4  N   UNL     1      -2.919  11.071  18.504  0.00  0.00    -0.326 N 
ATOM      5  N   UNL     1      -0.805  10.045  18.926  0.00  0.00    -0.217 NA
ATOM      6  C   UNL     1       0.371  10.010  19.595  0.00  0.00    +0.130 A 
ATOM      7  C   UNL     1       0.677  10.943  20.579  0.00  0.00    -0.018 A 
ATOM      8  H   UNL     1      -2.183  12.754  20.363  0.00  0.00    +0.065 HD
ATOM      9  H   UNL     1      -3.673  11.171  19.179  0.00  0.00    +0.148 HD
ATOM     10  H   UNL     1       1.622  10.909  21.110  0.00  0.00    +0.065 HD
ENDROOT
BRANCH   6  11
ATOM     11  N   UNL     1       1.261   8.982  19.230  0.00  0.00    -0.248 N 
ATOM     12  C   UNL     1       1.229   7.719  19.948  0.00  0.00    +0.048 C 
ATOM     13  C   UNL     1       2.299   6.923  19.269  0.00  0.00    -0.006 A 
ATOM     14  C   UNL     1       2.871   7.683  18.253  0.00  0.00    +0.042 A 
ATOM     15  C   UNL     1       3.890   7.208  17.449  0.00  0.00    -0.049 A 
ATOM     16  C   UNL     1       4.344   5.910  17.686  0.00  0.00    -0.060 A 
ATOM     17  C   UNL     1       3.775   5.129  18.709  0.00  0.00    -0.050 A 
ATOM     18  C   UNL     1       2.737   5.626  19.521  0.00  0.00    +0.060 A 
ATOM     19  C   UNL     1       2.212   8.997  18.221  0.00  0.00    +0.253 C 
ATOM     20  O   UNL     1       2.516   9.860  17.421  0.00  0.00    -0.270 OA
ATOM     21  H   UNL     1       1.473   7.885  21.002  0.00  0.00    +0.052 HD
ATOM     22  H   UNL     1       0.250   7.245  19.826  0.00  0.00    +0.052 HD
ATOM     23  H   UNL     1       4.317   7.826  16.665  0.00  0.00    +0.063 HD
ATOM     24  H   UNL     1       5.145   5.499  17.075  0.00  0.00    +0.062 HD
ATOM     25  H   UNL     1       4.154   4.118  18.867  0.00  0.00    +0.062 HD
BRANCH  18  26
ATOM     26  C   UNL     1       2.121   4.797  20.617  0.00  0.00    +0.418 C 
ATOM     27  F   UNL     1       2.375   5.305  21.853  0.00  0.00    -0.166 F 
ATOM     28  F   UNL     1       2.561   3.509  20.643  0.00  0.00    -0.166 F 
ATOM     29  F   UNL     1       0.766   4.729  20.512  0.00  0.00    -0.166 F 
ENDBRANCH  18  26
ENDBRANCH   6  11
BRANCH   4  30
ATOM     30  C   UNL     1      -3.250  10.097  17.494  0.00  0.00    +0.022 C 
ATOM     31  C   UNL     1      -4.172  10.692  16.404  0.00  0.00    -0.034 C 
ATOM     32  C   UNL     1      -2.908  11.039  15.591  0.00  0.00    -0.050 C 
ATOM     33  C   UNL     1      -2.163   9.959  16.401  0.00  0.00    -0.034 C 
ATOM     34  H   UNL     1      -3.612   9.160  17.931  0.00  0.00    +0.050 HD
ATOM     35  H   UNL     1      -4.809   9.942  15.920  0.00  0.00    +0.028 HD
ATOM     36  H   UNL     1      -4.795  11.543  16.691  0.00  0.00    +0.028 HD
ATOM     37  H   UNL     1      -2.537  12.055  15.766  0.00  0.00    +0.027 HD
ATOM     38  H   UNL     1      -2.973  10.864  14.515  0.00  0.00    +0.027 HD
ATOM     39  H   UNL     1      -2.161   8.974  15.918  0.00  0.00    +0.028 HD
ATOM     40  H   UNL     1      -1.135  10.209  16.677  0.00  0.00    +0.028 HD
ENDBRANCH   4  30
BRANCH   1  41
ATOM     41  C   UNL     1       0.106  13.000  21.939  0.00  0.00    -0.012 C 
ATOM     42  H   UNL     1       0.982  12.642  22.498  0.00  0.00    +0.035 HD
BRANCH  41  43
ATOM     43  C   UNL     1      -1.031  13.162  22.960  0.00  0.00    -0.058 C 
ATOM     44  H   UNL     1      -1.973  13.451  22.481  0.00  0.00    +0.024 HD
ATOM     45  H   UNL     1      -0.794  13.931  23.702  0.00  0.00    +0.024 HD
ATOM     46  H   UNL     1      -1.205  12.226  23.502  0.00  0.00    +0.024 HD
ENDBRANCH  41  43
BRANCH  41  47
ATOM     47  C   UNL     1       0.468  14.329  21.244  0.00  0.00    +0.014 C 
ATOM     48  H   UNL     1       0.137  15.174  21.861  0.00  0.00    +0.035 HD
ATOM     49  H   UNL     1      -0.079  14.402  20.293  0.00  0.00    +0.035 HD
BRANCH  47  50
ATOM     50  C   UNL     1       1.921  14.481  20.941  0.00  0.00    +0.134 A 
ATOM     51  N   UNL     1       2.890  14.802  21.775  0.00  0.00    -0.135 NA
ATOM     52  N   UNL     1       4.073  14.824  21.077  0.00  0.00    -0.138 NA
ATOM     53  C   UNL     1       3.807  14.504  19.834  0.00  0.00    +0.120 A 
ATOM     54  N   UNL     1       2.473  14.277  19.702  0.00  0.00    -0.320 N 
ATOM     55  H   UNL     1       4.524  14.428  19.029  0.00  0.00    +0.105 HD
BRANCH  54  56
ATOM     56  C   UNL     1       1.791  13.891  18.497  0.00  0.00    +0.014 C 
ATOM     57  H   UNL     1       1.374  12.888  18.616  0.00  0.00    +0.046 HD
ATOM     58  H   UNL     1       2.510  13.897  17.674  0.00  0.00    +0.046 HD
ATOM     59  H   UNL     1       0.984  14.603  18.307  0.00  0.00    +0.046 HD
ENDBRANCH  54  56
ENDBRANCH  47  50
ENDBRANCH  41  47
ENDBRANCH   1  41
TORSDOF 8
ENDMDL
MODEL 10
REMARK VINA RESULT:    -6.908      2.464      3.037
REMARK INTER + INTRA:         -10.941
REMARK INTER:                 -10.863
REMARK INTRA:                  -0.078
REMARK UNBOUND:                -1.207
REMARK  Name = 
REMARK  8 active torsions:
REMARK  status: ('A' for Active; 'I' for Inactive)
REMARK    1  A    between atoms: C_1  and  C_2
REMARK    2  A    between atoms: C_2  and  C_3
REMARK    3  A    between atoms: C_2  and  C_10
REMARK    4  A    between atoms: C_3  and  C_4
REMARK    5  A    between atoms: N_8  and  C_9
REMARK    6  A    between atoms: N_13  and  C_14
REMARK    7  A    between atoms: C_19  and  N_21
REMARK    8  A    between atoms: C_28  and  C_29
REMARK                            x       y       z     vdW  Elec       q    Type
REMARK                         _______ _______ _______ _____ _____    ______ ____
ROOT
ATOM      1  C   UNL     1       3.901   7.288  17.645  0.00  0.00    -0.038 A 
ATOM      2  C   UNL     1       3.883   6.047  18.285  0.00  0.00    -0.018 A 
ATOM      3  C   UNL     1       2.972   5.814  19.309  0.00  0.00    +0.121 A 
ATOM      4  N   UNL     1       2.994   4.556  19.956  0.00  0.00    -0.326 N 
ATOM      5  N   UNL     1       2.117   6.764  19.730  0.00  0.00    -0.217 NA
ATOM      6  C   UNL     1       2.127   7.976  19.128  0.00  0.00    +0.130 A 
ATOM      7  C   UNL     1       3.000   8.265  18.086  0.00  0.00    -0.018 A 
ATOM      8  H   UNL     1       4.579   5.264  18.002  0.00  0.00    +0.065 HD
ATOM      9  H   UNL     1       2.977   3.837  19.238  0.00  0.00    +0.148 HD
ATOM     10  H   UNL     1       3.003   9.239  17.609  0.00  0.00    +0.065 HD
ENDROOT
BRANCH   6  11
ATOM     11  N   UNL     1       1.209   8.922  19.623  0.00  0.00    -0.248 N 
ATOM     12  C   UNL     1       0.333   9.622  18.698  0.00  0.00    +0.048 C 
ATOM     13  C   UNL     1      -0.465  10.510  19.602  0.00  0.00    -0.006 A 
ATOM     14  C   UNL     1      -0.065  10.311  20.920  0.00  0.00    +0.042 A 
ATOM     15  C   UNL     1      -0.629  10.995  21.982  0.00  0.00    -0.049 A 
ATOM     16  C   UNL     1      -1.636  11.915  21.691  0.00  0.00    -0.060 A 
ATOM     17  C   UNL     1      -2.051  12.127  20.363  0.00  0.00    -0.050 A 
ATOM     18  C   UNL     1      -1.468  11.424  19.291  0.00  0.00    +0.060 A 
ATOM     19  C   UNL     1       0.999   9.297  20.942  0.00  0.00    +0.253 C 
ATOM     20  O   UNL     1       1.527   8.927  21.972  0.00  0.00    -0.270 OA
ATOM     21  H   UNL     1       0.931  10.213  17.996  0.00  0.00    +0.052 HD
ATOM     22  H   UNL     1      -0.313   8.906  18.181  0.00  0.00    +0.052 HD
ATOM     23  H   UNL     1      -0.295  10.817  22.999  0.00  0.00    +0.063 HD
ATOM     24  H   UNL     1      -2.104  12.474  22.499  0.00  0.00    +0.062 HD
ATOM     25  H   UNL     1      -2.841  12.854  20.172  0.00  0.00    +0.062 HD
BRANCH  18  26
ATOM     26  C   UNL     1      -1.906  11.642  17.868  0.00  0.00    +0.418 C 
ATOM     27  F   UNL     1      -1.749  10.529  17.102  0.00  0.00    -0.166 F 
ATOM     28  F   UNL     1      -1.225  12.635  17.231  0.00  0.00    -0.166 F 
ATOM     29  F   UNL     1      -3.223  11.974  17.779  0.00  0.00    -0.166 F 
ENDBRANCH  18  26
ENDBRANCH   6  11
BRANCH   4  30
ATOM     30  C   UNL     1       2.079   4.245  21.026  0.00  0.00    +0.022 C 
ATOM     31  C   UNL     1       0.743   3.680  20.490  0.00  0.00    -0.034 C 
ATOM     32  C   UNL     1       1.334   2.264  20.646  0.00  0.00    -0.050 C 
ATOM     33  C   UNL     1       2.332   2.857  21.661  0.00  0.00    -0.034 C 
ATOM     34  H   UNL     1       1.968   5.079  21.726  0.00  0.00    +0.050 HD
ATOM     35  H   UNL     1      -0.107   3.873  21.157  0.00  0.00    +0.028 HD
ATOM     36  H   UNL     1       0.456   3.961  19.474  0.00  0.00    +0.028 HD
ATOM     37  H   UNL     1       1.807   1.881  19.735  0.00  0.00    +0.027 HD
ATOM     38  H   UNL     1       0.653   1.505  21.038  0.00  0.00    +0.027 HD
ATOM     39  H   UNL     1       1.990   2.790  22.701  0.00  0.00    +0.028 HD
ATOM     40  H   UNL     1       3.347   2.454  21.607  0.00  0.00    +0.028 HD
ENDBRANCH   4  30
BRANCH   1  41
ATOM     41  C   UNL     1       4.888   7.613  16.530  0.00  0.00    -0.012 C 
ATOM     42  H   UNL     1       4.708   8.650  16.210  0.00  0.00    +0.035 HD
BRANCH  41  43
ATOM     43  C   UNL     1       4.649   6.724  15.301  0.00  0.00    -0.058 C 
ATOM     44  H   UNL     1       3.942   5.914  15.513  0.00  0.00    +0.024 HD
ATOM     45  H   UNL     1       5.579   6.262  14.956  0.00  0.00    +0.024 HD
ATOM     46  H   UNL     1       4.246   7.310  14.467  0.00  0.00    +0.024 HD
ENDBRANCH  41  43
BRANCH  41  47
ATOM     47  C   UNL     1       6.330   7.502  17.067  0.00  0.00    +0.014 C 
ATOM     48  H   UNL     1       6.369   7.858  18.105  0.00  0.00    +0.035 HD
ATOM     49  H   UNL     1       6.987   8.163  16.484  0.00  0.00    +0.035 HD
BRANCH  47  50
ATOM     50  C   UNL     1       6.901   6.125  16.998  0.00  0.00    +0.134 A 
ATOM     51  N   UNL     1       6.954   5.324  15.953  0.00  0.00    -0.135 NA
ATOM     52  N   UNL     1       7.566   4.154  16.334  0.00  0.00    -0.138 NA
ATOM     53  C   UNL     1       7.886   4.268  17.600  0.00  0.00    +0.120 A 
ATOM     54  N   UNL     1       7.493   5.485  18.058  0.00  0.00    -0.320 N 
ATOM     55  H   UNL     1       8.385   3.520  18.200  0.00  0.00    +0.105 HD
BRANCH  54  56
ATOM     56  C   UNL     1       7.675   5.992  19.391  0.00  0.00    +0.014 C 
ATOM     57  H   UNL     1       7.813   7.076  19.356  0.00  0.00    +0.046 HD
ATOM     58  H   UNL     1       8.561   5.521  19.823  0.00  0.00    +0.046 HD
ATOM     59  H   UNL     1       6.788   5.755  19.981  0.00  0.00    +0.046 HD
ENDBRANCH  54  56
ENDBRANCH  47  50
ENDBRANCH  41  47
ENDBRANCH   1  41
TORSDOF 8
ENDMDL
MODEL 11
REMARK VINA RESULT:    -6.809      4.115      9.094
REMARK INTER + INTRA:         -10.802
REMARK INTER:                 -10.191
REMARK INTRA:                  -0.611
REMARK UNBOUND:                -1.207
REMARK  Name = 
REMARK  8 active torsions:
REMARK  status: ('A' for Active; 'I' for Inactive)
REMARK    1  A    between atoms: C_1  and  C_2
REMARK    2  A    between atoms: C_2  and  C_3
REMARK    3  A    between atoms: C_2  and  C_10
REMARK    4  A    between atoms: C_3  and  C_4
REMARK    5  A    between atoms: N_8  and  C_9
REMARK    6  A    between atoms: N_13  and  C_14
REMARK    7  A    between atoms: C_19  and  N_21
REMARK    8  A    between atoms: C_28  and  C_29
REMARK                            x       y       z     vdW  Elec       q    Type
REMARK                         _______ _______ _______ _____ _____    ______ ____
ROOT
ATOM      1  C   UNL     1      -0.666  11.446  21.158  0.00  0.00    -0.038 A 
ATOM      2  C   UNL     1      -1.516  11.872  20.135  0.00  0.00    -0.018 A 
ATOM      3  C   UNL     1      -1.429  11.281  18.879  0.00  0.00    +0.121 A 
ATOM      4  N   UNL     1      -2.286  11.751  17.855  0.00  0.00    -0.326 N 
ATOM      5  N   UNL     1      -0.524  10.325  18.603  0.00  0.00    -0.217 NA
ATOM      6  C   UNL     1       0.315   9.907  19.580  0.00  0.00    +0.130 A 
ATOM      7  C   UNL     1       0.265  10.444  20.861  0.00  0.00    -0.018 A 
ATOM      8  H   UNL     1      -2.237  12.665  20.303  0.00  0.00    +0.065 HD
ATOM      9  H   UNL     1      -3.233  11.763  18.223  0.00  0.00    +0.148 HD
ATOM     10  H   UNL     1       0.941  10.104  21.639  0.00  0.00    +0.065 HD
ENDROOT
BRANCH   6  11
ATOM     11  N   UNL     1       1.238   8.908  19.219  0.00  0.00    -0.248 N 
ATOM     12  C   UNL     1       1.225   7.635  19.920  0.00  0.00    +0.048 C 
ATOM     13  C   UNL     1       2.328   6.875  19.251  0.00  0.00    -0.006 A 
ATOM     14  C   UNL     1       2.900   7.664  18.256  0.00  0.00    +0.042 A 
ATOM     15  C   UNL     1       3.946   7.226  17.465  0.00  0.00    -0.049 A 
ATOM     16  C   UNL     1       4.428   5.937  17.694  0.00  0.00    -0.060 A 
ATOM     17  C   UNL     1       3.860   5.127  18.696  0.00  0.00    -0.050 A 
ATOM     18  C   UNL     1       2.795   5.586  19.494  0.00  0.00    +0.060 A 
ATOM     19  C   UNL     1       2.207   8.960  18.228  0.00  0.00    +0.253 C 
ATOM     20  O   UNL     1       2.504   9.842  17.445  0.00  0.00    -0.270 OA
ATOM     21  H   UNL     1       1.445   7.792  20.980  0.00  0.00    +0.052 HD
ATOM     22  H   UNL     1       0.261   7.137  19.773  0.00  0.00    +0.052 HD
ATOM     23  H   UNL     1       4.371   7.865  16.698  0.00  0.00    +0.063 HD
ATOM     24  H   UNL     1       5.252   5.555  17.093  0.00  0.00    +0.062 HD
ATOM     25  H   UNL     1       4.263   4.124  18.847  0.00  0.00    +0.062 HD
BRANCH  18  26
ATOM     26  C   UNL     1       2.181   4.727  20.567  0.00  0.00    +0.418 C 
ATOM     27  F   UNL     1       2.714   3.476  20.594  0.00  0.00    -0.166 F 
ATOM     28  F   UNL     1       0.836   4.560  20.431  0.00  0.00    -0.166 F 
ATOM     29  F   UNL     1       2.372   5.242  21.812  0.00  0.00    -0.166 F 
ENDBRANCH  18  26
ENDBRANCH   6  11
BRANCH   4  30
ATOM     30  C   UNL     1      -2.251  11.186  16.529  0.00  0.00    +0.022 C 
ATOM     31  C   UNL     1      -2.442   9.651  16.555  0.00  0.00    -0.034 C 
ATOM     32  C   UNL     1      -3.955   9.885  16.365  0.00  0.00    -0.050 C 
ATOM     33  C   UNL     1      -3.608  11.274  15.792  0.00  0.00    -0.034 C 
ATOM     34  H   UNL     1      -1.376  11.523  15.963  0.00  0.00    +0.050 HD
ATOM     35  H   UNL     1      -1.971   9.142  15.705  0.00  0.00    +0.028 HD
ATOM     36  H   UNL     1      -2.158   9.130  17.472  0.00  0.00    +0.028 HD
ATOM     37  H   UNL     1      -4.516   9.923  17.306  0.00  0.00    +0.027 HD
ATOM     38  H   UNL     1      -4.459   9.200  15.679  0.00  0.00    +0.027 HD
ATOM     39  H   UNL     1      -3.507  11.283  14.700  0.00  0.00    +0.028 HD
ATOM     40  H   UNL     1      -4.288  12.080  16.081  0.00  0.00    +0.028 HD
ENDBRANCH   4  30
BRANCH   1  41
ATOM     41  C   UNL     1      -0.697  12.066  22.550  0.00  0.00    -0.012 C 
ATOM     42  H   UNL     1       0.251  11.821  23.051  0.00  0.00    +0.035 HD
BRANCH  41  43
ATOM     43  C   UNL     1      -1.817  11.454  23.405  0.00  0.00    -0.058 C 
ATOM     44  H   UNL     1      -1.703  10.370  23.514  0.00  0.00    +0.024 HD
ATOM     45  H   UNL     1      -2.801  11.634  22.960  0.00  0.00    +0.024 HD
ATOM     46  H   UNL     1      -1.827  11.893  24.409  0.00  0.00    +0.024 HD
ENDBRANCH  41  43
BRANCH  41  47
ATOM     47  C   UNL     1      -0.816  13.599  22.432  0.00  0.00    +0.014 C 
ATOM     48  H   UNL     1      -1.149  13.870  21.421  0.00  0.00    +0.035 HD
ATOM     49  H   UNL     1       0.176  14.052  22.567  0.00  0.00    +0.035 HD
BRANCH  47  50
ATOM     50  C   UNL     1      -1.734  14.218  23.433  0.00  0.00    +0.134 A 
ATOM     51  N   UNL     1      -1.440  14.633  24.649  0.00  0.00    -0.135 NA
ATOM     52  N   UNL     1      -2.582  15.139  25.221  0.00  0.00    -0.138 NA
ATOM     53  C   UNL     1      -3.548  15.036  24.340  0.00  0.00    +0.120 A 
ATOM     54  N   UNL     1      -3.063  14.468  23.204  0.00  0.00    -0.320 N 
ATOM     55  H   UNL     1      -4.573  15.348  24.480  0.00  0.00    +0.105 HD
BRANCH  54  56
ATOM     56  C   UNL     1      -3.808  14.196  22.005  0.00  0.00    +0.014 C 
ATOM     57  H   UNL     1      -3.543  13.206  21.625  0.00  0.00    +0.046 HD
ATOM     58  H   UNL     1      -3.557  14.956  21.261  0.00  0.00    +0.046 HD
ATOM     59  H   UNL     1      -4.874  14.225  22.239  0.00  0.00    +0.046 HD
ENDBRANCH  54  56
ENDBRANCH  47  50
ENDBRANCH  41  47
ENDBRANCH   1  41
TORSDOF 8
ENDMDL
MODEL 12
REMARK VINA RESULT:    -6.761      2.892      3.614
REMARK INTER + INTRA:         -10.734
REMARK INTER:                 -10.399
REMARK INTRA:                  -0.336
REMARK UNBOUND:                -1.207
REMARK  Name = 
REMARK  8 active torsions:
REMARK  status: ('A' for Active; 'I' for Inactive)
REMARK    1  A    between atoms: C_1  and  C_2
REMARK    2  A    between atoms: C_2  and  C_3
REMARK    3  A    between atoms: C_2  and  C_10
REMARK    4  A    between atoms: C_3  and  C_4
REMARK    5  A    between atoms: N_8  and  C_9
REMARK    6  A    between atoms: N_13  and  C_14
REMARK    7  A    between atoms: C_19  and  N_21
REMARK    8  A    between atoms: C_28  and  C_29
REMARK                            x       y       z     vdW  Elec       q    Type
REMARK                         _______ _______ _______ _____ _____    ______ ____
ROOT
ATOM      1  C   UNL     1       4.271   6.967  17.580  0.00  0.00    -0.038 A 
ATOM      2  C   UNL     1       4.228   5.836  18.397  0.00  0.00    -0.018 A 
ATOM      3  C   UNL     1       3.217   5.710  19.343  0.00  0.00    +0.121 A 
ATOM      4  N   UNL     1       3.213   4.565  20.176  0.00  0.00    -0.326 N 
ATOM      5  N   UNL     1       2.286   6.665  19.522  0.00  0.00    -0.217 NA
ATOM      6  C   UNL     1       2.318   7.773  18.744  0.00  0.00    +0.130 A 
ATOM      7  C   UNL     1       3.291   7.949  17.768  0.00  0.00    -0.018 A 
ATOM      8  H   UNL     1       4.980   5.058  18.313  0.00  0.00    +0.065 HD
ATOM      9  H   UNL     1       3.303   3.747  19.579  0.00  0.00    +0.148 HD
ATOM     10  H   UNL     1       3.311   8.840  17.149  0.00  0.00    +0.065 HD
ENDROOT
BRANCH   6  11
ATOM     11  N   UNL     1       1.316   8.731  18.989  0.00  0.00    -0.248 N 
ATOM     12  C   UNL     1       0.300   8.978  17.979  0.00  0.00    +0.048 C 
ATOM     13  C   UNL     1      -0.550  10.034  18.614  0.00  0.00    -0.006 A 
ATOM     14  C   UNL     1      -0.047  10.341  19.875  0.00  0.00    +0.042 A 
ATOM     15  C   UNL     1      -0.628  11.286  20.700  0.00  0.00    -0.049 A 
ATOM     16  C   UNL     1      -1.764  11.942  20.226  0.00  0.00    -0.060 A 
ATOM     17  C   UNL     1      -2.285  11.642  18.953  0.00  0.00    -0.050 A 
ATOM     18  C   UNL     1      -1.683  10.678  18.123  0.00  0.00    +0.060 A 
ATOM     19  C   UNL     1       1.141   9.511  20.122  0.00  0.00    +0.253 C 
ATOM     20  O   UNL     1       1.777   9.574  21.156  0.00  0.00    -0.270 OA
ATOM     21  H   UNL     1       0.769   9.350  17.063  0.00  0.00    +0.052 HD
ATOM     22  H   UNL     1      -0.278   8.065  17.800  0.00  0.00    +0.052 HD
ATOM     23  H   UNL     1      -0.212  11.503  21.679  0.00  0.00    +0.063 HD
ATOM     24  H   UNL     1      -2.251  12.693  20.846  0.00  0.00    +0.062 HD
ATOM     25  H   UNL     1      -3.175  12.174  18.615  0.00  0.00    +0.062 HD
BRANCH  18  26
ATOM     26  C   UNL     1      -2.234  10.349  16.761  0.00  0.00    +0.418 C 
ATOM     27  F   UNL     1      -1.575   9.314  16.173  0.00  0.00    -0.166 F 
ATOM     28  F   UNL     1      -2.168  11.384  15.879  0.00  0.00    -0.166 F 
ATOM     29  F   UNL     1      -3.543   9.980  16.809  0.00  0.00    -0.166 F 
ENDBRANCH  18  26
ENDBRANCH   6  11
BRANCH   4  30
ATOM     30  C   UNL     1       2.196   4.368  21.178  0.00  0.00    +0.022 C 
ATOM     31  C   UNL     1       0.829   4.016  20.546  0.00  0.00    -0.034 C 
ATOM     32  C   UNL     1       1.198   2.526  20.694  0.00  0.00    -0.050 C 
ATOM     33  C   UNL     1       2.204   2.945  21.784  0.00  0.00    -0.034 C 
ATOM     34  H   UNL     1       2.162   5.194  21.896  0.00  0.00    +0.050 HD
ATOM     35  H   UNL     1      -0.025   4.317  21.166  0.00  0.00    +0.028 HD
ATOM     36  H   UNL     1       0.651   4.358  19.523  0.00  0.00    +0.028 HD
ATOM     37  H   UNL     1       1.668   2.098  19.801  0.00  0.00    +0.027 HD
ATOM     38  H   UNL     1       0.391   1.867  21.021  0.00  0.00    +0.027 HD
ATOM     39  H   UNL     1       1.790   2.906  22.800  0.00  0.00    +0.028 HD
ATOM     40  H   UNL     1       3.152   2.399  21.779  0.00  0.00    +0.028 HD
ENDBRANCH   4  30
BRANCH   1  41
ATOM     41  C   UNL     1       5.364   7.175  16.538  0.00  0.00    -0.012 C 
ATOM     42  H   UNL     1       5.844   8.143  16.740  0.00  0.00    +0.035 HD
BRANCH  41  43
ATOM     43  C   UNL     1       4.772   7.263  15.123  0.00  0.00    -0.058 C 
ATOM     44  H   UNL     1       4.739   8.295  14.756  0.00  0.00    +0.024 HD
ATOM     45  H   UNL     1       3.749   6.875  15.095  0.00  0.00    +0.024 HD
ATOM     46  H   UNL     1       5.364   6.674  14.414  0.00  0.00    +0.024 HD
ENDBRANCH  41  43
BRANCH  41  47
ATOM     47  C   UNL     1       6.421   6.059  16.666  0.00  0.00    +0.014 C 
ATOM     48  H   UNL     1       6.216   5.454  17.559  0.00  0.00    +0.035 HD
ATOM     49  H   UNL     1       7.411   6.511  16.815  0.00  0.00    +0.035 HD
BRANCH  47  50
ATOM     50  C   UNL     1       6.508   5.163  15.475  0.00  0.00    +0.134 A 
ATOM     51  N   UNL     1       7.278   5.303  14.415  0.00  0.00    -0.135 NA
ATOM     52  N   UNL     1       7.041   4.249  13.566  0.00  0.00    -0.138 NA
ATOM     53  C   UNL     1       6.141   3.479  14.129  0.00  0.00    +0.120 A 
ATOM     54  N   UNL     1       5.780   4.010  15.328  0.00  0.00    -0.320 N 
ATOM     55  H   UNL     1       5.739   2.564  13.719  0.00  0.00    +0.105 HD
BRANCH  54  56
ATOM     56  C   UNL     1       4.828   3.455  16.251  0.00  0.00    +0.014 C 
ATOM     57  H   UNL     1       3.827   3.493  15.813  0.00  0.00    +0.046 HD
ATOM     58  H   UNL     1       4.851   4.046  17.170  0.00  0.00    +0.046 HD
ATOM     59  H   UNL     1       5.099   2.417  16.455  0.00  0.00    +0.046 HD
ENDBRANCH  54  56
ENDBRANCH  47  50
ENDBRANCH  41  47
ENDBRANCH   1  41
TORSDOF 8
ENDMDL
MODEL 13
REMARK VINA RESULT:    -6.754      3.125      6.209
REMARK INTER + INTRA:         -10.724
REMARK INTER:                  -9.895
REMARK INTRA:                  -0.829
REMARK UNBOUND:                -1.207
REMARK  Name = 
REMARK  8 active torsions:
REMARK  status: ('A' for Active; 'I' for Inactive)
REMARK    1  A    between atoms: C_1  and  C_2
REMARK    2  A    between atoms: C_2  and  C_3
REMARK    3  A    between atoms: C_2  and  C_10
REMARK    4  A    between atoms: C_3  and  C_4
REMARK    5  A    between atoms: N_8  and  C_9
REMARK    6  A    between atoms: N_13  and  C_14
REMARK    7  A    between atoms: C_19  and  N_21
REMARK    8  A    between atoms: C_28  and  C_29
REMARK                            x       y       z     vdW  Elec       q    Type
REMARK                         _______ _______ _______ _____ _____    ______ ____
ROOT
ATOM      1  C   UNL     1       1.874   9.386  18.357  0.00  0.00    -0.038 A 
ATOM      2  C   UNL     1       2.763  10.399  17.989  0.00  0.00    -0.018 A 
ATOM      3  C   UNL     1       2.398  11.729  18.162  0.00  0.00    +0.121 A 
ATOM      4  N   UNL     1       3.308  12.735  17.757  0.00  0.00    -0.326 N 
ATOM      5  N   UNL     1       1.193  12.080  18.648  0.00  0.00    -0.217 NA
ATOM      6  C   UNL     1       0.316  11.111  19.001  0.00  0.00    +0.130 A 
ATOM      7  C   UNL     1       0.628   9.763  18.871  0.00  0.00    -0.018 A 
ATOM      8  H   UNL     1       3.730  10.162  17.559  0.00  0.00    +0.065 HD
ATOM      9  H   UNL     1       4.214  12.515  18.162  0.00  0.00    +0.148 HD
ATOM     10  H   UNL     1      -0.081   8.993  19.154  0.00  0.00    +0.065 HD
ENDROOT
BRANCH   6  11
ATOM     11  N   UNL     1      -0.926  11.551  19.498  0.00  0.00    -0.248 N 
ATOM     12  C   UNL     1      -1.105  11.719  20.930  0.00  0.00    +0.048 C 
ATOM     13  C   UNL     1      -2.523  12.187  21.036  0.00  0.00    -0.006 A 
ATOM     14  C   UNL     1      -3.080  12.276  19.764  0.00  0.00    +0.042 A 
ATOM     15  C   UNL     1      -4.382  12.685  19.546  0.00  0.00    -0.049 A 
ATOM     16  C   UNL     1      -5.147  13.016  20.665  0.00  0.00    -0.060 A 
ATOM     17  C   UNL     1      -4.598  12.932  21.958  0.00  0.00    -0.050 A 
ATOM     18  C   UNL     1      -3.269  12.513  22.165  0.00  0.00    +0.060 A 
ATOM     19  C   UNL     1      -2.066  11.875  18.777  0.00  0.00    +0.253 C 
ATOM     20  O   UNL     1      -2.287  11.866  17.582  0.00  0.00    -0.270 OA
ATOM     21  H   UNL     1      -0.971  10.758  21.436  0.00  0.00    +0.052 HD
ATOM     22  H   UNL     1      -0.412  12.478  21.306  0.00  0.00    +0.052 HD
ATOM     23  H   UNL     1      -4.788  12.744  18.541  0.00  0.00    +0.063 HD
ATOM     24  H   UNL     1      -6.178  13.342  20.536  0.00  0.00    +0.062 HD
ATOM     25  H   UNL     1      -5.225  13.198  22.810  0.00  0.00    +0.062 HD
BRANCH  18  26
ATOM     26  C   UNL     1      -2.673  12.421  23.544  0.00  0.00    +0.418 C 
ATOM     27  F   UNL     1      -3.600  12.608  24.522  0.00  0.00    -0.166 F 
ATOM     28  F   UNL     1      -1.691  13.335  23.779  0.00  0.00    -0.166 F 
ATOM     29  F   UNL     1      -2.117  11.202  23.785  0.00  0.00    -0.166 F 
ENDBRANCH  18  26
ENDBRANCH   6  11
BRANCH   4  30
ATOM     30  C   UNL     1       2.997  14.134  17.905  0.00  0.00    +0.022 C 
ATOM     31  C   UNL     1       3.336  14.649  19.324  0.00  0.00    -0.034 C 
ATOM     32  C   UNL     1       4.724  15.061  18.792  0.00  0.00    -0.050 C 
ATOM     33  C   UNL     1       4.113  15.067  17.376  0.00  0.00    -0.034 C 
ATOM     34  H   UNL     1       1.981  14.366  17.572  0.00  0.00    +0.050 HD
ATOM     35  H   UNL     1       2.718  15.501  19.634  0.00  0.00    +0.028 HD
ATOM     36  H   UNL     1       3.341  13.912  20.132  0.00  0.00    +0.028 HD
ATOM     37  H   UNL     1       5.495  14.296  18.936  0.00  0.00    +0.027 HD
ATOM     38  H   UNL     1       5.103  16.021  19.149  0.00  0.00    +0.027 HD
ATOM     39  H   UNL     1       3.740  16.051  17.065  0.00  0.00    +0.028 HD
ATOM     40  H   UNL     1       4.762  14.679  16.586  0.00  0.00    +0.028 HD
ENDBRANCH   4  30
BRANCH   1  41
ATOM     41  C   UNL     1       2.205   7.909  18.174  0.00  0.00    -0.012 C 
ATOM     42  H   UNL     1       1.393   7.450  17.593  0.00  0.00    +0.035 HD
BRANCH  41  43
ATOM     43  C   UNL     1       2.247   7.180  19.525  0.00  0.00    -0.058 C 
ATOM     44  H   UNL     1       2.996   7.610  20.200  0.00  0.00    +0.024 HD
ATOM     45  H   UNL     1       2.493   6.121  19.399  0.00  0.00    +0.024 HD
ATOM     46  H   UNL     1       1.274   7.232  20.028  0.00  0.00    +0.024 HD
ENDBRANCH  41  43
BRANCH  41  47
ATOM     47  C   UNL     1       3.523   7.768  17.386  0.00  0.00    +0.014 C 
ATOM     48  H   UNL     1       4.264   8.482  17.769  0.00  0.00    +0.035 HD
ATOM     49  H   UNL     1       3.348   8.032  16.334  0.00  0.00    +0.035 HD
BRANCH  47  50
ATOM     50  C   UNL     1       4.106   6.393  17.415  0.00  0.00    +0.134 A 
ATOM     51  N   UNL     1       3.461   5.244  17.422  0.00  0.00    -0.135 NA
ATOM     52  N   UNL     1       4.387   4.229  17.446  0.00  0.00    -0.138 NA
ATOM     53  C   UNL     1       5.578   4.777  17.440  0.00  0.00    +0.120 A 
ATOM     54  N   UNL     1       5.452   6.130  17.418  0.00  0.00    -0.320 N 
ATOM     55  H   UNL     1       6.521   4.250  17.451  0.00  0.00    +0.105 HD
BRANCH  54  56
ATOM     56  C   UNL     1       6.527   7.084  17.393  0.00  0.00    +0.014 C 
ATOM     57  H   UNL     1       6.247   7.968  17.972  0.00  0.00    +0.046 HD
ATOM     58  H   UNL     1       6.716   7.368  16.355  0.00  0.00    +0.046 HD
ATOM     59  H   UNL     1       7.415   6.625  17.834  0.00  0.00    +0.046 HD
ENDBRANCH  54  56
ENDBRANCH  47  50
ENDBRANCH  41  47
ENDBRANCH   1  41
TORSDOF 8
ENDMDL
MODEL 14
REMARK VINA RESULT:    -6.697      1.716      4.930
REMARK INTER + INTRA:         -10.644
REMARK INTER:                 -10.631
REMARK INTRA:                  -0.013
REMARK UNBOUND:                -1.207
REMARK  Name = 
REMARK  8 active torsions:
REMARK  status: ('A' for Active; 'I' for Inactive)
REMARK    1  A    between atoms: C_1  and  C_2
REMARK    2  A    between atoms: C_2  and  C_3
REMARK    3  A    between atoms: C_2  and  C_10
REMARK    4  A    between atoms: C_3  and  C_4
REMARK    5  A    between atoms: N_8  and  C_9
REMARK    6  A    between atoms: N_13  and  C_14
REMARK    7  A    between atoms: C_19  and  N_21
REMARK    8  A    between atoms: C_28  and  C_29
REMARK                            x       y       z     vdW  Elec       q    Type
REMARK                         _______ _______ _______ _____ _____    ______ ____
ROOT
ATOM      1  C   UNL     1       2.144   4.689  20.534  0.00  0.00    -0.038 A 
ATOM      2  C   UNL     1       3.410   4.584  19.955  0.00  0.00    -0.018 A 
ATOM      3  C   UNL     1       4.007   5.711  19.399  0.00  0.00    +0.121 A 
ATOM      4  N   UNL     1       5.279   5.569  18.796  0.00  0.00    -0.326 N 
ATOM      5  N   UNL     1       3.386   6.904  19.372  0.00  0.00    -0.217 NA
ATOM      6  C   UNL     1       2.155   7.022  19.921  0.00  0.00    +0.130 A 
ATOM      7  C   UNL     1       1.514   5.938  20.509  0.00  0.00    -0.018 A 
ATOM      8  H   UNL     1       3.931   3.633  19.921  0.00  0.00    +0.065 HD
ATOM      9  H   UNL     1       5.883   5.084  19.454  0.00  0.00    +0.148 HD
ATOM     10  H   UNL     1       0.526   6.040  20.946  0.00  0.00    +0.065 HD
ENDROOT
BRANCH   6  11
ATOM     11  N   UNL     1       1.565   8.298  19.853  0.00  0.00    -0.248 N 
ATOM     12  C   UNL     1       0.923   8.853  21.032  0.00  0.00    +0.048 C 
ATOM     13  C   UNL     1       0.440  10.187  20.552  0.00  0.00    -0.006 A 
ATOM     14  C   UNL     1       0.792  10.356  19.216  0.00  0.00    +0.042 A 
ATOM     15  C   UNL     1       0.479  11.496  18.501  0.00  0.00    -0.049 A 
ATOM     16  C   UNL     1      -0.218  12.503  19.169  0.00  0.00    -0.060 A 
ATOM     17  C   UNL     1      -0.582  12.347  20.520  0.00  0.00    -0.050 A 
ATOM     18  C   UNL     1      -0.257  11.179  21.237  0.00  0.00    +0.060 A 
ATOM     19  C   UNL     1       1.514   9.157  18.765  0.00  0.00    +0.253 C 
ATOM     20  O   UNL     1       1.943   9.041  17.634  0.00  0.00    -0.270 OA
ATOM     21  H   UNL     1       0.084   8.217  21.332  0.00  0.00    +0.052 HD
ATOM     22  H   UNL     1       1.655   8.969  21.837  0.00  0.00    +0.052 HD
ATOM     23  H   UNL     1       0.768  11.598  17.460  0.00  0.00    +0.063 HD
ATOM     24  H   UNL     1      -0.484  13.417  18.640  0.00  0.00    +0.062 HD
ATOM     25  H   UNL     1      -1.127  13.154  21.011  0.00  0.00    +0.062 HD
BRANCH  18  26
ATOM     26  C   UNL     1      -0.640  11.003  22.682  0.00  0.00    +0.418 C 
ATOM     27  F   UNL     1      -0.681  12.186  23.353  0.00  0.00    -0.166 F 
ATOM     28  F   UNL     1       0.211  10.204  23.381  0.00  0.00    -0.166 F 
ATOM     29  F   UNL     1      -1.876  10.451  22.824  0.00  0.00    -0.166 F 
ENDBRANCH  18  26
ENDBRANCH   6  11
BRANCH   4  30
ATOM     30  C   UNL     1       5.957   6.693  18.199  0.00  0.00    +0.022 C 
ATOM     31  C   UNL     1       7.476   6.436  18.056  0.00  0.00    -0.034 C 
ATOM     32  C   UNL     1       7.203   5.904  16.634  0.00  0.00    -0.050 C 
ATOM     33  C   UNL     1       5.883   6.700  16.654  0.00  0.00    -0.034 C 
ATOM     34  H   UNL     1       5.703   7.636  18.695  0.00  0.00    +0.050 HD
ATOM     35  H   UNL     1       8.073   7.357  18.069  0.00  0.00    +0.028 HD
ATOM     36  H   UNL     1       7.926   5.721  18.749  0.00  0.00    +0.028 HD
ATOM     37  H   UNL     1       7.063   4.818  16.590  0.00  0.00    +0.027 HD
ATOM     38  H   UNL     1       7.925   6.201  15.870  0.00  0.00    +0.027 HD
ATOM     39  H   UNL     1       5.972   7.705  16.222  0.00  0.00    +0.028 HD
ATOM     40  H   UNL     1       5.030   6.199  16.187  0.00  0.00    +0.028 HD
ENDBRANCH   4  30
BRANCH   1  41
ATOM     41  C   UNL     1       1.428   3.488  21.142  0.00  0.00    -0.012 C 
ATOM     42  H   UNL     1       0.575   3.863  21.726  0.00  0.00    +0.035 HD
BRANCH  41  43
ATOM     43  C   UNL     1       2.339   2.738  22.124  0.00  0.00    -0.058 C 
ATOM     44  H   UNL     1       3.393   3.010  21.995  0.00  0.00    +0.024 HD
ATOM     45  H   UNL     1       2.264   1.654  21.989  0.00  0.00    +0.024 HD
ATOM     46  H   UNL     1       2.061   2.958  23.161  0.00  0.00    +0.024 HD
ENDBRANCH  41  43
BRANCH  41  47
ATOM     47  C   UNL     1       0.897   2.577  20.016  0.00  0.00    +0.014 C 
ATOM     48  H   UNL     1       0.005   3.028  19.561  0.00  0.00    +0.035 HD
ATOM     49  H   UNL     1       0.579   1.617  20.445  0.00  0.00    +0.035 HD
BRANCH  47  50
ATOM     50  C   UNL     1       1.898   2.285  18.947  0.00  0.00    +0.134 A 
ATOM     51  N   UNL     1       2.834   1.357  18.951  0.00  0.00    -0.135 NA
ATOM     52  N   UNL     1       3.527   1.437  17.766  0.00  0.00    -0.138 NA
ATOM     53  C   UNL     1       2.992   2.402  17.057  0.00  0.00    +0.120 A 
ATOM     54  N   UNL     1       1.966   2.959  17.755  0.00  0.00    -0.320 N 
ATOM     55  H   UNL     1       3.304   2.716  16.072  0.00  0.00    +0.105 HD
BRANCH  54  56
ATOM     56  C   UNL     1       1.124   4.037  17.313  0.00  0.00    +0.014 C 
ATOM     57  H   UNL     1       1.637   4.609  16.535  0.00  0.00    +0.046 HD
ATOM     58  H   UNL     1       0.912   4.685  18.167  0.00  0.00    +0.046 HD
ATOM     59  H   UNL     1       0.200   3.618  16.910  0.00  0.00    +0.046 HD
ENDBRANCH  54  56
ENDBRANCH  47  50
ENDBRANCH  41  47
ENDBRANCH   1  41
TORSDOF 8
ENDMDL
MODEL 15
REMARK VINA RESULT:    -6.557      4.378      9.449
REMARK INTER + INTRA:         -10.447
REMARK INTER:                  -9.423
REMARK INTRA:                  -1.025
REMARK UNBOUND:                -1.207
REMARK  Name = 
REMARK  8 active torsions:
REMARK  status: ('A' for Active; 'I' for Inactive)
REMARK    1  A    between atoms: C_1  and  C_2
REMARK    2  A    between atoms: C_2  and  C_3
REMARK    3  A    between atoms: C_2  and  C_10
REMARK    4  A    between atoms: C_3  and  C_4
REMARK    5  A    between atoms: N_8  and  C_9
REMARK    6  A    between atoms: N_13  and  C_14
REMARK    7  A    between atoms: C_19  and  N_21
REMARK    8  A    between atoms: C_28  and  C_29
REMARK                            x       y       z     vdW  Elec       q    Type
REMARK                         _______ _______ _______ _____ _____    ______ ____
ROOT
ATOM      1  C   UNL     1      -1.381  11.645  19.380  0.00  0.00    -0.038 A 
ATOM      2  C   UNL     1      -0.552  12.729  19.085  0.00  0.00    -0.018 A 
ATOM      3  C   UNL     1       0.808  12.521  18.889  0.00  0.00    +0.121 A 
ATOM      4  N   UNL     1       1.628  13.642  18.616  0.00  0.00    -0.326 N 
ATOM      5  N   UNL     1       1.366  11.301  19.007  0.00  0.00    -0.217 NA
ATOM      6  C   UNL     1       0.579  10.240  19.302  0.00  0.00    +0.130 A 
ATOM      7  C   UNL     1      -0.791  10.380  19.490  0.00  0.00    -0.018 A 
ATOM      8  H   UNL     1      -0.953  13.735  19.017  0.00  0.00    +0.065 HD
ATOM      9  H   UNL     1       1.194  14.167  17.862  0.00  0.00    +0.148 HD
ATOM     10  H   UNL     1      -1.415   9.525  19.728  0.00  0.00    +0.065 HD
ENDROOT
BRANCH   6  11
ATOM     11  N   UNL     1       1.231   8.998  19.413  0.00  0.00    -0.248 N 
ATOM     12  C   UNL     1       2.223   8.619  18.421  0.00  0.00    +0.048 C 
ATOM     13  C   UNL     1       2.665   7.267  18.891  0.00  0.00    -0.006 A 
ATOM     14  C   UNL     1       1.974   6.930  20.052  0.00  0.00    +0.042 A 
ATOM     15  C   UNL     1       2.174   5.735  20.717  0.00  0.00    -0.049 A 
ATOM     16  C   UNL     1       3.110   4.850  20.182  0.00  0.00    -0.060 A 
ATOM     17  C   UNL     1       3.816   5.177  19.010  0.00  0.00    -0.050 A 
ATOM     18  C   UNL     1       3.603   6.398  18.342  0.00  0.00    +0.060 A 
ATOM     19  C   UNL     1       1.061   8.030  20.392  0.00  0.00    +0.253 C 
ATOM     20  O   UNL     1       0.338   7.999  21.369  0.00  0.00    -0.270 OA
ATOM     21  H   UNL     1       1.756   8.558  17.433  0.00  0.00    +0.052 HD
ATOM     22  H   UNL     1       3.056   9.330  18.436  0.00  0.00    +0.052 HD
ATOM     23  H   UNL     1       1.620   5.500  21.621  0.00  0.00    +0.063 HD
ATOM     24  H   UNL     1       3.296   3.898  20.677  0.00  0.00    +0.062 HD
ATOM     25  H   UNL     1       4.541   4.461  18.620  0.00  0.00    +0.062 HD
BRANCH  18  26
ATOM     26  C   UNL     1       4.354   6.757  17.087  0.00  0.00    +0.418 C 
ATOM     27  F   UNL     1       5.557   7.334  17.353  0.00  0.00    -0.166 F 
ATOM     28  F   UNL     1       3.689   7.630  16.281  0.00  0.00    -0.166 F 
ATOM     29  F   UNL     1       4.625   5.667  16.318  0.00  0.00    -0.166 F 
ENDBRANCH  18  26
ENDBRANCH   6  11
BRANCH   4  30
ATOM     30  C   UNL     1       3.047  13.501  18.404  0.00  0.00    +0.022 C 
ATOM     31  C   UNL     1       3.662  14.777  17.782  0.00  0.00    -0.034 C 
ATOM     32  C   UNL     1       3.971  15.267  19.212  0.00  0.00    -0.050 C 
ATOM     33  C   UNL     1       3.885  13.797  19.670  0.00  0.00    -0.034 C 
ATOM     34  H   UNL     1       3.292  12.576  17.872  0.00  0.00    +0.050 HD
ATOM     35  H   UNL     1       4.561  14.578  17.186  0.00  0.00    +0.028 HD
ATOM     36  H   UNL     1       2.995  15.417  17.199  0.00  0.00    +0.028 HD
ATOM     37  H   UNL     1       3.190  15.907  19.636  0.00  0.00    +0.027 HD
ATOM     38  H   UNL     1       4.941  15.751  19.348  0.00  0.00    +0.027 HD
ATOM     39  H   UNL     1       4.855  13.284  19.674  0.00  0.00    +0.028 HD
ATOM     40  H   UNL     1       3.408  13.638  20.641  0.00  0.00    +0.028 HD
ENDBRANCH   4  30
BRANCH   1  41
ATOM     41  C   UNL     1      -2.877  11.808  19.626  0.00  0.00    -0.012 C 
ATOM     42  H   UNL     1      -3.213  10.962  20.242  0.00  0.00    +0.035 HD
BRANCH  41  43
ATOM     43  C   UNL     1      -3.665  11.737  18.309  0.00  0.00    -0.058 C 
ATOM     44  H   UNL     1      -4.740  11.615  18.482  0.00  0.00    +0.024 HD
ATOM     45  H   UNL     1      -3.337  10.893  17.694  0.00  0.00    +0.024 HD
ATOM     46  H   UNL     1      -3.521  12.648  17.718  0.00  0.00    +0.024 HD
ENDBRANCH  41  43
BRANCH  41  47
ATOM     47  C   UNL     1      -3.134  13.119  20.397  0.00  0.00    +0.014 C 
ATOM     48  H   UNL     1      -3.835  13.750  19.835  0.00  0.00    +0.035 HD
ATOM     49  H   UNL     1      -2.196  13.685  20.475  0.00  0.00    +0.035 HD
BRANCH  47  50
ATOM     50  C   UNL     1      -3.656  12.918  21.781  0.00  0.00    +0.134 A 
ATOM     51  N   UNL     1      -4.914  12.837  22.166  0.00  0.00    -0.135 NA
ATOM     52  N   UNL     1      -4.939  12.645  23.526  0.00  0.00    -0.138 NA
ATOM     53  C   UNL     1      -3.697  12.600  23.944  0.00  0.00    +0.120 A 
ATOM     54  N   UNL     1      -2.859  12.763  22.887  0.00  0.00    -0.320 N 
ATOM     55  H   UNL     1      -3.374  12.456  24.966  0.00  0.00    +0.105 HD
BRANCH  54  56
ATOM     56  C   UNL     1      -1.422  12.762  22.933  0.00  0.00    +0.014 C 
ATOM     57  H   UNL     1      -1.083  12.222  23.821  0.00  0.00    +0.046 HD
ATOM     58  H   UNL     1      -1.075  13.798  22.976  0.00  0.00    +0.046 HD
ATOM     59  H   UNL     1      -1.042  12.267  22.037  0.00  0.00    +0.046 HD
ENDBRANCH  54  56
ENDBRANCH  47  50
ENDBRANCH  41  47
ENDBRANCH   1  41
TORSDOF 8
ENDMDL
MODEL 16
REMARK VINA RESULT:    -6.488      4.399      9.354
REMARK INTER + INTRA:         -10.350
REMARK INTER:                  -9.441
REMARK INTRA:                  -0.909
REMARK UNBOUND:                -1.207
REMARK  Name = 
REMARK  8 active torsions:
REMARK  status: ('A' for Active; 'I' for Inactive)
REMARK    1  A    between atoms: C_1  and  C_2
REMARK    2  A    between atoms: C_2  and  C_3
REMARK    3  A    between atoms: C_2  and  C_10
REMARK    4  A    between atoms: C_3  and  C_4
REMARK    5  A    between atoms: N_8  and  C_9
REMARK    6  A    between atoms: N_13  and  C_14
REMARK    7  A    between atoms: C_19  and  N_21
REMARK    8  A    between atoms: C_28  and  C_29
REMARK                            x       y       z     vdW  Elec       q    Type
REMARK                         _______ _______ _______ _____ _____    ______ ____
ROOT
ATOM      1  C   UNL     1      -1.151  10.900  18.530  0.00  0.00    -0.038 A 
ATOM      2  C   UNL     1      -0.437  12.099  18.485  0.00  0.00    -0.018 A 
ATOM      3  C   UNL     1       0.953  12.073  18.520  0.00  0.00    +0.121 A 
ATOM      4  N   UNL     1       1.649  13.306  18.499  0.00  0.00    -0.326 N 
ATOM      5  N   UNL     1       1.641  10.922  18.630  0.00  0.00    -0.217 NA
ATOM      6  C   UNL     1       0.965   9.751  18.684  0.00  0.00    +0.130 A 
ATOM      7  C   UNL     1      -0.423   9.708  18.633  0.00  0.00    -0.018 A 
ATOM      8  H   UNL     1      -0.952  13.052  18.434  0.00  0.00    +0.065 HD
ATOM      9  H   UNL     1       1.281  13.856  17.728  0.00  0.00    +0.148 HD
ATOM     10  H   UNL     1      -0.958   8.765  18.679  0.00  0.00    +0.065 HD
ENDROOT
BRANCH   6  11
ATOM     11  N   UNL     1       1.750   8.588  18.802  0.00  0.00    -0.248 N 
ATOM     12  C   UNL     1       2.748   8.292  17.788  0.00  0.00    +0.048 C 
ATOM     13  C   UNL     1       3.345   7.008  18.273  0.00  0.00    -0.006 A 
ATOM     14  C   UNL     1       2.729   6.628  19.462  0.00  0.00    +0.042 A 
ATOM     15  C   UNL     1       3.075   5.478  20.147  0.00  0.00    -0.049 A 
ATOM     16  C   UNL     1       4.085   4.685  19.602  0.00  0.00    -0.060 A 
ATOM     17  C   UNL     1       4.718   5.056  18.401  0.00  0.00    -0.050 A 
ATOM     18  C   UNL     1       4.355   6.230  17.714  0.00  0.00    +0.060 A 
ATOM     19  C   UNL     1       1.713   7.633  19.807  0.00  0.00    +0.253 C 
ATOM     20  O   UNL     1       1.026   7.549  20.806  0.00  0.00    -0.270 OA
ATOM     21  H   UNL     1       2.262   8.157  16.817  0.00  0.00    +0.052 HD
ATOM     22  H   UNL     1       3.499   9.088  17.761  0.00  0.00    +0.052 HD
ATOM     23  H   UNL     1       2.575   5.208  21.072  0.00  0.00    +0.063 HD
ATOM     24  H   UNL     1       4.386   3.771  20.111  0.00  0.00    +0.062 HD
ATOM     25  H   UNL     1       5.504   4.412  18.004  0.00  0.00    +0.062 HD
BRANCH  18  26
ATOM     26  C   UNL     1       5.027   6.636  16.429  0.00  0.00    +0.418 C 
ATOM     27  F   UNL     1       6.149   7.375  16.644  0.00  0.00    -0.166 F 
ATOM     28  F   UNL     1       4.237   7.382  15.609  0.00  0.00    -0.166 F 
ATOM     29  F   UNL     1       5.423   5.562  15.693  0.00  0.00    -0.166 F 
ENDBRANCH  18  26
ENDBRANCH   6  11
BRANCH   4  30
ATOM     30  C   UNL     1       3.089  13.355  18.534  0.00  0.00    +0.022 C 
ATOM     31  C   UNL     1       3.631  14.677  17.940  0.00  0.00    -0.034 C 
ATOM     32  C   UNL     1       3.621  15.267  19.365  0.00  0.00    -0.050 C 
ATOM     33  C   UNL     1       3.650  13.821  19.899  0.00  0.00    -0.034 C 
ATOM     34  H   UNL     1       3.541  12.452  18.113  0.00  0.00    +0.050 HD
ATOM     35  H   UNL     1       4.638  14.579  17.516  0.00  0.00    +0.028 HD
ATOM     36  H   UNL     1       2.997  15.191  17.212  0.00  0.00    +0.028 HD
ATOM     37  H   UNL     1       2.701  15.810  19.610  0.00  0.00    +0.027 HD
ATOM     38  H   UNL     1       4.481  15.887  19.627  0.00  0.00    +0.027 HD
ATOM     39  H   UNL     1       4.663  13.449  20.099  0.00  0.00    +0.028 HD
ATOM     40  H   UNL     1       3.036  13.639  20.786  0.00  0.00    +0.028 HD
ENDBRANCH   4  30
BRANCH   1  41
ATOM     41  C   UNL     1      -2.675  10.860  18.515  0.00  0.00    -0.012 C 
ATOM     42  H   UNL     1      -3.005  10.234  19.356  0.00  0.00    +0.035 HD
BRANCH  41  43
ATOM     43  C   UNL     1      -3.199  10.192  17.235  0.00  0.00    -0.058 C 
ATOM     44  H   UNL     1      -3.070  10.833  16.356  0.00  0.00    +0.024 HD
ATOM     45  H   UNL     1      -4.265   9.959  17.316  0.00  0.00    +0.024 HD
ATOM     46  H   UNL     1      -2.672   9.250  17.043  0.00  0.00    +0.024 HD
ENDBRANCH  41  43
BRANCH  41  47
ATOM     47  C   UNL     1      -3.231  12.285  18.707  0.00  0.00    +0.014 C 
ATOM     48  H   UNL     1      -3.989  12.495  17.941  0.00  0.00    +0.035 HD
ATOM     49  H   UNL     1      -2.423  13.015  18.557  0.00  0.00    +0.035 HD
BRANCH  47  50
ATOM     50  C   UNL     1      -3.817  12.534  20.057  0.00  0.00    +0.134 A 
ATOM     51  N   UNL     1      -5.034  12.245  20.474  0.00  0.00    -0.135 NA
ATOM     52  N   UNL     1      -5.147  12.641  21.786  0.00  0.00    -0.138 NA
ATOM     53  C   UNL     1      -3.994  13.151  22.148  0.00  0.00    +0.120 A 
ATOM     54  N   UNL     1      -3.130  13.102  21.100  0.00  0.00    -0.320 N 
ATOM     55  H   UNL     1      -3.753  13.551  23.122  0.00  0.00    +0.105 HD
BRANCH  54  56
ATOM     56  C   UNL     1      -1.765  13.554  21.101  0.00  0.00    +0.014 C 
ATOM     57  H   UNL     1      -1.257  13.190  20.204  0.00  0.00    +0.046 HD
ATOM     58  H   UNL     1      -1.270  13.160  21.992  0.00  0.00    +0.046 HD
ATOM     59  H   UNL     1      -1.757  14.646  21.109  0.00  0.00    +0.046 HD
ENDBRANCH  54  56
ENDBRANCH  47  50
ENDBRANCH  41  47
ENDBRANCH   1  41
TORSDOF 8
ENDMDL
MODEL 17
REMARK VINA RESULT:    -6.462      3.666      8.516
REMARK INTER + INTRA:         -10.314
REMARK INTER:                  -9.612
REMARK INTRA:                  -0.702
REMARK UNBOUND:                -1.207
REMARK  Name = 
REMARK  8 active torsions:
REMARK  status: ('A' for Active; 'I' for Inactive)
REMARK    1  A    between atoms: C_1  and  C_2
REMARK    2  A    between atoms: C_2  and  C_3
REMARK    3  A    between atoms: C_2  and  C_10
REMARK    4  A    between atoms: C_3  and  C_4
REMARK    5  A    between atoms: N_8  and  C_9
REMARK    6  A    between atoms: N_13  and  C_14
REMARK    7  A    between atoms: C_19  and  N_21
REMARK    8  A    between atoms: C_28  and  C_29
REMARK                            x       y       z     vdW  Elec       q    Type
REMARK                         _______ _______ _______ _____ _____    ______ ____
ROOT
ATOM      1  C   UNL     1      -0.168  12.696  20.014  0.00  0.00    -0.038 A 
ATOM      2  C   UNL     1      -1.411  12.609  19.384  0.00  0.00    -0.018 A 
ATOM      3  C   UNL     1      -1.733  11.471  18.653  0.00  0.00    +0.121 A 
ATOM      4  N   UNL     1      -2.990  11.422  18.004  0.00  0.00    -0.326 N 
ATOM      5  N   UNL     1      -0.867  10.453  18.504  0.00  0.00    -0.217 NA
ATOM      6  C   UNL     1       0.347  10.524  19.100  0.00  0.00    +0.130 A 
ATOM      7  C   UNL     1       0.721  11.626  19.860  0.00  0.00    -0.018 A 
ATOM      8  H   UNL     1      -2.125  13.423  19.447  0.00  0.00    +0.065 HD
ATOM      9  H   UNL     1      -3.701  11.671  18.685  0.00  0.00    +0.148 HD
ATOM     10  H   UNL     1       1.696  11.675  20.334  0.00  0.00    +0.065 HD
ENDROOT
BRANCH   6  11
ATOM     11  N   UNL     1       1.202   9.424  18.898  0.00  0.00    -0.248 N 
ATOM     12  C   UNL     1       1.053   8.240  19.727  0.00  0.00    +0.048 C 
ATOM     13  C   UNL     1       2.121   7.330  19.204  0.00  0.00    -0.006 A 
ATOM     14  C   UNL     1       2.801   7.960  18.166  0.00  0.00    +0.042 A 
ATOM     15  C   UNL     1       3.844   7.360  17.485  0.00  0.00    -0.049 A 
ATOM     16  C   UNL     1       4.209   6.072  17.875  0.00  0.00    -0.060 A 
ATOM     17  C   UNL     1       3.531   5.422  18.923  0.00  0.00    -0.050 A 
ATOM     18  C   UNL     1       2.470   6.044  19.608  0.00  0.00    +0.060 A 
ATOM     19  C   UNL     1       2.218   9.294  17.963  0.00  0.00    +0.253 C 
ATOM     20  O   UNL     1       2.622  10.060  17.109  0.00  0.00    -0.270 OA
ATOM     21  H   UNL     1       1.234   8.495  20.776  0.00  0.00    +0.052 HD
ATOM     22  H   UNL     1       0.060   7.803  19.580  0.00  0.00    +0.052 HD
ATOM     23  H   UNL     1       4.355   7.878  16.680  0.00  0.00    +0.063 HD
ATOM     24  H   UNL     1       5.026   5.565  17.365  0.00  0.00    +0.062 HD
ATOM     25  H   UNL     1       3.843   4.414  19.201  0.00  0.00    +0.062 HD
BRANCH  18  26
ATOM     26  C   UNL     1       1.737   5.356  20.729  0.00  0.00    +0.418 C 
ATOM     27  F   UNL     1       0.757   4.530  20.275  0.00  0.00    -0.166 F 
ATOM     28  F   UNL     1       1.134   6.214  21.597  0.00  0.00    -0.166 F 
ATOM     29  F   UNL     1       2.562   4.578  21.482  0.00  0.00    -0.166 F 
ENDBRANCH  18  26
ENDBRANCH   6  11
BRANCH   4  30
ATOM     30  C   UNL     1      -3.390  10.275  17.228  0.00  0.00    +0.022 C 
ATOM     31  C   UNL     1      -4.378  10.662  16.102  0.00  0.00    -0.034 C 
ATOM     32  C   UNL     1      -3.168  10.820  15.159  0.00  0.00    -0.050 C 
ATOM     33  C   UNL     1      -2.378   9.907  16.117  0.00  0.00    -0.034 C 
ATOM     34  H   UNL     1      -3.728   9.449  17.862  0.00  0.00    +0.050 HD
ATOM     35  H   UNL     1      -5.049   9.843  15.816  0.00  0.00    +0.028 HD
ATOM     36  H   UNL     1      -4.977  11.564  16.255  0.00  0.00    +0.028 HD
ATOM     37  H   UNL     1      -2.781  11.844  15.107  0.00  0.00    +0.027 HD
ATOM     38  H   UNL     1      -3.304  10.439  14.144  0.00  0.00    +0.027 HD
ATOM     39  H   UNL     1      -2.412   8.846  15.838  0.00  0.00    +0.028 HD
ATOM     40  H   UNL     1      -1.332  10.187  16.273  0.00  0.00    +0.028 HD
ENDBRANCH   4  30
BRANCH   1  41
ATOM     41  C   UNL     1       0.254  13.924  20.813  0.00  0.00    -0.012 C 
ATOM     42  H   UNL     1      -0.396  14.760  20.517  0.00  0.00    +0.035 HD
BRANCH  41  43
ATOM     43  C   UNL     1       1.693  14.341  20.470  0.00  0.00    -0.058 C 
ATOM     44  H   UNL     1       2.230  14.718  21.347  0.00  0.00    +0.024 HD
ATOM     45  H   UNL     1       1.708  15.132  19.714  0.00  0.00    +0.024 HD
ATOM     46  H   UNL     1       2.259  13.493  20.069  0.00  0.00    +0.024 HD
ENDBRANCH  41  43
BRANCH  41  47
ATOM     47  C   UNL     1       0.062  13.653  22.319  0.00  0.00    +0.014 C 
ATOM     48  H   UNL     1       0.446  14.500  22.902  0.00  0.00    +0.035 HD
ATOM     49  H   UNL     1       0.657  12.777  22.610  0.00  0.00    +0.035 HD
BRANCH  47  50
ATOM     50  C   UNL     1      -1.353  13.388  22.714  0.00  0.00    +0.134 A 
ATOM     51  N   UNL     1      -2.344  14.254  22.796  0.00  0.00    -0.135 NA
ATOM     52  N   UNL     1      -3.475  13.581  23.191  0.00  0.00    -0.138 NA
ATOM     53  C   UNL     1      -3.157  12.317  23.330  0.00  0.00    +0.120 A 
ATOM     54  N   UNL     1      -1.840  12.148  23.039  0.00  0.00    -0.320 N 
ATOM     55  H   UNL     1      -3.825  11.522  23.628  0.00  0.00    +0.105 HD
BRANCH  54  56
ATOM     56  C   UNL     1      -1.116  10.906  23.064  0.00  0.00    +0.014 C 
ATOM     57  H   UNL     1      -1.549  10.244  23.818  0.00  0.00    +0.046 HD
ATOM     58  H   UNL     1      -0.073  11.117  23.312  0.00  0.00    +0.046 HD
ATOM     59  H   UNL     1      -1.189  10.437  22.080  0.00  0.00    +0.046 HD
ENDBRANCH  54  56
ENDBRANCH  47  50
ENDBRANCH  41  47
ENDBRANCH   1  41
TORSDOF 8
ENDMDL
MODEL 18
REMARK VINA RESULT:    -6.254      2.890      3.767
REMARK INTER + INTRA:         -10.020
REMARK INTER:                 -10.013
REMARK INTRA:                  -0.007
REMARK UNBOUND:                -1.207
REMARK  Name = 
REMARK  8 active torsions:
REMARK  status: ('A' for Active; 'I' for Inactive)
REMARK    1  A    between atoms: C_1  and  C_2
REMARK    2  A    between atoms: C_2  and  C_3
REMARK    3  A    between atoms: C_2  and  C_10
REMARK    4  A    between atoms: C_3  and  C_4
REMARK    5  A    between atoms: N_8  and  C_9
REMARK    6  A    between atoms: N_13  and  C_14
REMARK    7  A    between atoms: C_19  and  N_21
REMARK    8  A    between atoms: C_28  and  C_29
REMARK                            x       y       z     vdW  Elec       q    Type
REMARK                         _______ _______ _______ _____ _____    ______ ____
ROOT
ATOM      1  C   UNL     1       4.361   5.977  17.011  0.00  0.00    -0.038 A 
ATOM      2  C   UNL     1       3.829   4.688  17.077  0.00  0.00    -0.018 A 
ATOM      3  C   UNL     1       2.716   4.443  17.872  0.00  0.00    +0.121 A 
ATOM      4  N   UNL     1       2.215   3.121  17.940  0.00  0.00    -0.326 N 
ATOM      5  N   UNL     1       2.144   5.410  18.614  0.00  0.00    -0.217 NA
ATOM      6  C   UNL     1       2.652   6.664  18.569  0.00  0.00    +0.130 A 
ATOM      7  C   UNL     1       3.751   6.977  17.778  0.00  0.00    -0.018 A 
ATOM      8  H   UNL     1       4.281   3.870  16.524  0.00  0.00    +0.065 HD
ATOM      9  H   UNL     1       2.106   2.781  16.988  0.00  0.00    +0.148 HD
ATOM     10  H   UNL     1       4.153   7.984  17.749  0.00  0.00    +0.065 HD
ENDROOT
BRANCH   6  11
ATOM     11  N   UNL     1       2.006   7.622  19.373  0.00  0.00    -0.248 N 
ATOM     12  C   UNL     1       1.636   8.905  18.799  0.00  0.00    +0.048 C 
ATOM     13  C   UNL     1       0.991   9.612  19.951  0.00  0.00    -0.006 A 
ATOM     14  C   UNL     1       1.000   8.782  21.069  0.00  0.00    +0.042 A 
ATOM     15  C   UNL     1       0.468   9.166  22.286  0.00  0.00    -0.049 A 
ATOM     16  C   UNL     1      -0.092  10.441  22.370  0.00  0.00    -0.060 A 
ATOM     17  C   UNL     1      -0.109  11.291  21.248  0.00  0.00    -0.050 A 
ATOM     18  C   UNL     1       0.436  10.887  20.014  0.00  0.00    +0.060 A 
ATOM     19  C   UNL     1       1.642   7.511  20.707  0.00  0.00    +0.253 C 
ATOM     20  O   UNL     1       1.777   6.599  21.500  0.00  0.00    -0.270 OA
ATOM     21  H   UNL     1       2.534   9.436  18.467  0.00  0.00    +0.052 HD
ATOM     22  H   UNL     1       0.924   8.757  17.982  0.00  0.00    +0.052 HD
ATOM     23  H   UNL     1       0.490   8.497  23.140  0.00  0.00    +0.063 HD
ATOM     24  H   UNL     1      -0.521  10.781  23.311  0.00  0.00    +0.062 HD
ATOM     25  H   UNL     1      -0.555  12.281  21.349  0.00  0.00    +0.062 HD
BRANCH  18  26
ATOM     26  C   UNL     1       0.422  11.788  18.808  0.00  0.00    +0.418 C 
ATOM     27  F   UNL     1      -0.449  11.362  17.855  0.00  0.00    -0.166 F 
ATOM     28  F   UNL     1       1.631  11.897  18.191  0.00  0.00    -0.166 F 
ATOM     29  F   UNL     1       0.044  13.059  19.118  0.00  0.00    -0.166 F 
ENDBRANCH  18  26
ENDBRANCH   6  11
BRANCH   4  30
ATOM     30  C   UNL     1       1.065   2.794  18.745  0.00  0.00    +0.022 C 
ATOM     31  C   UNL     1       1.325   1.558  19.639  0.00  0.00    -0.034 C 
ATOM     32  C   UNL     1       1.776   2.521  20.757  0.00  0.00    -0.050 C 
ATOM     33  C   UNL     1       0.973   3.628  20.045  0.00  0.00    -0.034 C 
ATOM     34  H   UNL     1       0.149   2.734  18.148  0.00  0.00    +0.050 HD
ATOM     35  H   UNL     1       0.411   1.003  19.886  0.00  0.00    +0.028 HD
ATOM     36  H   UNL     1       2.081   0.847  19.297  0.00  0.00    +0.028 HD
ATOM     37  H   UNL     1       2.857   2.702  20.773  0.00  0.00    +0.027 HD
ATOM     38  H   UNL     1       1.443   2.267  21.766  0.00  0.00    +0.027 HD
ATOM     39  H   UNL     1      -0.054   3.733  20.418  0.00  0.00    +0.028 HD
ATOM     40  H   UNL     1       1.440   4.617  20.044  0.00  0.00    +0.028 HD
ENDBRANCH   4  30
BRANCH   1  41
ATOM     41  C   UNL     1       5.591   6.307  16.174  0.00  0.00    -0.012 C 
ATOM     42  H   UNL     1       6.212   7.011  16.747  0.00  0.00    +0.035 HD
BRANCH  41  43
ATOM     43  C   UNL     1       5.200   7.024  14.872  0.00  0.00    -0.058 C 
ATOM     44  H   UNL     1       4.172   7.401  14.905  0.00  0.00    +0.024 HD
ATOM     45  H   UNL     1       5.273   6.352  14.011  0.00  0.00    +0.024 HD
ATOM     46  H   UNL     1       5.863   7.875  14.680  0.00  0.00    +0.024 HD
ENDBRANCH  41  43
BRANCH  41  47
ATOM     47  C   UNL     1       6.403   5.021  15.918  0.00  0.00    +0.014 C 
ATOM     48  H   UNL     1       6.109   4.246  16.638  0.00  0.00    +0.035 HD
ATOM     49  H   UNL     1       7.469   5.224  16.093  0.00  0.00    +0.035 HD
BRANCH  47  50
ATOM     50  C   UNL     1       6.269   4.481  14.533  0.00  0.00    +0.134 A 
ATOM     51  N   UNL     1       5.303   3.723  14.053  0.00  0.00    -0.135 NA
ATOM     52  N   UNL     1       5.574   3.463  12.731  0.00  0.00    -0.138 NA
ATOM     53  C   UNL     1       6.692   4.077  12.426  0.00  0.00    +0.120 A 
ATOM     54  N   UNL     1       7.161   4.731  13.521  0.00  0.00    -0.320 N 
ATOM     55  H   UNL     1       7.176   4.075  11.460  0.00  0.00    +0.105 HD
BRANCH  54  56
ATOM     56  C   UNL     1       8.355   5.529  13.589  0.00  0.00    +0.014 C 
ATOM     57  H   UNL     1       8.521   6.024  12.629  0.00  0.00    +0.046 HD
ATOM     58  H   UNL     1       9.199   4.872  13.817  0.00  0.00    +0.046 HD
ATOM     59  H   UNL     1       8.232   6.280  14.372  0.00  0.00    +0.046 HD
ENDBRANCH  54  56
ENDBRANCH  47  50
ENDBRANCH  41  47
ENDBRANCH   1  41
TORSDOF 8
ENDMDL
MODEL 19
REMARK VINA RESULT:    -6.242      4.323      9.126
REMARK INTER + INTRA:         -10.003
REMARK INTER:                  -9.001
REMARK INTRA:                  -1.002
REMARK UNBOUND:                -1.207
REMARK  Name = 
REMARK  8 active torsions:
REMARK  status: ('A' for Active; 'I' for Inactive)
REMARK    1  A    between atoms: C_1  and  C_2
REMARK    2  A    between atoms: C_2  and  C_3
REMARK    3  A    between atoms: C_2  and  C_10
REMARK    4  A    between atoms: C_3  and  C_4
REMARK    5  A    between atoms: N_8  and  C_9
REMARK    6  A    between atoms: N_13  and  C_14
REMARK    7  A    between atoms: C_19  and  N_21
REMARK    8  A    between atoms: C_28  and  C_29
REMARK                            x       y       z     vdW  Elec       q    Type
REMARK                         _______ _______ _______ _____ _____    ______ ____
ROOT
ATOM      1  C   UNL     1      -1.089  11.648  18.782  0.00  0.00    -0.038 A 
ATOM      2  C   UNL     1      -0.238  12.755  18.823  0.00  0.00    -0.018 A 
ATOM      3  C   UNL     1       1.134  12.563  18.949  0.00  0.00    +0.121 A 
ATOM      4  N   UNL     1       1.969  13.704  19.014  0.00  0.00    -0.326 N 
ATOM      5  N   UNL     1       1.673  11.336  19.067  0.00  0.00    -0.217 NA
ATOM      6  C   UNL     1       0.862  10.252  19.039  0.00  0.00    +0.130 A 
ATOM      7  C   UNL     1      -0.515  10.377  18.895  0.00  0.00    -0.018 A 
ATOM      8  H   UNL     1      -0.632  13.764  18.768  0.00  0.00    +0.065 HD
ATOM      9  H   UNL     1       1.723  14.313  18.238  0.00  0.00    +0.148 HD
ATOM     10  H   UNL     1      -1.158   9.503  18.875  0.00  0.00    +0.065 HD
ENDROOT
BRANCH   6  11
ATOM     11  N   UNL     1       1.494   9.001  19.171  0.00  0.00    -0.248 N 
ATOM     12  C   UNL     1       2.485   8.593  18.189  0.00  0.00    +0.048 C 
ATOM     13  C   UNL     1       2.904   7.242  18.680  0.00  0.00    -0.006 A 
ATOM     14  C   UNL     1       2.204   6.933  19.843  0.00  0.00    +0.042 A 
ATOM     15  C   UNL     1       2.383   5.744  20.527  0.00  0.00    -0.049 A 
ATOM     16  C   UNL     1       3.308   4.838  20.008  0.00  0.00    -0.060 A 
ATOM     17  C   UNL     1       4.023   5.137  18.834  0.00  0.00    -0.050 A 
ATOM     18  C   UNL     1       3.831   6.351  18.147  0.00  0.00    +0.060 A 
ATOM     19  C   UNL     1       1.306   8.051  20.164  0.00  0.00    +0.253 C 
ATOM     20  O   UNL     1       0.580   8.046  21.138  0.00  0.00    -0.270 OA
ATOM     21  H   UNL     1       2.020   8.524  17.200  0.00  0.00    +0.052 HD
ATOM     22  H   UNL     1       3.327   9.292  18.196  0.00  0.00    +0.052 HD
ATOM     23  H   UNL     1       1.822   5.532  21.431  0.00  0.00    +0.063 HD
ATOM     24  H   UNL     1       3.477   3.890  20.517  0.00  0.00    +0.062 HD
ATOM     25  H   UNL     1       4.738   4.404  18.457  0.00  0.00    +0.062 HD
BRANCH  18  26
ATOM     26  C   UNL     1       4.592   6.680  16.890  0.00  0.00    +0.418 C 
ATOM     27  F   UNL     1       4.954   5.566  16.199  0.00  0.00    -0.166 F 
ATOM     28  F   UNL     1       5.741   7.375  17.112  0.00  0.00    -0.166 F 
ATOM     29  F   UNL     1       3.858   7.433  16.026  0.00  0.00    -0.166 F 
ENDBRANCH  18  26
ENDBRANCH   6  11
BRANCH   4  30
ATOM     30  C   UNL     1       3.399  13.580  19.146  0.00  0.00    +0.022 C 
ATOM     31  C   UNL     1       4.122  14.906  18.807  0.00  0.00    -0.034 C 
ATOM     32  C   UNL     1       4.061  15.267  20.306  0.00  0.00    -0.050 C 
ATOM     33  C   UNL     1       3.896  13.762  20.600  0.00  0.00    -0.034 C 
ATOM     34  H   UNL     1       3.787  12.706  18.613  0.00  0.00    +0.050 HD
ATOM     35  H   UNL     1       5.144  14.759  18.436  0.00  0.00    +0.028 HD
ATOM     36  H   UNL     1       3.605  15.596  18.135  0.00  0.00    +0.028 HD
ATOM     37  H   UNL     1       3.186  15.868  20.578  0.00  0.00    +0.027 HD
ATOM     38  H   UNL     1       4.957  15.736  20.718  0.00  0.00    +0.027 HD
ATOM     39  H   UNL     1       4.845  13.249  20.799  0.00  0.00    +0.028 HD
ATOM     40  H   UNL     1       3.198  13.519  21.406  0.00  0.00    +0.028 HD
ENDBRANCH   4  30
BRANCH   1  41
ATOM     41  C   UNL     1      -2.602  11.791  18.665  0.00  0.00    -0.012 C 
ATOM     42  H   UNL     1      -2.811  12.566  17.913  0.00  0.00    +0.035 HD
BRANCH  41  43
ATOM     43  C   UNL     1      -3.216  12.282  19.986  0.00  0.00    -0.058 C 
ATOM     44  H   UNL     1      -4.281  12.514  19.881  0.00  0.00    +0.024 HD
ATOM     45  H   UNL     1      -2.718  13.188  20.343  0.00  0.00    +0.024 HD
ATOM     46  H   UNL     1      -3.114  11.522  20.769  0.00  0.00    +0.024 HD
ENDBRANCH  41  43
BRANCH  41  47
ATOM     47  C   UNL     1      -3.213  10.457  18.190  0.00  0.00    +0.014 C 
ATOM     48  H   UNL     1      -4.221  10.340  18.608  0.00  0.00    +0.035 HD
ATOM     49  H   UNL     1      -2.613   9.624  18.580  0.00  0.00    +0.035 HD
BRANCH  47  50
ATOM     50  C   UNL     1      -3.277  10.312  16.706  0.00  0.00    +0.134 A 
ATOM     51  N   UNL     1      -2.551   9.521  15.941  0.00  0.00    -0.135 NA
ATOM     52  N   UNL     1      -2.943   9.703  14.636  0.00  0.00    -0.138 NA
ATOM     53  C   UNL     1      -3.909  10.589  14.631  0.00  0.00    +0.120 A 
ATOM     54  N   UNL     1      -4.154  10.997  15.904  0.00  0.00    -0.320 N 
ATOM     55  H   UNL     1      -4.437  10.950  13.760  0.00  0.00    +0.105 HD
BRANCH  54  56
ATOM     56  C   UNL     1      -5.147  11.952  16.316  0.00  0.00    +0.014 C 
ATOM     57  H   UNL     1      -6.143  11.580  16.060  0.00  0.00    +0.046 HD
ATOM     58  H   UNL     1      -4.960  12.894  15.794  0.00  0.00    +0.046 HD
ATOM     59  H   UNL     1      -5.075  12.091  17.396  0.00  0.00    +0.046 HD
ENDBRANCH  54  56
ENDBRANCH  47  50
ENDBRANCH  41  47
ENDBRANCH   1  41
TORSDOF 8
ENDMDL
MODEL 20
REMARK VINA RESULT:    -6.065      3.939      9.201
REMARK INTER + INTRA:          -9.754
REMARK INTER:                  -8.906
REMARK INTRA:                  -0.847
REMARK UNBOUND:                -1.207
REMARK  Name = 
REMARK  8 active torsions:
REMARK  status: ('A' for Active; 'I' for Inactive)
REMARK    1  A    between atoms: C_1  and  C_2
REMARK    2  A    between atoms: C_2  and  C_3
REMARK    3  A    between atoms: C_2  and  C_10
REMARK    4  A    between atoms: C_3  and  C_4
REMARK    5  A    between atoms: N_8  and  C_9
REMARK    6  A    between atoms: N_13  and  C_14
REMARK    7  A    between atoms: C_19  and  N_21
REMARK    8  A    between atoms: C_28  and  C_29
REMARK                            x       y       z     vdW  Elec       q    Type
REMARK                         _______ _______ _______ _____ _____    ______ ____
ROOT
ATOM      1  C   UNL     1      -0.091  11.097  21.683  0.00  0.00    -0.038 A 
ATOM      2  C   UNL     1       0.238  12.286  21.029  0.00  0.00    -0.018 A 
ATOM      3  C   UNL     1       1.039  12.247  19.893  0.00  0.00    +0.121 A 
ATOM      4  N   UNL     1       1.378  13.470  19.266  0.00  0.00    -0.326 N 
ATOM      5  N   UNL     1       1.539  11.093  19.414  0.00  0.00    -0.217 NA
ATOM      6  C   UNL     1       1.238   9.932  20.041  0.00  0.00    +0.130 A 
ATOM      7  C   UNL     1       0.426   9.903  21.169  0.00  0.00    -0.018 A 
ATOM      8  H   UNL     1      -0.113  13.243  21.402  0.00  0.00    +0.065 HD
ATOM      9  H   UNL     1       0.520  13.997  19.129  0.00  0.00    +0.148 HD
ATOM     10  H   UNL     1       0.190   8.967  21.666  0.00  0.00    +0.065 HD
ENDROOT
BRANCH   6  11
ATOM     11  N   UNL     1       1.798   8.765  19.487  0.00  0.00    -0.248 N 
ATOM     12  C   UNL     1       1.638   7.496  20.177  0.00  0.00    +0.048 C 
ATOM     13  C   UNL     1       2.359   6.537  19.283  0.00  0.00    -0.006 A 
ATOM     14  C   UNL     1       2.872   7.221  18.184  0.00  0.00    +0.042 A 
ATOM     15  C   UNL     1       3.589   6.593  17.183  0.00  0.00    -0.049 A 
ATOM     16  C   UNL     1       3.791   5.218  17.303  0.00  0.00    -0.060 A 
ATOM     17  C   UNL     1       3.279   4.512  18.408  0.00  0.00    -0.050 A 
ATOM     18  C   UNL     1       2.550   5.165  19.421  0.00  0.00    +0.060 A 
ATOM     19  C   UNL     1       2.515   8.642  18.306  0.00  0.00    +0.253 C 
ATOM     20  O   UNL     1       2.836   9.468  17.474  0.00  0.00    -0.270 OA
ATOM     21  H   UNL     1       2.112   7.547  21.162  0.00  0.00    +0.052 HD
ATOM     22  H   UNL     1       0.575   7.243  20.249  0.00  0.00    +0.052 HD
ATOM     23  H   UNL     1       3.977   7.154  16.338  0.00  0.00    +0.063 HD
ATOM     24  H   UNL     1       4.352   4.686  16.535  0.00  0.00    +0.062 HD
ATOM     25  H   UNL     1       3.456   3.438  18.469  0.00  0.00    +0.062 HD
BRANCH  18  26
ATOM     26  C   UNL     1       1.996   4.419  20.605  0.00  0.00    +0.418 C 
ATOM     27  F   UNL     1       0.642   4.516  20.689  0.00  0.00    -0.166 F 
ATOM     28  F   UNL     1       2.479   4.854  21.801  0.00  0.00    -0.166 F 
ATOM     29  F   UNL     1       2.273   3.087  20.551  0.00  0.00    -0.166 F 
ENDBRANCH  18  26
ENDBRANCH   6  11
BRANCH   4  30
ATOM     30  C   UNL     1       2.205  13.505  18.086  0.00  0.00    +0.022 C 
ATOM     31  C   UNL     1       2.446  14.954  17.599  0.00  0.00    -0.034 C 
ATOM     32  C   UNL     1       3.734  14.974  18.447  0.00  0.00    -0.050 C 
ATOM     33  C   UNL     1       3.718  13.433  18.400  0.00  0.00    -0.034 C 
ATOM     34  H   UNL     1       1.843  12.823  17.311  0.00  0.00    +0.050 HD
ATOM     35  H   UNL     1       2.633  15.022  16.520  0.00  0.00    +0.028 HD
ATOM     36  H   UNL     1       1.693  15.700  17.868  0.00  0.00    +0.028 HD
ATOM     37  H   UNL     1       3.593  15.386  19.452  0.00  0.00    +0.027 HD
ATOM     38  H   UNL     1       4.599  15.455  17.984  0.00  0.00    +0.027 HD
ATOM     39  H   UNL     1       4.310  13.015  17.575  0.00  0.00    +0.028 HD
ATOM     40  H   UNL     1       4.019  12.935  19.326  0.00  0.00    +0.028 HD
ENDBRANCH   4  30
BRANCH   1  41
ATOM     41  C   UNL     1      -0.948  11.074  22.943  0.00  0.00    -0.012 C 
ATOM     42  H   UNL     1      -0.376  11.554  23.750  0.00  0.00    +0.035 HD
BRANCH  41  43
ATOM     43  C   UNL     1      -1.226   9.633  23.398  0.00  0.00    -0.058 C 
ATOM     44  H   UNL     1      -0.315   9.023  23.406  0.00  0.00    +0.024 HD
ATOM     45  H   UNL     1      -1.943   9.138  22.735  0.00  0.00    +0.024 HD
ATOM     46  H   UNL     1      -1.649   9.617  24.408  0.00  0.00    +0.024 HD
ENDBRANCH  41  43
BRANCH  41  47
ATOM     47  C   UNL     1      -2.243  11.877  22.705  0.00  0.00    +0.014 C 
ATOM     48  H   UNL     1      -3.116  11.229  22.858  0.00  0.00    +0.035 HD
ATOM     49  H   UNL     1      -2.278  12.207  21.657  0.00  0.00    +0.035 HD
BRANCH  47  50
ATOM     50  C   UNL     1      -2.374  13.090  23.565  0.00  0.00    +0.134 A 
ATOM     51  N   UNL     1      -1.534  14.100  23.669  0.00  0.00    -0.135 NA
ATOM     52  N   UNL     1      -2.049  15.001  24.569  0.00  0.00    -0.138 NA
ATOM     53  C   UNL     1      -3.199  14.530  24.988  0.00  0.00    +0.120 A 
ATOM     54  N   UNL     1      -3.446  13.338  24.384  0.00  0.00    -0.320 N 
ATOM     55  H   UNL     1      -3.859  15.004  25.700  0.00  0.00    +0.105 HD
BRANCH  54  56
ATOM     56  C   UNL     1      -4.609  12.515  24.571  0.00  0.00    +0.014 C 
ATOM     57  H   UNL     1      -5.301  13.007  25.259  0.00  0.00    +0.046 HD
ATOM     58  H   UNL     1      -4.293  11.556  24.989  0.00  0.00    +0.046 HD
ATOM     59  H   UNL     1      -5.096  12.369  23.604  0.00  0.00    +0.046 HD
ENDBRANCH  54  56
ENDBRANCH  47  50
ENDBRANCH  41  47
ENDBRANCH   1  41
TORSDOF 8
ENDMDL
MODEL 21
REMARK VINA RESULT:    -5.979      2.214      5.406
REMARK INTER + INTRA:          -9.632
REMARK INTER:                  -9.556
REMARK INTRA:                  -0.075
REMARK UNBOUND:                -1.207
REMARK  Name = 
REMARK  8 active torsions:
REMARK  status: ('A' for Active; 'I' for Inactive)
REMARK    1  A    between atoms: C_1  and  C_2
REMARK    2  A    between atoms: C_2  and  C_3
REMARK    3  A    between atoms: C_2  and  C_10
REMARK    4  A    between atoms: C_3  and  C_4
REMARK    5  A    between atoms: N_8  and  C_9
REMARK    6  A    between atoms: N_13  and  C_14
REMARK    7  A    between atoms: C_19  and  N_21
REMARK    8  A    between atoms: C_28  and  C_29
REMARK                            x       y       z     vdW  Elec       q    Type
REMARK                         _______ _______ _______ _____ _____    ______ ____
ROOT
ATOM      1  C   UNL     1       4.409   3.562  19.646  0.00  0.00    -0.038 A 
ATOM      2  C   UNL     1       5.101   3.316  18.458  0.00  0.00    -0.018 A 
ATOM      3  C   UNL     1       5.097   4.272  17.449  0.00  0.00    +0.121 A 
ATOM      4  N   UNL     1       5.785   3.984  16.246  0.00  0.00    -0.326 N 
ATOM      5  N   UNL     1       4.416   5.427  17.566  0.00  0.00    -0.217 NA
ATOM      6  C   UNL     1       3.732   5.679  18.706  0.00  0.00    +0.130 A 
ATOM      7  C   UNL     1       3.713   4.771  19.759  0.00  0.00    -0.018 A 
ATOM      8  H   UNL     1       5.633   2.382  18.307  0.00  0.00    +0.065 HD
ATOM      9  H   UNL     1       6.720   3.669  16.491  0.00  0.00    +0.148 HD
ATOM     10  H   UNL     1       3.162   4.980  20.670  0.00  0.00    +0.065 HD
ENDROOT
BRANCH   6  11
ATOM     11  N   UNL     1       3.041   6.904  18.756  0.00  0.00    -0.248 N 
ATOM     12  C   UNL     1       2.202   7.206  19.904  0.00  0.00    +0.048 C 
ATOM     13  C   UNL     1       1.664   8.564  19.575  0.00  0.00    -0.006 A 
ATOM     14  C   UNL     1       2.171   8.980  18.347  0.00  0.00    +0.042 A 
ATOM     15  C   UNL     1       1.849  10.201  17.783  0.00  0.00    -0.049 A 
ATOM     16  C   UNL     1       0.980  11.028  18.494  0.00  0.00    -0.060 A 
ATOM     17  C   UNL     1       0.460  10.621  19.737  0.00  0.00    -0.050 A 
ATOM     18  C   UNL     1       0.796   9.375  20.300  0.00  0.00    +0.060 A 
ATOM     19  C   UNL     1       3.052   7.928  17.821  0.00  0.00    +0.253 C 
ATOM     20  O   UNL     1       3.634   8.035  16.759  0.00  0.00    -0.270 OA
ATOM     21  H   UNL     1       1.394   6.471  19.976  0.00  0.00    +0.052 HD
ATOM     22  H   UNL     1       2.810   7.234  20.814  0.00  0.00    +0.052 HD
ATOM     23  H   UNL     1       2.260  10.497  16.823  0.00  0.00    +0.063 HD
ATOM     24  H   UNL     1       0.702  11.997  18.083  0.00  0.00    +0.062 HD
ATOM     25  H   UNL     1      -0.217  11.294  20.265  0.00  0.00    +0.062 HD
BRANCH  18  26
ATOM     26  C   UNL     1       0.245   8.932  21.629  0.00  0.00    +0.418 C 
ATOM     27  F   UNL     1       1.228   8.667  22.532  0.00  0.00    -0.166 F 
ATOM     28  F   UNL     1      -0.515   7.805  21.559  0.00  0.00    -0.166 F 
ATOM     29  F   UNL     1      -0.543   9.882  22.203  0.00  0.00    -0.166 F 
ENDBRANCH  18  26
ENDBRANCH   6  11
BRANCH   4  30
ATOM     30  C   UNL     1       5.822   4.927  15.157  0.00  0.00    +0.022 C 
ATOM     31  C   UNL     1       7.158   4.853  14.381  0.00  0.00    -0.034 C 
ATOM     32  C   UNL     1       6.491   3.845  13.423  0.00  0.00    -0.050 C 
ATOM     33  C   UNL     1       5.129   4.408  13.876  0.00  0.00    -0.034 C 
ATOM     34  H   UNL     1       5.543   5.936  15.478  0.00  0.00    +0.050 HD
ATOM     35  H   UNL     1       7.430   5.799  13.896  0.00  0.00    +0.028 HD
ATOM     36  H   UNL     1       8.030   4.480  14.925  0.00  0.00    +0.028 HD
ATOM     37  H   UNL     1       6.651   2.798  13.705  0.00  0.00    +0.027 HD
ATOM     38  H   UNL     1       6.727   3.968  12.364  0.00  0.00    +0.027 HD
ATOM     39  H   UNL     1       4.753   5.213  13.232  0.00  0.00    +0.028 HD
ATOM     40  H   UNL     1       4.334   3.666  13.997  0.00  0.00    +0.028 HD
ENDBRANCH   4  30
BRANCH   1  41
ATOM     41  C   UNL     1       4.357   2.547  20.782  0.00  0.00    -0.012 C 
ATOM     42  H   UNL     1       4.947   2.947  21.620  0.00  0.00    +0.035 HD
BRANCH  41  43
ATOM     43  C   UNL     1       5.017   1.222  20.371  0.00  0.00    -0.058 C 
ATOM     44  H   UNL     1       4.310   0.386  20.400  0.00  0.00    +0.024 HD
ATOM     45  H   UNL     1       5.849   0.969  21.036  0.00  0.00    +0.024 HD
ATOM     46  H   UNL     1       5.419   1.285  19.353  0.00  0.00    +0.024 HD
ENDBRANCH  41  43
BRANCH  41  47
ATOM     47  C   UNL     1       2.898   2.361  21.244  0.00  0.00    +0.014 C 
ATOM     48  H   UNL     1       2.634   3.143  21.967  0.00  0.00    +0.035 HD
ATOM     49  H   UNL     1       2.803   1.401  21.771  0.00  0.00    +0.035 HD
BRANCH  47  50
ATOM     50  C   UNL     1       1.902   2.365  20.132  0.00  0.00    +0.134 A 
ATOM     51  N   UNL     1       1.766   1.476  19.168  0.00  0.00    -0.135 NA
ATOM     52  N   UNL     1       0.722   1.867  18.364  0.00  0.00    -0.138 NA
ATOM     53  C   UNL     1       0.232   2.978  18.859  0.00  0.00    +0.120 A 
ATOM     54  N   UNL     1       0.937   3.326  19.968  0.00  0.00    -0.320 N 
ATOM     55  H   UNL     1      -0.600   3.540  18.461  0.00  0.00    +0.105 HD
BRANCH  54  56
ATOM     56  C   UNL     1       0.701   4.474  20.800  0.00  0.00    +0.014 C 
ATOM     57  H   UNL     1       1.236   4.358  21.747  0.00  0.00    +0.046 HD
ATOM     58  H   UNL     1      -0.372   4.552  20.989  0.00  0.00    +0.046 HD
ATOM     59  H   UNL     1       1.065   5.365  20.282  0.00  0.00    +0.046 HD
ENDBRANCH  54  56
ENDBRANCH  47  50
ENDBRANCH  41  47
ENDBRANCH   1  41
TORSDOF 8
ENDMDL
MODEL 22
REMARK VINA RESULT:    -5.693      2.781      5.608
REMARK INTER + INTRA:          -9.229
REMARK INTER:                  -9.672
REMARK INTRA:                   0.443
REMARK UNBOUND:                -1.207
REMARK  Name = 
REMARK  8 active torsions:
REMARK  status: ('A' for Active; 'I' for Inactive)
REMARK    1  A    between atoms: C_1  and  C_2
REMARK    2  A    between atoms: C_2  and  C_3
REMARK    3  A    between atoms: C_2  and  C_10
REMARK    4  A    between atoms: C_3  and  C_4
REMARK    5  A    between atoms: N_8  and  C_9
REMARK    6  A    between atoms: N_13  and  C_14
REMARK    7  A    between atoms: C_19  and  N_21
REMARK    8  A    between atoms: C_28  and  C_29
REMARK                            x       y       z     vdW  Elec       q    Type
REMARK                         _______ _______ _______ _____ _____    ______ ____
ROOT
ATOM      1  C   UNL     1       2.023   4.842  20.521  0.00  0.00    -0.038 A 
ATOM      2  C   UNL     1       3.218   4.757  19.804  0.00  0.00    -0.018 A 
ATOM      3  C   UNL     1       3.762   5.904  19.235  0.00  0.00    +0.121 A 
ATOM      4  N   UNL     1       4.960   5.783  18.492  0.00  0.00    -0.326 N 
ATOM      5  N   UNL     1       3.153   7.101  19.327  0.00  0.00    -0.217 NA
ATOM      6  C   UNL     1       1.989   7.200  20.011  0.00  0.00    +0.130 A 
ATOM      7  C   UNL     1       1.405   6.094  20.618  0.00  0.00    -0.018 A 
ATOM      8  H   UNL     1       3.724   3.806  19.673  0.00  0.00    +0.065 HD
ATOM      9  H   UNL     1       5.626   5.267  19.059  0.00  0.00    +0.148 HD
ATOM     10  H   UNL     1       0.471   6.182  21.164  0.00  0.00    +0.065 HD
ENDROOT
BRANCH   6  11
ATOM     11  N   UNL     1       1.408   8.481  20.062  0.00  0.00    -0.248 N 
ATOM     12  C   UNL     1       1.997   9.566  19.295  0.00  0.00    +0.048 C 
ATOM     13  C   UNL     1       1.104  10.724  19.615  0.00  0.00    -0.006 A 
ATOM     14  C   UNL     1       0.099  10.310  20.485  0.00  0.00    +0.042 A 
ATOM     15  C   UNL     1      -0.879  11.166  20.956  0.00  0.00    -0.049 A 
ATOM     16  C   UNL     1      -0.833  12.492  20.527  0.00  0.00    -0.060 A 
ATOM     17  C   UNL     1       0.177  12.926  19.647  0.00  0.00    -0.050 A 
ATOM     18  C   UNL     1       1.167  12.043  19.175  0.00  0.00    +0.060 A 
ATOM     19  C   UNL     1       0.285   8.880  20.771  0.00  0.00    +0.253 C 
ATOM     20  O   UNL     1      -0.462   8.259  21.503  0.00  0.00    -0.270 OA
ATOM     21  H   UNL     1       3.019   9.752  19.640  0.00  0.00    +0.052 HD
ATOM     22  H   UNL     1       1.964   9.328  18.227  0.00  0.00    +0.052 HD
ATOM     23  H   UNL     1      -1.649  10.813  21.634  0.00  0.00    +0.063 HD
ATOM     24  H   UNL     1      -1.585  13.198  20.876  0.00  0.00    +0.062 HD
ATOM     25  H   UNL     1       0.182  13.970  19.332  0.00  0.00    +0.062 HD
BRANCH  18  26
ATOM     26  C   UNL     1       2.250  12.497  18.233  0.00  0.00    +0.418 C 
ATOM     27  F   UNL     1       1.828  13.484  17.398  0.00  0.00    -0.166 F 
ATOM     28  F   UNL     1       2.731  11.507  17.432  0.00  0.00    -0.166 F 
ATOM     29  F   UNL     1       3.329  13.002  18.893  0.00  0.00    -0.166 F 
ENDBRANCH  18  26
ENDBRANCH   6  11
BRANCH   4  30
ATOM     30  C   UNL     1       5.579   6.929  17.874  0.00  0.00    +0.022 C 
ATOM     31  C   UNL     1       7.119   6.792  17.828  0.00  0.00    -0.034 C 
ATOM     32  C   UNL     1       6.975   6.170  16.424  0.00  0.00    -0.050 C 
ATOM     33  C   UNL     1       5.596   6.853  16.329  0.00  0.00    -0.034 C 
ATOM     34  H   UNL     1       5.222   7.870  18.304  0.00  0.00    +0.050 HD
ATOM     35  H   UNL     1       7.640   7.758  17.825  0.00  0.00    +0.028 HD
ATOM     36  H   UNL     1       7.584   6.151  18.582  0.00  0.00    +0.028 HD
ATOM     37  H   UNL     1       6.925   5.075  16.430  0.00  0.00    +0.027 HD
ATOM     38  H   UNL     1       7.715   6.488  15.686  0.00  0.00    +0.027 HD
ATOM     39  H   UNL     1       5.630   7.840  15.849  0.00  0.00    +0.028 HD
ATOM     40  H   UNL     1       4.815   6.262  15.843  0.00  0.00    +0.028 HD
ENDBRANCH   4  30
BRANCH   1  41
ATOM     41  C   UNL     1       1.365   3.620  21.151  0.00  0.00    -0.012 C 
ATOM     42  H   UNL     1       0.521   3.968  21.764  0.00  0.00    +0.035 HD
BRANCH  41  43
ATOM     43  C   UNL     1       2.332   2.899  22.102  0.00  0.00    -0.058 C 
ATOM     44  H   UNL     1       1.837   2.095  22.658  0.00  0.00    +0.024 HD
ATOM     45  H   UNL     1       2.758   3.590  22.837  0.00  0.00    +0.024 HD
ATOM     46  H   UNL     1       3.168   2.456  21.547  0.00  0.00    +0.024 HD
ENDBRANCH  41  43
BRANCH  41  47
ATOM     47  C   UNL     1       0.827   2.693  20.042  0.00  0.00    +0.014 C 
ATOM     48  H   UNL     1      -0.037   3.162  19.552  0.00  0.00    +0.035 HD
ATOM     49  H   UNL     1       0.462   1.760  20.494  0.00  0.00    +0.035 HD
BRANCH  47  50
ATOM     50  C   UNL     1       1.840   2.328  19.009  0.00  0.00    +0.134 A 
ATOM     51  N   UNL     1       2.754   1.381  19.074  0.00  0.00    -0.135 NA
ATOM     52  N   UNL     1       3.470   1.389  17.901  0.00  0.00    -0.138 NA
ATOM     53  C   UNL     1       2.970   2.330  17.137  0.00  0.00    +0.120 A 
ATOM     54  N   UNL     1       1.946   2.943  17.787  0.00  0.00    -0.320 N 
ATOM     55  H   UNL     1       3.308   2.591  16.144  0.00  0.00    +0.105 HD
BRANCH  54  56
ATOM     56  C   UNL     1       1.137   4.017  17.278  0.00  0.00    +0.014 C 
ATOM     57  H   UNL     1       1.556   4.975  17.596  0.00  0.00    +0.046 HD
ATOM     58  H   UNL     1       0.124   3.907  17.675  0.00  0.00    +0.046 HD
ATOM     59  H   UNL     1       1.129   3.965  16.188  0.00  0.00    +0.046 HD
ENDBRANCH  54  56
ENDBRANCH  47  50
ENDBRANCH  41  47
ENDBRANCH   1  41
TORSDOF 8
ENDMDL
MODEL 23
REMARK VINA RESULT:    -5.662      1.511      4.769
REMARK INTER + INTRA:          -9.186
REMARK INTER:                  -7.940
REMARK INTRA:                  -1.246
REMARK UNBOUND:                -1.207
REMARK  Name = 
REMARK  8 active torsions:
REMARK  status: ('A' for Active; 'I' for Inactive)
REMARK    1  A    between atoms: C_1  and  C_2
REMARK    2  A    between atoms: C_2  and  C_3
REMARK    3  A    between atoms: C_2  and  C_10
REMARK    4  A    between atoms: C_3  and  C_4
REMARK    5  A    between atoms: N_8  and  C_9
REMARK    6  A    between atoms: N_13  and  C_14
REMARK    7  A    between atoms: C_19  and  N_21
REMARK    8  A    between atoms: C_28  and  C_29
REMARK                            x       y       z     vdW  Elec       q    Type
REMARK                         _______ _______ _______ _____ _____    ______ ____
ROOT
ATOM      1  C   UNL     1       2.654   4.705  17.823  0.00  0.00    -0.038 A 
ATOM      2  C   UNL     1       4.047   4.797  17.799  0.00  0.00    -0.018 A 
ATOM      3  C   UNL     1       4.666   5.971  18.214  0.00  0.00    +0.121 A 
ATOM      4  N   UNL     1       6.079   6.044  18.155  0.00  0.00    -0.326 N 
ATOM      5  N   UNL     1       3.960   7.045  18.613  0.00  0.00    -0.217 NA
ATOM      6  C   UNL     1       2.609   6.977  18.633  0.00  0.00    +0.130 A 
ATOM      7  C   UNL     1       1.932   5.825  18.249  0.00  0.00    -0.018 A 
ATOM      8  H   UNL     1       4.655   3.968  17.451  0.00  0.00    +0.065 HD
ATOM      9  H   UNL     1       6.451   5.216  18.611  0.00  0.00    +0.148 HD
ATOM     10  H   UNL     1       0.848   5.780  18.267  0.00  0.00    +0.065 HD
ENDROOT
BRANCH   6  11
ATOM     11  N   UNL     1       1.936   8.139  19.057  0.00  0.00    -0.248 N 
ATOM     12  C   UNL     1       1.332   8.174  20.378  0.00  0.00    +0.048 C 
ATOM     13  C   UNL     1       0.737   9.547  20.436  0.00  0.00    -0.006 A 
ATOM     14  C   UNL     1       0.998  10.217  19.244  0.00  0.00    +0.042 A 
ATOM     15  C   UNL     1       0.571  11.511  19.007  0.00  0.00    -0.049 A 
ATOM     16  C   UNL     1      -0.148  12.145  20.020  0.00  0.00    -0.060 A 
ATOM     17  C   UNL     1      -0.419  11.481  21.231  0.00  0.00    -0.050 A 
ATOM     18  C   UNL     1       0.022  10.163  21.459  0.00  0.00    +0.060 A 
ATOM     19  C   UNL     1       1.765   9.327  18.362  0.00  0.00    +0.253 C 
ATOM     20  O   UNL     1       2.132   9.665  17.253  0.00  0.00    -0.270 OA
ATOM     21  H   UNL     1       0.554   7.407  20.451  0.00  0.00    +0.052 HD
ATOM     22  H   UNL     1       2.103   8.048  21.145  0.00  0.00    +0.052 HD
ATOM     23  H   UNL     1       0.790  12.007  18.067  0.00  0.00    +0.063 HD
ATOM     24  H   UNL     1      -0.503  13.164  19.872  0.00  0.00    +0.062 HD
ATOM     25  H   UNL     1      -0.984  12.008  22.001  0.00  0.00    +0.062 HD
BRANCH  18  26
ATOM     26  C   UNL     1      -0.262   9.444  22.751  0.00  0.00    +0.418 C 
ATOM     27  F   UNL     1      -1.134  10.128  23.541  0.00  0.00    -0.166 F 
ATOM     28  F   UNL     1       0.845   9.228  23.512  0.00  0.00    -0.166 F 
ATOM     29  F   UNL     1      -0.823   8.221  22.548  0.00  0.00    -0.166 F 
ENDBRANCH  18  26
ENDBRANCH   6  11
BRANCH   4  30
ATOM     30  C   UNL     1       6.787   7.229  18.568  0.00  0.00    +0.022 C 
ATOM     31  C   UNL     1       8.320   7.041  18.475  0.00  0.00    -0.034 C 
ATOM     32  C   UNL     1       8.259   7.629  17.051  0.00  0.00    -0.050 C 
ATOM     33  C   UNL     1       6.919   8.284  17.443  0.00  0.00    -0.034 C 
ATOM     34  H   UNL     1       6.435   7.602  19.535  0.00  0.00    +0.050 HD
ATOM     35  H   UNL     1       8.876   7.670  19.182  0.00  0.00    +0.028 HD
ATOM     36  H   UNL     1       8.701   6.019  18.547  0.00  0.00    +0.028 HD
ATOM     37  H   UNL     1       8.166   6.871  16.265  0.00  0.00    +0.027 HD
ATOM     38  H   UNL     1       9.064   8.318  16.787  0.00  0.00    +0.027 HD
ATOM     39  H   UNL     1       7.027   9.308  17.822  0.00  0.00    +0.028 HD
ATOM     40  H   UNL     1       6.155   8.286  16.661  0.00  0.00    +0.028 HD
ENDBRANCH   4  30
BRANCH   1  41
ATOM     41  C   UNL     1       1.914   3.454  17.362  0.00  0.00    -0.012 C 
ATOM     42  H   UNL     1       2.189   3.266  16.314  0.00  0.00    +0.035 HD
BRANCH  41  43
ATOM     43  C   UNL     1       0.394   3.669  17.388  0.00  0.00    -0.058 C 
ATOM     44  H   UNL     1      -0.136   2.802  17.798  0.00  0.00    +0.024 HD
ATOM     45  H   UNL     1      -0.001   3.846  16.382  0.00  0.00    +0.024 HD
ATOM     46  H   UNL     1       0.133   4.541  17.999  0.00  0.00    +0.024 HD
ENDBRANCH  41  43
BRANCH  41  47
ATOM     47  C   UNL     1       2.354   2.248  18.217  0.00  0.00    +0.014 C 
ATOM     48  H   UNL     1       3.410   2.019  18.021  0.00  0.00    +0.035 HD
ATOM     49  H   UNL     1       1.780   1.361  17.917  0.00  0.00    +0.035 HD
BRANCH  47  50
ATOM     50  C   UNL     1       2.158   2.439  19.685  0.00  0.00    +0.134 A 
ATOM     51  N   UNL     1       1.025   2.634  20.328  0.00  0.00    -0.135 NA
ATOM     52  N   UNL     1       1.303   2.753  21.669  0.00  0.00    -0.138 NA
ATOM     53  C   UNL     1       2.598   2.615  21.819  0.00  0.00    +0.120 A 
ATOM     54  N   UNL     1       3.175   2.413  20.605  0.00  0.00    -0.320 N 
ATOM     55  H   UNL     1       3.138   2.653  22.755  0.00  0.00    +0.105 HD
BRANCH  54  56
ATOM     56  C   UNL     1       4.575   2.206  20.352  0.00  0.00    +0.014 C 
ATOM     57  H   UNL     1       4.721   1.238  19.865  0.00  0.00    +0.046 HD
ATOM     58  H   UNL     1       5.106   2.222  21.307  0.00  0.00    +0.046 HD
ATOM     59  H   UNL     1       4.935   3.003  19.698  0.00  0.00    +0.046 HD
ENDBRANCH  54  56
ENDBRANCH  47  50
ENDBRANCH  41  47
ENDBRANCH   1  41
TORSDOF 8
ENDMDL
MODEL 24
REMARK VINA RESULT:    -5.647      3.849      9.163
REMARK INTER + INTRA:          -9.165
REMARK INTER:                  -8.295
REMARK INTRA:                  -0.870
REMARK UNBOUND:                -1.207
REMARK  Name = 
REMARK  8 active torsions:
REMARK  status: ('A' for Active; 'I' for Inactive)
REMARK    1  A    between atoms: C_1  and  C_2
REMARK    2  A    between atoms: C_2  and  C_3
REMARK    3  A    between atoms: C_2  and  C_10
REMARK    4  A    between atoms: C_3  and  C_4
REMARK    5  A    between atoms: N_8  and  C_9
REMARK    6  A    between atoms: N_13  and  C_14
REMARK    7  A    between atoms: C_19  and  N_21
REMARK    8  A    between atoms: C_28  and  C_29
REMARK                            x       y       z     vdW  Elec       q    Type
REMARK                         _______ _______ _______ _____ _____    ______ ____
ROOT
ATOM      1  C   UNL     1      -1.258  11.694  19.667  0.00  0.00    -0.038 A 
ATOM      2  C   UNL     1      -0.460  12.827  19.834  0.00  0.00    -0.018 A 
ATOM      3  C   UNL     1       0.918  12.727  19.678  0.00  0.00    +0.121 A 
ATOM      4  N   UNL     1       1.704  13.888  19.878  0.00  0.00    -0.326 N 
ATOM      5  N   UNL     1       1.520  11.556  19.399  0.00  0.00    -0.217 NA
ATOM      6  C   UNL     1       0.763  10.445  19.243  0.00  0.00    +0.130 A 
ATOM      7  C   UNL     1      -0.621  10.484  19.367  0.00  0.00    -0.018 A 
ATOM      8  H   UNL     1      -0.899  13.784  20.095  0.00  0.00    +0.065 HD
ATOM      9  H   UNL     1       1.295  14.638  19.328  0.00  0.00    +0.148 HD
ATOM     10  H   UNL     1      -1.221   9.588  19.242  0.00  0.00    +0.065 HD
ENDROOT
BRANCH   6  11
ATOM     11  N   UNL     1       1.460   9.256  18.957  0.00  0.00    -0.248 N 
ATOM     12  C   UNL     1       1.289   8.100  19.821  0.00  0.00    +0.048 C 
ATOM     13  C   UNL     1       2.176   7.075  19.186  0.00  0.00    -0.006 A 
ATOM     14  C   UNL     1       2.783   7.620  18.059  0.00  0.00    +0.042 A 
ATOM     15  C   UNL     1       3.660   6.904  17.265  0.00  0.00    -0.049 A 
ATOM     16  C   UNL     1       3.928   5.585  17.631  0.00  0.00    -0.060 A 
ATOM     17  C   UNL     1       3.321   5.020  18.768  0.00  0.00    -0.050 A 
ATOM     18  C   UNL     1       2.430   5.761  19.568  0.00  0.00    +0.060 A 
ATOM     19  C   UNL     1       2.329   9.009  17.904  0.00  0.00    +0.253 C 
ATOM     20  O   UNL     1       2.703   9.720  16.992  0.00  0.00    -0.270 OA
ATOM     21  H   UNL     1       1.629   8.340  20.834  0.00  0.00    +0.052 HD
ATOM     22  H   UNL     1       0.243   7.776  19.808  0.00  0.00    +0.052 HD
ATOM     23  H   UNL     1       4.118   7.357  16.391  0.00  0.00    +0.063 HD
ATOM     24  H   UNL     1       4.614   4.988  17.032  0.00  0.00    +0.062 HD
ATOM     25  H   UNL     1       3.554   3.986  19.025  0.00  0.00    +0.062 HD
BRANCH  18  26
ATOM     26  C   UNL     1       1.775   5.165  20.786  0.00  0.00    +0.418 C 
ATOM     27  F   UNL     1       1.743   6.033  21.832  0.00  0.00    -0.166 F 
ATOM     28  F   UNL     1       2.394   4.043  21.247  0.00  0.00    -0.166 F 
ATOM     29  F   UNL     1       0.481   4.811  20.554  0.00  0.00    -0.166 F 
ENDBRANCH  18  26
ENDBRANCH   6  11
BRANCH   4  30
ATOM     30  C   UNL     1       3.138  13.858  19.735  0.00  0.00    +0.022 C 
ATOM     31  C   UNL     1       3.562  13.708  18.255  0.00  0.00    -0.034 C 
ATOM     32  C   UNL     1       3.631  15.246  18.168  0.00  0.00    -0.050 C 
ATOM     33  C   UNL     1       3.777  15.266  19.703  0.00  0.00    -0.034 C 
ATOM     34  H   UNL     1       3.603  13.136  20.413  0.00  0.00    +0.050 HD
ATOM     35  H   UNL     1       4.537  13.220  18.132  0.00  0.00    +0.028 HD
ATOM     36  H   UNL     1       2.848  13.229  17.579  0.00  0.00    +0.028 HD
ATOM     37  H   UNL     1       2.706  15.708  17.806  0.00  0.00    +0.027 HD
ATOM     38  H   UNL     1       4.475  15.652  17.605  0.00  0.00    +0.027 HD
ATOM     39  H   UNL     1       4.820  15.274  20.042  0.00  0.00    +0.028 HD
ATOM     40  H   UNL     1       3.244  16.075  20.211  0.00  0.00    +0.028 HD
ENDBRANCH   4  30
BRANCH   1  41
ATOM     41  C   UNL     1      -2.771  11.732  19.843  0.00  0.00    -0.012 C 
ATOM     42  H   UNL     1      -3.056  10.902  20.507  0.00  0.00    +0.035 HD
BRANCH  41  43
ATOM     43  C   UNL     1      -3.491  11.495  18.507  0.00  0.00    -0.058 C 
ATOM     44  H   UNL     1      -3.429  10.449  18.188  0.00  0.00    +0.024 HD
ATOM     45  H   UNL     1      -3.059  12.106  17.708  0.00  0.00    +0.024 HD
ATOM     46  H   UNL     1      -4.552  11.760  18.583  0.00  0.00    +0.024 HD
ENDBRANCH  41  43
BRANCH  41  47
ATOM     47  C   UNL     1      -3.182  13.063  20.507  0.00  0.00    +0.014 C 
ATOM     48  H   UNL     1      -3.898  13.592  19.866  0.00  0.00    +0.035 HD
ATOM     49  H   UNL     1      -2.300  13.712  20.594  0.00  0.00    +0.035 HD
BRANCH  47  50
ATOM     50  C   UNL     1      -3.765  12.908  21.872  0.00  0.00    +0.134 A 
ATOM     51  N   UNL     1      -5.036  12.780  22.196  0.00  0.00    -0.135 NA
ATOM     52  N   UNL     1      -5.124  12.660  23.563  0.00  0.00    -0.138 NA
ATOM     53  C   UNL     1      -3.905  12.702  24.044  0.00  0.00    +0.120 A 
ATOM     54  N   UNL     1      -3.021  12.853  23.023  0.00  0.00    -0.320 N 
ATOM     55  H   UNL     1      -3.630  12.630  25.087  0.00  0.00    +0.105 HD
BRANCH  54  56
ATOM     56  C   UNL     1      -1.590  12.931  23.141  0.00  0.00    +0.014 C 
ATOM     57  H   UNL     1      -1.210  12.019  23.608  0.00  0.00    +0.046 HD
ATOM     58  H   UNL     1      -1.339  13.795  23.761  0.00  0.00    +0.046 HD
ATOM     59  H   UNL     1      -1.161  13.038  22.143  0.00  0.00    +0.046 HD
ENDBRANCH  54  56
ENDBRANCH  47  50
ENDBRANCH  41  47
ENDBRANCH   1  41
TORSDOF 8
ENDMDL
MODEL 25
REMARK VINA RESULT:    -5.602      2.648      5.486
REMARK INTER + INTRA:          -9.101
REMARK INTER:                  -9.122
REMARK INTRA:                   0.022
REMARK UNBOUND:                -1.207
REMARK  Name = 
REMARK  8 active torsions:
REMARK  status: ('A' for Active; 'I' for Inactive)
REMARK    1  A    between atoms: C_1  and  C_2
REMARK    2  A    between atoms: C_2  and  C_3
REMARK    3  A    between atoms: C_2  and  C_10
REMARK    4  A    between atoms: C_3  and  C_4
REMARK    5  A    between atoms: N_8  and  C_9
REMARK    6  A    between atoms: N_13  and  C_14
REMARK    7  A    between atoms: C_19  and  N_21
REMARK    8  A    between atoms: C_28  and  C_29
REMARK                            x       y       z     vdW  Elec       q    Type
REMARK                         _______ _______ _______ _____ _____    ______ ____
ROOT
ATOM      1  C   UNL     1       1.989   4.656  20.621  0.00  0.00    -0.038 A 
ATOM      2  C   UNL     1       3.200   4.645  19.927  0.00  0.00    -0.018 A 
ATOM      3  C   UNL     1       3.709   5.833  19.414  0.00  0.00    +0.121 A 
ATOM      4  N   UNL     1       4.926   5.787  18.692  0.00  0.00    -0.326 N 
ATOM      5  N   UNL     1       3.052   7.001  19.537  0.00  0.00    -0.217 NA
ATOM      6  C   UNL     1       1.872   7.029  20.199  0.00  0.00    +0.130 A 
ATOM      7  C   UNL     1       1.320   5.879  20.752  0.00  0.00    -0.018 A 
ATOM      8  H   UNL     1       3.745   3.720  19.772  0.00  0.00    +0.065 HD
ATOM      9  H   UNL     1       5.601   5.276  19.254  0.00  0.00    +0.148 HD
ATOM     10  H   UNL     1       0.373   5.909  21.280  0.00  0.00    +0.065 HD
ENDROOT
BRANCH   6  11
ATOM     11  N   UNL     1       1.240   8.284  20.286  0.00  0.00    -0.248 N 
ATOM     12  C   UNL     1       0.343   8.708  19.224  0.00  0.00    +0.048 C 
ATOM     13  C   UNL     1      -0.107  10.058  19.688  0.00  0.00    -0.006 A 
ATOM     14  C   UNL     1       0.489  10.353  20.911  0.00  0.00    +0.042 A 
ATOM     15  C   UNL     1       0.260  11.537  21.587  0.00  0.00    -0.049 A 
ATOM     16  C   UNL     1      -0.609  12.455  20.997  0.00  0.00    -0.060 A 
ATOM     17  C   UNL     1      -1.220  12.172  19.762  0.00  0.00    -0.050 A 
ATOM     18  C   UNL     1      -0.977  10.962  19.084  0.00  0.00    +0.060 A 
ATOM     19  C   UNL     1       1.347   9.224  21.300  0.00  0.00    +0.253 C 
ATOM     20  O   UNL     1       1.985   9.216  22.334  0.00  0.00    -0.270 OA
ATOM     21  H   UNL     1       0.893   8.781  18.281  0.00  0.00    +0.052 HD
ATOM     22  H   UNL     1      -0.503   8.016  19.151  0.00  0.00    +0.052 HD
ATOM     23  H   UNL     1       0.740  11.737  22.539  0.00  0.00    +0.063 HD
ATOM     24  H   UNL     1      -0.815  13.400  21.498  0.00  0.00    +0.062 HD
ATOM     25  H   UNL     1      -1.894  12.913  19.330  0.00  0.00    +0.062 HD
BRANCH  18  26
ATOM     26  C   UNL     1      -1.627  10.649  17.762  0.00  0.00    +0.418 C 
ATOM     27  F   UNL     1      -2.809   9.991  17.911  0.00  0.00    -0.166 F 
ATOM     28  F   UNL     1      -0.864   9.870  16.947  0.00  0.00    -0.166 F 
ATOM     29  F   UNL     1      -1.912  11.773  17.049  0.00  0.00    -0.166 F 
ENDBRANCH  18  26
ENDBRANCH   6  11
BRANCH   4  30
ATOM     30  C   UNL     1       5.512   6.979  18.131  0.00  0.00    +0.022 C 
ATOM     31  C   UNL     1       7.051   6.864  18.023  0.00  0.00    -0.034 C 
ATOM     32  C   UNL     1       6.863   6.335  16.587  0.00  0.00    -0.050 C 
ATOM     33  C   UNL     1       5.475   7.006  16.584  0.00  0.00    -0.034 C 
ATOM     34  H   UNL     1       5.161   7.885  18.634  0.00  0.00    +0.050 HD
ATOM     35  H   UNL     1       7.561   7.834  18.067  0.00  0.00    +0.028 HD
ATOM     36  H   UNL     1       7.548   6.180  18.716  0.00  0.00    +0.028 HD
ATOM     37  H   UNL     1       6.825   5.241  16.522  0.00  0.00    +0.027 HD
ATOM     38  H   UNL     1       7.574   6.710  15.846  0.00  0.00    +0.027 HD
ATOM     39  H   UNL     1       5.482   8.022  16.171  0.00  0.00    +0.028 HD
ATOM     40  H   UNL     1       4.684   6.438  16.087  0.00  0.00    +0.028 HD
ENDBRANCH   4  30
BRANCH   1  41
ATOM     41  C   UNL     1       1.367   3.386  21.191  0.00  0.00    -0.012 C 
ATOM     42  H   UNL     1       0.510   3.679  21.815  0.00  0.00    +0.035 HD
BRANCH  41  43
ATOM     43  C   UNL     1       2.353   2.652  22.113  0.00  0.00    -0.058 C 
ATOM     44  H   UNL     1       2.346   3.062  23.129  0.00  0.00    +0.024 HD
ATOM     45  H   UNL     1       3.379   2.727  21.738  0.00  0.00    +0.024 HD
ATOM     46  H   UNL     1       2.106   1.587  22.179  0.00  0.00    +0.024 HD
ENDBRANCH  41  43
BRANCH  41  47
ATOM     47  C   UNL     1       0.862   2.495  20.038  0.00  0.00    +0.014 C 
ATOM     48  H   UNL     1      -0.032   2.944  19.585  0.00  0.00    +0.035 HD
ATOM     49  H   UNL     1       0.553   1.520  20.441  0.00  0.00    +0.035 HD
BRANCH  47  50
ATOM     50  C   UNL     1       1.878   2.243  18.974  0.00  0.00    +0.134 A 
ATOM     51  N   UNL     1       2.839   1.342  18.974  0.00  0.00    -0.135 NA
ATOM     52  N   UNL     1       3.537   1.454  17.795  0.00  0.00    -0.138 NA
ATOM     53  C   UNL     1       2.980   2.411  17.093  0.00  0.00    +0.120 A 
ATOM     54  N   UNL     1       1.935   2.932  17.789  0.00  0.00    -0.320 N 
ATOM     55  H   UNL     1       3.291   2.746  16.114  0.00  0.00    +0.105 HD
BRANCH  54  56
ATOM     56  C   UNL     1       1.066   3.991  17.353  0.00  0.00    +0.014 C 
ATOM     57  H   UNL     1       1.629   4.926  17.293  0.00  0.00    +0.046 HD
ATOM     58  H   UNL     1       0.255   4.095  18.077  0.00  0.00    +0.046 HD
ATOM     59  H   UNL     1       0.671   3.738  16.367  0.00  0.00    +0.046 HD
ENDBRANCH  54  56
ENDBRANCH  47  50
ENDBRANCH  41  47
ENDBRANCH   1  41
TORSDOF 8
ENDMDL
