MODEL 1
REMARK VINA RESULT:    -7.635      0.000      0.000
REMARK INTER + INTRA:         -11.589
REMARK INTER:                 -11.020
REMARK INTRA:                  -0.570
REMARK UNBOUND:                -0.830
REMARK  Name = 
REMARK  8 active torsions:
REMARK  status: ('A' for Active; 'I' for Inactive)
REMARK    1  A    between atoms: C_1  and  N_2
REMARK    2  A    between atoms: C_4  and  C_5
REMARK    3  A    between atoms: C_5  and  N_6
REMARK    4  A    between atoms: N_6  and  C_7
REMARK    5  A    between atoms: C_9  and  C_10
REMARK    6  A    between atoms: C_10  and  N_11
REMARK    7  A    between atoms: C_15  and  C_16
REMARK    8  A    between atoms: C_23  and  O_24
REMARK                            x       y       z     vdW  Elec       q    Type
REMARK                         _______ _______ _______ _____ _____    ______ ____
ROOT
ATOM      1  C   UNL     1       7.727   6.459  18.387  0.00  0.00    +0.034 C 
ATOM      2  C   UNL     1       6.539   6.575  17.432  0.00  0.00    -0.031 C 
ATOM      3  C   UNL     1       5.813   5.243  17.641  0.00  0.00    -0.019 C 
ATOM      4  C   UNL     1       5.947   4.964  19.149  0.00  0.00    -0.021 C 
ATOM      5  C   UNL     1       7.057   5.891  19.655  0.00  0.00    +0.071 C 
ATOM      6  H   UNL     1       8.453   5.725  18.011  0.00  0.00    +0.049 HD
ATOM      7  H   UNL     1       5.894   7.420  17.703  0.00  0.00    +0.028 HD
ATOM      8  H   UNL     1       6.849   6.702  16.390  0.00  0.00    +0.028 HD
ATOM      9  H   UNL     1       6.374   4.464  17.106  0.00  0.00    +0.032 HD
ATOM     10  H   UNL     1       6.171   3.907  19.330  0.00  0.00    +0.029 HD
ATOM     11  H   UNL     1       5.018   5.194  19.684  0.00  0.00    +0.029 HD
ATOM     12  H   UNL     1       6.613   6.688  20.266  0.00  0.00    +0.061 HD
ENDROOT
BRANCH   3  13
ATOM     13  C   UNL     1       4.372   5.280  17.132  0.00  0.00    +0.028 C 
ATOM     14  H   UNL     1       4.341   5.388  16.042  0.00  0.00    +0.049 HD
ATOM     15  H   UNL     1       3.854   4.343  17.368  0.00  0.00    +0.049 HD
BRANCH  13  16
ATOM     16  N   UNL     1       3.594   6.367  17.701  0.00  0.00    -0.330 N 
ATOM     17  C   UNL     1       3.688   7.681  17.330  0.00  0.00    +0.025 A 
ATOM     18  C   UNL     1       2.758   8.336  18.096  0.00  0.00    +0.046 A 
ATOM     19  N   UNL     1       2.095   7.456  18.909  0.00  0.00    -0.236 NA
ATOM     20  C   UNL     1       2.606   6.266  18.659  0.00  0.00    +0.141 A 
ATOM     21  H   UNL     1       4.385   8.032  16.582  0.00  0.00    +0.082 HD
ATOM     22  H   UNL     1       2.526   9.394  18.105  0.00  0.00    +0.084 HD
BRANCH  20  23
ATOM     23  C   UNL     1       2.188   5.021  19.295  0.00  0.00    +0.017 A 
ATOM     24  C   UNL     1       2.385   4.832  20.668  0.00  0.00    -0.051 A 
ATOM     25  C   UNL     1       1.976   3.646  21.281  0.00  0.00    -0.061 A 
ATOM     26  C   UNL     1       1.374   2.643  20.523  0.00  0.00    -0.062 A 
ATOM     27  C   UNL     1       1.185   2.819  19.151  0.00  0.00    -0.061 A 
ATOM     28  C   UNL     1       1.597   4.003  18.537  0.00  0.00    -0.051 A 
ATOM     29  H   UNL     1       2.868   5.605  21.260  0.00  0.00    +0.062 HD
ATOM     30  H   UNL     1       2.138   3.501  22.345  0.00  0.00    +0.062 HD
ATOM     31  H   UNL     1       1.062   1.716  20.998  0.00  0.00    +0.062 HD
ATOM     32  H   UNL     1       0.726   2.031  18.559  0.00  0.00    +0.062 HD
ATOM     33  H   UNL     1       1.470   4.125  17.464  0.00  0.00    +0.062 HD
ENDBRANCH  20  23
ENDBRANCH  13  16
ENDBRANCH   3  13
BRANCH   1  34
ATOM     34  N   UNL     1       8.414   7.725  18.654  0.00  0.00    -0.305 NA
ATOM     35  H   UNL     1       9.417   7.597  18.508  0.00  0.00    +0.123 HD
BRANCH  34  36
ATOM     36  C   UNL     1       7.985   8.789  17.738  0.00  0.00    +0.042 C 
ATOM     37  H   UNL     1       8.301   8.576  16.710  0.00  0.00    +0.049 HD
ATOM     38  H   UNL     1       6.895   8.896  17.748  0.00  0.00    +0.049 HD
BRANCH  36  41
ATOM     39  N   UNL     1       9.258  12.096  18.507  0.00  0.00    -0.254 N 
ATOM     40  C   UNL     1       8.474  11.343  17.688  0.00  0.00    +0.050 A 
ATOM     41  C   UNL     1       8.609  10.064  18.184  0.00  0.00    +0.097 A 
ATOM     42  N   UNL     1       9.456  10.092  19.265  0.00  0.00    -0.133 NA
ATOM     43  N   UNL     1       9.851  11.346  19.449  0.00  0.00    -0.066 NA
ATOM     44  H   UNL     1       7.900  11.754  16.870  0.00  0.00    +0.085 HD
BRANCH  39  45
ATOM     45  C   UNL     1       9.490  13.514  18.460  0.00  0.00    +0.032 C 
ATOM     46  H   UNL     1       8.530  14.038  18.462  0.00  0.00    +0.047 HD
ATOM     47  H   UNL     1      10.039  13.747  17.543  0.00  0.00    +0.047 HD
ATOM     48  H   UNL     1      10.073  13.800  19.341  0.00  0.00    +0.047 HD
ENDBRANCH  39  45
ENDBRANCH  36  41
ENDBRANCH  34  36
ENDBRANCH   1  34
BRANCH   5  49
ATOM     49  O   UNL     1       7.979   5.173  20.459  0.00  0.00    -0.390 OA
ATOM     50  H   UNL     1       8.421   5.821  21.034  0.00  0.00    +0.210 HD
ENDBRANCH   5  49
TORSDOF 8
ENDMDL
MODEL 2
REMARK VINA RESULT:    -7.598      4.126      7.418
REMARK INTER + INTRA:         -11.537
REMARK INTER:                 -10.418
REMARK INTRA:                  -1.119
REMARK UNBOUND:                -0.830
REMARK  Name = 
REMARK  8 active torsions:
REMARK  status: ('A' for Active; 'I' for Inactive)
REMARK    1  A    between atoms: C_1  and  N_2
REMARK    2  A    between atoms: C_4  and  C_5
REMARK    3  A    between atoms: C_5  and  N_6
REMARK    4  A    between atoms: N_6  and  C_7
REMARK    5  A    between atoms: C_9  and  C_10
REMARK    6  A    between atoms: C_10  and  N_11
REMARK    7  A    between atoms: C_15  and  C_16
REMARK    8  A    between atoms: C_23  and  O_24
REMARK                            x       y       z     vdW  Elec       q    Type
REMARK                         _______ _______ _______ _____ _____    ______ ____
ROOT
ATOM      1  C   UNL     1       1.190  10.273  18.901  0.00  0.00    +0.034 C 
ATOM      2  C   UNL     1       1.474   9.282  17.774  0.00  0.00    -0.031 C 
ATOM      3  C   UNL     1       2.352   8.235  18.465  0.00  0.00    -0.019 C 
ATOM      4  C   UNL     1       1.753   8.102  19.877  0.00  0.00    -0.021 C 
ATOM      5  C   UNL     1       0.857   9.330  20.075  0.00  0.00    +0.071 C 
ATOM      6  H   UNL     1       2.096  10.843  19.150  0.00  0.00    +0.049 HD
ATOM      7  H   UNL     1       0.546   8.830  17.400  0.00  0.00    +0.028 HD
ATOM      8  H   UNL     1       1.994   9.744  16.929  0.00  0.00    +0.028 HD
ATOM      9  H   UNL     1       3.361   8.654  18.568  0.00  0.00    +0.032 HD
ATOM     10  H   UNL     1       2.546   8.039  20.631  0.00  0.00    +0.029 HD
ATOM     11  H   UNL     1       1.144   7.196  19.972  0.00  0.00    +0.029 HD
ATOM     12  H   UNL     1      -0.196   9.017  20.053  0.00  0.00    +0.061 HD
ENDROOT
BRANCH   3  13
ATOM     13  C   UNL     1       2.416   6.922  17.683  0.00  0.00    +0.028 C 
ATOM     14  H   UNL     1       1.620   6.237  17.997  0.00  0.00    +0.049 HD
ATOM     15  H   UNL     1       2.270   7.102  16.612  0.00  0.00    +0.049 HD
BRANCH  13  16
ATOM     16  N   UNL     1       3.680   6.224  17.842  0.00  0.00    -0.330 N 
ATOM     17  C   UNL     1       4.892   6.677  17.395  0.00  0.00    +0.025 A 
ATOM     18  C   UNL     1       5.797   5.724  17.789  0.00  0.00    +0.046 A 
ATOM     19  N   UNL     1       5.171   4.717  18.473  0.00  0.00    -0.236 NA
ATOM     20  C   UNL     1       3.890   5.030  18.502  0.00  0.00    +0.141 A 
ATOM     21  H   UNL     1       5.009   7.603  16.850  0.00  0.00    +0.082 HD
ATOM     22  H   UNL     1       6.866   5.710  17.621  0.00  0.00    +0.084 HD
BRANCH  20  23
ATOM     23  C   UNL     1       2.845   4.240  19.144  0.00  0.00    +0.017 A 
ATOM     24  C   UNL     1       2.589   4.391  20.512  0.00  0.00    -0.051 A 
ATOM     25  C   UNL     1       1.583   3.644  21.126  0.00  0.00    -0.061 A 
ATOM     26  C   UNL     1       0.832   2.739  20.377  0.00  0.00    -0.062 A 
ATOM     27  C   UNL     1       1.089   2.574  19.015  0.00  0.00    -0.061 A 
ATOM     28  C   UNL     1       2.098   3.318  18.401  0.00  0.00    -0.051 A 
ATOM     29  H   UNL     1       3.182   5.084  21.103  0.00  0.00    +0.062 HD
ATOM     30  H   UNL     1       1.393   3.760  22.190  0.00  0.00    +0.062 HD
ATOM     31  H   UNL     1       0.053   2.151  20.857  0.00  0.00    +0.062 HD
ATOM     32  H   UNL     1       0.511   1.859  18.435  0.00  0.00    +0.062 HD
ATOM     33  H   UNL     1       2.310   3.168  17.345  0.00  0.00    +0.062 HD
ENDBRANCH  20  23
ENDBRANCH  13  16
ENDBRANCH   3  13
BRANCH   1  34
ATOM     34  N   UNL     1       0.095  11.207  18.624  0.00  0.00    -0.305 NA
ATOM     35  H   UNL     1       0.050  11.379  17.618  0.00  0.00    +0.123 HD
BRANCH  34  36
ATOM     36  C   UNL     1      -1.210  10.661  19.020  0.00  0.00    +0.042 C 
ATOM     37  H   UNL     1      -1.117   9.620  19.352  0.00  0.00    +0.049 HD
ATOM     38  H   UNL     1      -1.645  11.246  19.837  0.00  0.00    +0.049 HD
BRANCH  36  41
ATOM     39  N   UNL     1      -3.151  10.469  15.964  0.00  0.00    -0.254 N 
ATOM     40  C   UNL     1      -2.055  10.032  16.642  0.00  0.00    +0.050 A 
ATOM     41  C   UNL     1      -2.112  10.716  17.838  0.00  0.00    +0.097 A 
ATOM     42  N   UNL     1      -3.221  11.526  17.836  0.00  0.00    -0.133 NA
ATOM     43  N   UNL     1      -3.847  11.369  16.677  0.00  0.00    -0.066 NA
ATOM     44  H   UNL     1      -1.365   9.299  16.249  0.00  0.00    +0.085 HD
BRANCH  39  45
ATOM     45  C   UNL     1      -3.599  10.084  14.653  0.00  0.00    +0.032 C 
ATOM     46  H   UNL     1      -3.182   9.105  14.402  0.00  0.00    +0.047 HD
ATOM     47  H   UNL     1      -3.252  10.831  13.933  0.00  0.00    +0.047 HD
ATOM     48  H   UNL     1      -4.692  10.034  14.659  0.00  0.00    +0.047 HD
ENDBRANCH  39  45
ENDBRANCH  36  41
ENDBRANCH  34  36
ENDBRANCH   1  34
BRANCH   5  49
ATOM     49  O   UNL     1       1.115   9.940  21.328  0.00  0.00    -0.390 OA
ATOM     50  H   UNL     1       0.281  10.340  21.629  0.00  0.00    +0.210 HD
ENDBRANCH   5  49
TORSDOF 8
ENDMDL
MODEL 3
REMARK VINA RESULT:    -7.518      4.177      7.508
REMARK INTER + INTRA:         -11.424
REMARK INTER:                 -10.154
REMARK INTRA:                  -1.270
REMARK UNBOUND:                -0.830
REMARK  Name = 
REMARK  8 active torsions:
REMARK  status: ('A' for Active; 'I' for Inactive)
REMARK    1  A    between atoms: C_1  and  N_2
REMARK    2  A    between atoms: C_4  and  C_5
REMARK    3  A    between atoms: C_5  and  N_6
REMARK    4  A    between atoms: N_6  and  C_7
REMARK    5  A    between atoms: C_9  and  C_10
REMARK    6  A    between atoms: C_10  and  N_11
REMARK    7  A    between atoms: C_15  and  C_16
REMARK    8  A    between atoms: C_23  and  O_24
REMARK                            x       y       z     vdW  Elec       q    Type
REMARK                         _______ _______ _______ _____ _____    ______ ____
ROOT
ATOM      1  C   UNL     1       1.040   9.144  19.632  0.00  0.00    +0.034 C 
ATOM      2  C   UNL     1       1.630   7.938  20.362  0.00  0.00    -0.031 C 
ATOM      3  C   UNL     1       2.054   7.025  19.207  0.00  0.00    -0.019 C 
ATOM      4  C   UNL     1       2.588   7.988  18.131  0.00  0.00    -0.021 C 
ATOM      5  C   UNL     1       2.083   9.382  18.521  0.00  0.00    +0.071 C 
ATOM      6  H   UNL     1       0.080   8.880  19.167  0.00  0.00    +0.049 HD
ATOM      7  H   UNL     1       2.496   8.228  20.970  0.00  0.00    +0.028 HD
ATOM      8  H   UNL     1       0.903   7.445  21.014  0.00  0.00    +0.028 HD
ATOM      9  H   UNL     1       1.152   6.545  18.807  0.00  0.00    +0.032 HD
ATOM     10  H   UNL     1       2.249   7.685  17.135  0.00  0.00    +0.029 HD
ATOM     11  H   UNL     1       3.684   7.999  18.110  0.00  0.00    +0.029 HD
ATOM     12  H   UNL     1       2.926   9.985  18.884  0.00  0.00    +0.061 HD
ENDROOT
BRANCH   3  13
ATOM     13  C   UNL     1       3.054   5.956  19.648  0.00  0.00    +0.028 C 
ATOM     14  H   UNL     1       4.028   6.401  19.887  0.00  0.00    +0.049 HD
ATOM     15  H   UNL     1       2.708   5.454  20.559  0.00  0.00    +0.049 HD
BRANCH  13  16
ATOM     16  N   UNL     1       3.279   4.934  18.641  0.00  0.00    -0.330 N 
ATOM     17  C   UNL     1       2.344   4.029  18.215  0.00  0.00    +0.025 A 
ATOM     18  C   UNL     1       2.977   3.291  17.248  0.00  0.00    +0.046 A 
ATOM     19  N   UNL     1       4.261   3.730  17.066  0.00  0.00    -0.236 NA
ATOM     20  C   UNL     1       4.433   4.727  17.913  0.00  0.00    +0.141 A 
ATOM     21  H   UNL     1       1.343   3.982  18.621  0.00  0.00    +0.082 HD
ATOM     22  H   UNL     1       2.577   2.468  16.669  0.00  0.00    +0.084 HD
BRANCH  20  23
ATOM     23  C   UNL     1       5.657   5.506  18.056  0.00  0.00    +0.017 A 
ATOM     24  C   UNL     1       5.907   6.588  17.203  0.00  0.00    -0.051 A 
ATOM     25  C   UNL     1       7.073   7.342  17.344  0.00  0.00    -0.061 A 
ATOM     26  C   UNL     1       7.997   7.015  18.337  0.00  0.00    -0.062 A 
ATOM     27  C   UNL     1       7.760   5.931  19.184  0.00  0.00    -0.061 A 
ATOM     28  C   UNL     1       6.597   5.175  19.040  0.00  0.00    -0.051 A 
ATOM     29  H   UNL     1       5.197   6.837  16.418  0.00  0.00    +0.062 HD
ATOM     30  H   UNL     1       7.265   8.176  16.674  0.00  0.00    +0.062 HD
ATOM     31  H   UNL     1       8.909   7.598  18.443  0.00  0.00    +0.062 HD
ATOM     32  H   UNL     1       8.488   5.670  19.949  0.00  0.00    +0.062 HD
ATOM     33  H   UNL     1       6.430   4.316  19.686  0.00  0.00    +0.062 HD
ENDBRANCH  20  23
ENDBRANCH  13  16
ENDBRANCH   3  13
BRANCH   1  34
ATOM     34  N   UNL     1       0.858  10.330  20.473  0.00  0.00    -0.305 NA
ATOM     35  H   UNL     1       1.308  11.130  20.024  0.00  0.00    +0.123 HD
BRANCH  34  36
ATOM     36  C   UNL     1      -0.559  10.678  20.637  0.00  0.00    +0.042 C 
ATOM     37  H   UNL     1      -1.129   9.831  21.037  0.00  0.00    +0.049 HD
ATOM     38  H   UNL     1      -0.675  11.525  21.322  0.00  0.00    +0.049 HD
BRANCH  36  41
ATOM     39  N   UNL     1      -2.160  11.214  17.429  0.00  0.00    -0.254 N 
ATOM     40  C   UNL     1      -2.051  10.413  18.524  0.00  0.00    +0.050 A 
ATOM     41  C   UNL     1      -1.104  11.044  19.302  0.00  0.00    +0.097 A 
ATOM     42  N   UNL     1      -0.684  12.182  18.658  0.00  0.00    -0.133 NA
ATOM     43  N   UNL     1      -1.337  12.272  17.507  0.00  0.00    -0.066 NA
ATOM     44  H   UNL     1      -2.633   9.513  18.664  0.00  0.00    +0.085 HD
BRANCH  39  45
ATOM     45  C   UNL     1      -3.013  11.045  16.284  0.00  0.00    +0.032 C 
ATOM     46  H   UNL     1      -3.617  11.946  16.146  0.00  0.00    +0.047 HD
ATOM     47  H   UNL     1      -3.665  10.183  16.459  0.00  0.00    +0.047 HD
ATOM     48  H   UNL     1      -2.385  10.879  15.403  0.00  0.00    +0.047 HD
ENDBRANCH  39  45
ENDBRANCH  36  41
ENDBRANCH  34  36
ENDBRANCH   1  34
BRANCH   5  49
ATOM     49  O   UNL     1       1.515  10.039  17.400  0.00  0.00    -0.390 OA
ATOM     50  H   UNL     1       1.213   9.346  16.787  0.00  0.00    +0.210 HD
ENDBRANCH   5  49
TORSDOF 8
ENDMDL
MODEL 4
REMARK VINA RESULT:    -7.425      4.624      7.342
REMARK INTER + INTRA:         -11.294
REMARK INTER:                 -10.314
REMARK INTRA:                  -0.980
REMARK UNBOUND:                -0.830
REMARK  Name = 
REMARK  8 active torsions:
REMARK  status: ('A' for Active; 'I' for Inactive)
REMARK    1  A    between atoms: C_1  and  N_2
REMARK    2  A    between atoms: C_4  and  C_5
REMARK    3  A    between atoms: C_5  and  N_6
REMARK    4  A    between atoms: N_6  and  C_7
REMARK    5  A    between atoms: C_9  and  C_10
REMARK    6  A    between atoms: C_10  and  N_11
REMARK    7  A    between atoms: C_15  and  C_16
REMARK    8  A    between atoms: C_23  and  O_24
REMARK                            x       y       z     vdW  Elec       q    Type
REMARK                         _______ _______ _______ _____ _____    ______ ____
ROOT
ATOM      1  C   UNL     1       1.208   8.905  19.505  0.00  0.00    +0.034 C 
ATOM      2  C   UNL     1       1.879   7.694  20.152  0.00  0.00    -0.031 C 
ATOM      3  C   UNL     1       2.354   6.890  18.938  0.00  0.00    -0.019 C 
ATOM      4  C   UNL     1       2.818   7.955  17.928  0.00  0.00    -0.021 C 
ATOM      5  C   UNL     1       2.226   9.284  18.411  0.00  0.00    +0.071 C 
ATOM      6  H   UNL     1       0.264   8.612  19.026  0.00  0.00    +0.049 HD
ATOM      7  H   UNL     1       2.728   7.998  20.776  0.00  0.00    +0.028 HD
ATOM      8  H   UNL     1       1.189   7.113  20.771  0.00  0.00    +0.028 HD
ATOM      9  H   UNL     1       1.482   6.380  18.508  0.00  0.00    +0.032 HD
ATOM     10  H   UNL     1       2.492   7.698  16.914  0.00  0.00    +0.029 HD
ATOM     11  H   UNL     1       3.911   8.038  17.905  0.00  0.00    +0.029 HD
ATOM     12  H   UNL     1       3.031   9.914  18.812  0.00  0.00    +0.061 HD
ENDROOT
BRANCH   3  13
ATOM     13  C   UNL     1       3.424   5.860  19.304  0.00  0.00    +0.028 C 
ATOM     14  H   UNL     1       4.382   6.102  18.829  0.00  0.00    +0.049 HD
ATOM     15  H   UNL     1       3.603   5.856  20.385  0.00  0.00    +0.049 HD
BRANCH  13  16
ATOM     16  N   UNL     1       3.072   4.507  18.912  0.00  0.00    -0.330 N 
ATOM     17  C   UNL     1       1.979   3.816  19.360  0.00  0.00    +0.025 A 
ATOM     18  C   UNL     1       2.028   2.609  18.710  0.00  0.00    +0.046 A 
ATOM     19  N   UNL     1       3.109   2.555  17.872  0.00  0.00    -0.236 NA
ATOM     20  C   UNL     1       3.734   3.710  18.000  0.00  0.00    +0.141 A 
ATOM     21  H   UNL     1       1.282   4.221  20.080  0.00  0.00    +0.082 HD
ATOM     22  H   UNL     1       1.341   1.776  18.796  0.00  0.00    +0.084 HD
BRANCH  20  23
ATOM     23  C   UNL     1       4.941   4.097  17.280  0.00  0.00    +0.017 A 
ATOM     24  C   UNL     1       6.137   4.313  17.976  0.00  0.00    -0.051 A 
ATOM     25  C   UNL     1       7.297   4.674  17.288  0.00  0.00    -0.061 A 
ATOM     26  C   UNL     1       7.265   4.825  15.902  0.00  0.00    -0.062 A 
ATOM     27  C   UNL     1       6.074   4.623  15.202  0.00  0.00    -0.061 A 
ATOM     28  C   UNL     1       4.914   4.267  15.890  0.00  0.00    -0.051 A 
ATOM     29  H   UNL     1       6.163   4.211  19.058  0.00  0.00    +0.062 HD
ATOM     30  H   UNL     1       8.220   4.847  17.834  0.00  0.00    +0.062 HD
ATOM     31  H   UNL     1       8.167   5.113  15.366  0.00  0.00    +0.062 HD
ATOM     32  H   UNL     1       6.049   4.753  14.123  0.00  0.00    +0.062 HD
ATOM     33  H   UNL     1       3.983   4.135  15.343  0.00  0.00    +0.062 HD
ENDBRANCH  20  23
ENDBRANCH  13  16
ENDBRANCH   3  13
BRANCH   1  34
ATOM     34  N   UNL     1       0.956  10.018  20.424  0.00  0.00    -0.305 NA
ATOM     35  H   UNL     1       1.375  10.868  20.043  0.00  0.00    +0.123 HD
BRANCH  34  36
ATOM     36  C   UNL     1      -0.479  10.288  20.584  0.00  0.00    +0.042 C 
ATOM     37  H   UNL     1      -1.024   9.375  20.854  0.00  0.00    +0.049 HD
ATOM     38  H   UNL     1      -0.650  11.035  21.366  0.00  0.00    +0.049 HD
BRANCH  36  41
ATOM     39  N   UNL     1      -2.012  11.169  17.419  0.00  0.00    -0.254 N 
ATOM     40  C   UNL     1      -1.904  10.242  18.409  0.00  0.00    +0.050 A 
ATOM     41  C   UNL     1      -1.001  10.800  19.288  0.00  0.00    +0.097 A 
ATOM     42  N   UNL     1      -0.604  12.022  18.804  0.00  0.00    -0.133 NA
ATOM     43  N   UNL     1      -1.229  12.234  17.653  0.00  0.00    -0.066 NA
ATOM     44  H   UNL     1      -2.458   9.314  18.419  0.00  0.00    +0.085 HD
BRANCH  39  45
ATOM     45  C   UNL     1      -2.828  11.118  16.237  0.00  0.00    +0.032 C 
ATOM     46  H   UNL     1      -3.494  10.253  16.294  0.00  0.00    +0.047 HD
ATOM     47  H   UNL     1      -2.173  11.026  15.365  0.00  0.00    +0.047 HD
ATOM     48  H   UNL     1      -3.417  12.039  16.179  0.00  0.00    +0.047 HD
ENDBRANCH  39  45
ENDBRANCH  36  41
ENDBRANCH  34  36
ENDBRANCH   1  34
BRANCH   5  49
ATOM     49  O   UNL     1       1.610   9.976  17.338  0.00  0.00    -0.390 OA
ATOM     50  H   UNL     1       2.166   9.834  16.551  0.00  0.00    +0.210 HD
ENDBRANCH   5  49
TORSDOF 8
ENDMDL
MODEL 5
REMARK VINA RESULT:    -7.412      4.186      7.684
REMARK INTER + INTRA:         -11.276
REMARK INTER:                 -10.260
REMARK INTRA:                  -1.016
REMARK UNBOUND:                -0.830
REMARK  Name = 
REMARK  8 active torsions:
REMARK  status: ('A' for Active; 'I' for Inactive)
REMARK    1  A    between atoms: C_1  and  N_2
REMARK    2  A    between atoms: C_4  and  C_5
REMARK    3  A    between atoms: C_5  and  N_6
REMARK    4  A    between atoms: N_6  and  C_7
REMARK    5  A    between atoms: C_9  and  C_10
REMARK    6  A    between atoms: C_10  and  N_11
REMARK    7  A    between atoms: C_15  and  C_16
REMARK    8  A    between atoms: C_23  and  O_24
REMARK                            x       y       z     vdW  Elec       q    Type
REMARK                         _______ _______ _______ _____ _____    ______ ____
ROOT
ATOM      1  C   UNL     1       1.028   9.219  19.650  0.00  0.00    +0.034 C 
ATOM      2  C   UNL     1       1.626   8.036  20.410  0.00  0.00    -0.031 C 
ATOM      3  C   UNL     1       1.989   7.065  19.281  0.00  0.00    -0.019 C 
ATOM      4  C   UNL     1       2.495   7.970  18.143  0.00  0.00    -0.021 C 
ATOM      5  C   UNL     1       2.030   9.389  18.490  0.00  0.00    +0.071 C 
ATOM      6  H   UNL     1       0.046   8.953  19.235  0.00  0.00    +0.049 HD
ATOM      7  H   UNL     1       2.521   8.336  20.970  0.00  0.00    +0.028 HD
ATOM      8  H   UNL     1       0.918   7.585  21.111  0.00  0.00    +0.028 HD
ATOM      9  H   UNL     1       1.063   6.584  18.938  0.00  0.00    +0.032 HD
ATOM     10  H   UNL     1       2.112   7.630  17.176  0.00  0.00    +0.029 HD
ATOM     11  H   UNL     1       3.590   7.959  18.079  0.00  0.00    +0.029 HD
ATOM     12  H   UNL     1       2.897   9.991  18.792  0.00  0.00    +0.061 HD
ENDROOT
BRANCH   3  13
ATOM     13  C   UNL     1       2.988   5.998  19.730  0.00  0.00    +0.028 C 
ATOM     14  H   UNL     1       3.969   6.440  19.938  0.00  0.00    +0.049 HD
ATOM     15  H   UNL     1       2.655   5.523  20.660  0.00  0.00    +0.049 HD
BRANCH  13  16
ATOM     16  N   UNL     1       3.182   4.948  18.746  0.00  0.00    -0.330 N 
ATOM     17  C   UNL     1       2.233   4.038  18.366  0.00  0.00    +0.025 A 
ATOM     18  C   UNL     1       2.839   3.270  17.405  0.00  0.00    +0.046 A 
ATOM     19  N   UNL     1       4.120   3.697  17.181  0.00  0.00    -0.236 NA
ATOM     20  C   UNL     1       4.317   4.715  17.996  0.00  0.00    +0.141 A 
ATOM     21  H   UNL     1       1.242   4.008  18.797  0.00  0.00    +0.082 HD
ATOM     22  H   UNL     1       2.421   2.434  16.857  0.00  0.00    +0.084 HD
BRANCH  20  23
ATOM     23  C   UNL     1       5.549   5.491  18.089  0.00  0.00    +0.017 A 
ATOM     24  C   UNL     1       6.505   5.177  19.063  0.00  0.00    -0.051 A 
ATOM     25  C   UNL     1       7.690   5.911  19.148  0.00  0.00    -0.061 A 
ATOM     26  C   UNL     1       7.921   6.964  18.264  0.00  0.00    -0.062 A 
ATOM     27  C   UNL     1       6.967   7.290  17.298  0.00  0.00    -0.061 A 
ATOM     28  C   UNL     1       5.781   6.560  17.216  0.00  0.00    -0.051 A 
ATOM     29  H   UNL     1       6.323   4.367  19.764  0.00  0.00    +0.062 HD
ATOM     30  H   UNL     1       8.425   5.668  19.910  0.00  0.00    +0.062 HD
ATOM     31  H   UNL     1       8.841   7.540  18.334  0.00  0.00    +0.062 HD
ATOM     32  H   UNL     1       7.144   8.120  16.617  0.00  0.00    +0.062 HD
ATOM     33  H   UNL     1       5.031   6.834  16.477  0.00  0.00    +0.062 HD
ENDBRANCH  20  23
ENDBRANCH  13  16
ENDBRANCH   3  13
BRANCH   1  34
ATOM     34  N   UNL     1       0.900  10.444  20.443  0.00  0.00    -0.305 NA
ATOM     35  H   UNL     1       0.188  11.043  20.020  0.00  0.00    +0.123 HD
BRANCH  34  36
ATOM     36  C   UNL     1       0.460  10.168  21.817  0.00  0.00    +0.042 C 
ATOM     37  H   UNL     1       0.191   9.112  21.940  0.00  0.00    +0.049 HD
ATOM     38  H   UNL     1       1.252  10.408  22.535  0.00  0.00    +0.049 HD
BRANCH  36  41
ATOM     39  N   UNL     1      -2.402  12.377  22.084  0.00  0.00    -0.254 N 
ATOM     40  C   UNL     1      -1.359  11.958  21.316  0.00  0.00    +0.050 A 
ATOM     41  C   UNL     1      -0.733  11.011  22.099  0.00  0.00    +0.097 A 
ATOM     42  N   UNL     1      -1.409  10.898  23.289  0.00  0.00    -0.133 NA
ATOM     43  N   UNL     1      -2.429  11.746  23.269  0.00  0.00    -0.066 NA
ATOM     44  H   UNL     1      -1.163  12.333  20.323  0.00  0.00    +0.085 HD
BRANCH  39  45
ATOM     45  C   UNL     1      -3.403  13.359  21.765  0.00  0.00    +0.032 C 
ATOM     46  H   UNL     1      -3.438  13.502  20.682  0.00  0.00    +0.047 HD
ATOM     47  H   UNL     1      -3.137  14.300  22.256  0.00  0.00    +0.047 HD
ATOM     48  H   UNL     1      -4.372  12.998  22.125  0.00  0.00    +0.047 HD
ENDBRANCH  39  45
ENDBRANCH  36  41
ENDBRANCH  34  36
ENDBRANCH   1  34
BRANCH   5  49
ATOM     49  O   UNL     1       1.429  10.006  17.363  0.00  0.00    -0.390 OA
ATOM     50  H   UNL     1       0.770  10.637  17.701  0.00  0.00    +0.210 HD
ENDBRANCH   5  49
TORSDOF 8
ENDMDL
MODEL 6
REMARK VINA RESULT:    -7.346      4.530      6.802
REMARK INTER + INTRA:         -11.182
REMARK INTER:                  -9.806
REMARK INTRA:                  -1.375
REMARK UNBOUND:                -0.830
REMARK  Name = 
REMARK  8 active torsions:
REMARK  status: ('A' for Active; 'I' for Inactive)
REMARK    1  A    between atoms: C_1  and  N_2
REMARK    2  A    between atoms: C_4  and  C_5
REMARK    3  A    between atoms: C_5  and  N_6
REMARK    4  A    between atoms: N_6  and  C_7
REMARK    5  A    between atoms: C_9  and  C_10
REMARK    6  A    between atoms: C_10  and  N_11
REMARK    7  A    between atoms: C_15  and  C_16
REMARK    8  A    between atoms: C_23  and  O_24
REMARK                            x       y       z     vdW  Elec       q    Type
REMARK                         _______ _______ _______ _____ _____    ______ ____
ROOT
ATOM      1  C   UNL     1       1.231   8.854  19.388  0.00  0.00    +0.034 C 
ATOM      2  C   UNL     1       2.117   7.724  19.909  0.00  0.00    -0.031 C 
ATOM      3  C   UNL     1       2.716   7.150  18.621  0.00  0.00    -0.019 C 
ATOM      4  C   UNL     1       2.968   8.382  17.732  0.00  0.00    -0.021 C 
ATOM      5  C   UNL     1       2.151   9.524  18.348  0.00  0.00    +0.071 C 
ATOM      6  H   UNL     1       0.350   8.446  18.873  0.00  0.00    +0.049 HD
ATOM      7  H   UNL     1       2.905   8.109  20.569  0.00  0.00    +0.028 HD
ATOM      8  H   UNL     1       1.551   6.965  20.458  0.00  0.00    +0.028 HD
ATOM      9  H   UNL     1       1.946   6.538  18.133  0.00  0.00    +0.032 HD
ATOM     10  H   UNL     1       2.683   8.178  16.695  0.00  0.00    +0.029 HD
ATOM     11  H   UNL     1       4.028   8.663  17.727  0.00  0.00    +0.029 HD
ATOM     12  H   UNL     1       2.833  10.244  18.819  0.00  0.00    +0.061 HD
ENDROOT
BRANCH   3  13
ATOM     13  C   UNL     1       3.959   6.300  18.885  0.00  0.00    +0.028 C 
ATOM     14  H   UNL     1       4.873   6.900  18.803  0.00  0.00    +0.049 HD
ATOM     15  H   UNL     1       3.941   5.895  19.904  0.00  0.00    +0.049 HD
BRANCH  13  16
ATOM     16  N   UNL     1       4.089   5.180  17.970  0.00  0.00    -0.330 N 
ATOM     17  C   UNL     1       4.796   5.198  16.798  0.00  0.00    +0.025 A 
ATOM     18  C   UNL     1       4.672   3.932  16.286  0.00  0.00    +0.046 A 
ATOM     19  N   UNL     1       3.923   3.144  17.119  0.00  0.00    -0.236 NA
ATOM     20  C   UNL     1       3.578   3.909  18.137  0.00  0.00    +0.141 A 
ATOM     21  H   UNL     1       5.308   6.078  16.434  0.00  0.00    +0.082 HD
ATOM     22  H   UNL     1       5.084   3.541  15.364  0.00  0.00    +0.084 HD
BRANCH  20  23
ATOM     23  C   UNL     1       2.780   3.478  19.279  0.00  0.00    +0.017 A 
ATOM     24  C   UNL     1       3.399   2.885  20.386  0.00  0.00    -0.051 A 
ATOM     25  C   UNL     1       2.639   2.480  21.485  0.00  0.00    -0.061 A 
ATOM     26  C   UNL     1       1.257   2.663  21.481  0.00  0.00    -0.062 A 
ATOM     27  C   UNL     1       0.631   3.243  20.376  0.00  0.00    -0.061 A 
ATOM     28  C   UNL     1       1.390   3.643  19.275  0.00  0.00    -0.051 A 
ATOM     29  H   UNL     1       4.475   2.727  20.388  0.00  0.00    +0.062 HD
ATOM     30  H   UNL     1       3.124   2.014  22.339  0.00  0.00    +0.062 HD
ATOM     31  H   UNL     1       0.663   2.341  22.333  0.00  0.00    +0.062 HD
ATOM     32  H   UNL     1      -0.449   3.372  20.368  0.00  0.00    +0.062 HD
ATOM     33  H   UNL     1       0.894   4.071  18.407  0.00  0.00    +0.062 HD
ENDBRANCH  20  23
ENDBRANCH  13  16
ENDBRANCH   3  13
BRANCH   1  34
ATOM     34  N   UNL     1       0.791   9.800  20.417  0.00  0.00    -0.305 NA
ATOM     35  H   UNL     1       1.144  10.731  20.187  0.00  0.00    +0.123 HD
BRANCH  34  36
ATOM     36  C   UNL     1      -0.672   9.905  20.481  0.00  0.00    +0.042 C 
ATOM     37  H   UNL     1      -1.134   8.916  20.589  0.00  0.00    +0.049 HD
ATOM     38  H   UNL     1      -0.981  10.524  21.331  0.00  0.00    +0.049 HD
BRANCH  36  41
ATOM     39  N   UNL     1      -2.086  11.057  17.348  0.00  0.00    -0.254 N 
ATOM     40  C   UNL     1      -2.004  10.043  18.252  0.00  0.00    +0.050 A 
ATOM     41  C   UNL     1      -1.147  10.529  19.217  0.00  0.00    +0.097 A 
ATOM     42  N   UNL     1      -0.750  11.795  18.864  0.00  0.00    -0.133 NA
ATOM     43  N   UNL     1      -1.330  12.105  17.711  0.00  0.00    -0.066 NA
ATOM     44  H   UNL     1      -2.543   9.112  18.153  0.00  0.00    +0.085 HD
BRANCH  39  45
ATOM     45  C   UNL     1      -2.850  11.105  16.131  0.00  0.00    +0.032 C 
ATOM     46  H   UNL     1      -2.714  12.081  15.657  0.00  0.00    +0.047 HD
ATOM     47  H   UNL     1      -3.906  10.955  16.376  0.00  0.00    +0.047 HD
ATOM     48  H   UNL     1      -2.494  10.314  15.464  0.00  0.00    +0.047 HD
ENDBRANCH  39  45
ENDBRANCH  36  41
ENDBRANCH  34  36
ENDBRANCH   1  34
BRANCH   5  49
ATOM     49  O   UNL     1       1.408  10.201  17.348  0.00  0.00    -0.390 OA
ATOM     50  H   UNL     1       0.468  10.101  17.575  0.00  0.00    +0.210 HD
ENDBRANCH   5  49
TORSDOF 8
ENDMDL
MODEL 7
REMARK VINA RESULT:    -7.282      1.952      3.147
REMARK INTER + INTRA:         -11.093
REMARK INTER:                 -10.210
REMARK INTRA:                  -0.883
REMARK UNBOUND:                -0.830
REMARK  Name = 
REMARK  8 active torsions:
REMARK  status: ('A' for Active; 'I' for Inactive)
REMARK    1  A    between atoms: C_1  and  N_2
REMARK    2  A    between atoms: C_4  and  C_5
REMARK    3  A    between atoms: C_5  and  N_6
REMARK    4  A    between atoms: N_6  and  C_7
REMARK    5  A    between atoms: C_9  and  C_10
REMARK    6  A    between atoms: C_10  and  N_11
REMARK    7  A    between atoms: C_15  and  C_16
REMARK    8  A    between atoms: C_23  and  O_24
REMARK                            x       y       z     vdW  Elec       q    Type
REMARK                         _______ _______ _______ _____ _____    ______ ____
ROOT
ATOM      1  C   UNL     1       6.831   6.647  16.887  0.00  0.00    +0.034 C 
ATOM      2  C   UNL     1       6.250   6.129  18.202  0.00  0.00    -0.031 C 
ATOM      3  C   UNL     1       5.390   4.947  17.743  0.00  0.00    -0.019 C 
ATOM      4  C   UNL     1       6.202   4.300  16.606  0.00  0.00    -0.021 C 
ATOM      5  C   UNL     1       7.251   5.337  16.190  0.00  0.00    +0.071 C 
ATOM      6  H   UNL     1       6.050   7.134  16.286  0.00  0.00    +0.049 HD
ATOM      7  H   UNL     1       7.043   5.796  18.882  0.00  0.00    +0.028 HD
ATOM      8  H   UNL     1       5.649   6.882  18.720  0.00  0.00    +0.028 HD
ATOM      9  H   UNL     1       4.466   5.349  17.307  0.00  0.00    +0.032 HD
ATOM     10  H   UNL     1       5.547   4.012  15.776  0.00  0.00    +0.029 HD
ATOM     11  H   UNL     1       6.713   3.391  16.945  0.00  0.00    +0.029 HD
ATOM     12  H   UNL     1       8.242   5.003  16.524  0.00  0.00    +0.061 HD
ENDROOT
BRANCH   3  13
ATOM     13  C   UNL     1       5.046   3.998  18.891  0.00  0.00    +0.028 C 
ATOM     14  H   UNL     1       5.792   3.198  18.979  0.00  0.00    +0.049 HD
ATOM     15  H   UNL     1       5.047   4.532  19.848  0.00  0.00    +0.049 HD
BRANCH  13  16
ATOM     16  N   UNL     1       3.747   3.367  18.741  0.00  0.00    -0.330 N 
ATOM     17  C   UNL     1       3.539   2.032  18.523  0.00  0.00    +0.025 A 
ATOM     18  C   UNL     1       2.176   1.885  18.480  0.00  0.00    +0.046 A 
ATOM     19  N   UNL     1       1.553   3.087  18.679  0.00  0.00    -0.236 NA
ATOM     20  C   UNL     1       2.513   3.978  18.839  0.00  0.00    +0.141 A 
ATOM     21  H   UNL     1       4.346   1.322  18.415  0.00  0.00    +0.082 HD
ATOM     22  H   UNL     1       1.608   0.977  18.320  0.00  0.00    +0.084 HD
BRANCH  20  23
ATOM     23  C   UNL     1       2.307   5.400  19.092  0.00  0.00    +0.017 A 
ATOM     24  C   UNL     1       1.969   5.844  20.376  0.00  0.00    -0.051 A 
ATOM     25  C   UNL     1       1.781   7.205  20.623  0.00  0.00    -0.061 A 
ATOM     26  C   UNL     1       1.927   8.127  19.588  0.00  0.00    -0.062 A 
ATOM     27  C   UNL     1       2.253   7.691  18.302  0.00  0.00    -0.061 A 
ATOM     28  C   UNL     1       2.436   6.330  18.054  0.00  0.00    -0.051 A 
ATOM     29  H   UNL     1       1.840   5.128  21.183  0.00  0.00    +0.062 HD
ATOM     30  H   UNL     1       1.511   7.544  21.620  0.00  0.00    +0.062 HD
ATOM     31  H   UNL     1       1.774   9.187  19.778  0.00  0.00    +0.062 HD
ATOM     32  H   UNL     1       2.353   8.410  17.493  0.00  0.00    +0.062 HD
ATOM     33  H   UNL     1       2.665   5.994  17.045  0.00  0.00    +0.062 HD
ENDBRANCH  20  23
ENDBRANCH  13  16
ENDBRANCH   3  13
BRANCH   1  34
ATOM     34  N   UNL     1       7.960   7.566  17.045  0.00  0.00    -0.305 NA
ATOM     35  H   UNL     1       7.761   8.430  16.537  0.00  0.00    +0.123 HD
BRANCH  34  36
ATOM     36  C   UNL     1       8.174   7.940  18.449  0.00  0.00    +0.042 C 
ATOM     37  H   UNL     1       7.254   7.823  19.033  0.00  0.00    +0.049 HD
ATOM     38  H   UNL     1       8.952   7.317  18.904  0.00  0.00    +0.049 HD
BRANCH  36  41
ATOM     39  N   UNL     1       8.956  11.470  18.177  0.00  0.00    -0.254 N 
ATOM     40  C   UNL     1       8.328  10.400  17.618  0.00  0.00    +0.050 A 
ATOM     41  C   UNL     1       8.599   9.366  18.489  0.00  0.00    +0.097 A 
ATOM     42  N   UNL     1       9.367   9.843  19.523  0.00  0.00    -0.133 NA
ATOM     43  N   UNL     1       9.583  11.135  19.316  0.00  0.00    -0.066 NA
ATOM     44  H   UNL     1       7.758  10.456  16.702  0.00  0.00    +0.085 HD
BRANCH  39  45
ATOM     45  C   UNL     1       9.004  12.824  17.697  0.00  0.00    +0.032 C 
ATOM     46  H   UNL     1       8.428  12.901  16.771  0.00  0.00    +0.047 HD
ATOM     47  H   UNL     1      10.048  13.090  17.508  0.00  0.00    +0.047 HD
ATOM     48  H   UNL     1       8.573  13.480  18.460  0.00  0.00    +0.047 HD
ENDBRANCH  39  45
ENDBRANCH  36  41
ENDBRANCH  34  36
ENDBRANCH   1  34
BRANCH   5  49
ATOM     49  O   UNL     1       7.280   5.478  14.779  0.00  0.00    -0.390 OA
ATOM     50  H   UNL     1       6.509   5.000  14.429  0.00  0.00    +0.210 HD
ENDBRANCH   5  49
TORSDOF 8
ENDMDL
MODEL 8
REMARK VINA RESULT:    -7.276      4.187      7.040
REMARK INTER + INTRA:         -11.083
REMARK INTER:                  -9.763
REMARK INTRA:                  -1.320
REMARK UNBOUND:                -0.830
REMARK  Name = 
REMARK  8 active torsions:
REMARK  status: ('A' for Active; 'I' for Inactive)
REMARK    1  A    between atoms: C_1  and  N_2
REMARK    2  A    between atoms: C_4  and  C_5
REMARK    3  A    between atoms: C_5  and  N_6
REMARK    4  A    between atoms: N_6  and  C_7
REMARK    5  A    between atoms: C_9  and  C_10
REMARK    6  A    between atoms: C_10  and  N_11
REMARK    7  A    between atoms: C_15  and  C_16
REMARK    8  A    between atoms: C_23  and  O_24
REMARK                            x       y       z     vdW  Elec       q    Type
REMARK                         _______ _______ _______ _____ _____    ______ ____
ROOT
ATOM      1  C   UNL     1       1.019   8.900  19.915  0.00  0.00    +0.034 C 
ATOM      2  C   UNL     1       1.713   7.701  20.560  0.00  0.00    -0.031 C 
ATOM      3  C   UNL     1       2.023   6.808  19.354  0.00  0.00    -0.019 C 
ATOM      4  C   UNL     1       2.413   7.792  18.237  0.00  0.00    -0.021 C 
ATOM      5  C   UNL     1       1.926   9.171  18.697  0.00  0.00    +0.071 C 
ATOM      6  H   UNL     1       0.019   8.620  19.557  0.00  0.00    +0.049 HD
ATOM      7  H   UNL     1       2.635   8.004  21.070  0.00  0.00    +0.028 HD
ATOM      8  H   UNL     1       1.074   7.186  21.284  0.00  0.00    +0.028 HD
ATOM      9  H   UNL     1       1.091   6.311  19.052  0.00  0.00    +0.032 HD
ATOM     10  H   UNL     1       1.970   7.491  17.281  0.00  0.00    +0.029 HD
ATOM     11  H   UNL     1       3.499   7.827  18.093  0.00  0.00    +0.029 HD
ATOM     12  H   UNL     1       2.792   9.789  18.970  0.00  0.00    +0.061 HD
ENDROOT
BRANCH   3  13
ATOM     13  C   UNL     1       3.089   5.757  19.668  0.00  0.00    +0.028 C 
ATOM     14  H   UNL     1       4.048   6.229  19.912  0.00  0.00    +0.049 HD
ATOM     15  H   UNL     1       2.801   5.163  20.543  0.00  0.00    +0.049 HD
BRANCH  13  16
ATOM     16  N   UNL     1       3.322   4.836  18.570  0.00  0.00    -0.330 N 
ATOM     17  C   UNL     1       2.406   3.945  18.080  0.00  0.00    +0.025 A 
ATOM     18  C   UNL     1       3.041   3.315  17.040  0.00  0.00    +0.046 A 
ATOM     19  N   UNL     1       4.308   3.807  16.878  0.00  0.00    -0.236 NA
ATOM     20  C   UNL     1       4.468   4.730  17.807  0.00  0.00    +0.141 A 
ATOM     21  H   UNL     1       1.415   3.832  18.497  0.00  0.00    +0.082 HD
ATOM     22  H   UNL     1       2.654   2.535  16.396  0.00  0.00    +0.084 HD
BRANCH  20  23
ATOM     23  C   UNL     1       5.672   5.529  18.000  0.00  0.00    +0.017 A 
ATOM     24  C   UNL     1       6.604   5.172  18.982  0.00  0.00    -0.051 A 
ATOM     25  C   UNL     1       7.763   5.929  19.162  0.00  0.00    -0.061 A 
ATOM     26  C   UNL     1       7.993   7.049  18.364  0.00  0.00    -0.062 A 
ATOM     27  C   UNL     1       7.063   7.419  17.390  0.00  0.00    -0.061 A 
ATOM     28  C   UNL     1       5.902   6.664  17.213  0.00  0.00    -0.051 A 
ATOM     29  H   UNL     1       6.422   4.308  19.617  0.00  0.00    +0.062 HD
ATOM     30  H   UNL     1       8.479   5.652  19.931  0.00  0.00    +0.062 HD
ATOM     31  H   UNL     1       8.892   7.644  18.508  0.00  0.00    +0.062 HD
ATOM     32  H   UNL     1       7.238   8.300  16.777  0.00  0.00    +0.062 HD
ATOM     33  H   UNL     1       5.169   6.971  16.470  0.00  0.00    +0.062 HD
ENDBRANCH  20  23
ENDBRANCH  13  16
ENDBRANCH   3  13
BRANCH   1  34
ATOM     34  N   UNL     1       0.908  10.074  20.784  0.00  0.00    -0.305 NA
ATOM     35  H   UNL     1       1.534  10.805  20.440  0.00  0.00    +0.123 HD
BRANCH  34  36
ATOM     36  C   UNL     1      -0.447  10.639  20.779  0.00  0.00    +0.042 C 
ATOM     37  H   UNL     1      -1.167   9.932  20.349  0.00  0.00    +0.049 HD
ATOM     38  H   UNL     1      -0.771  10.884  21.796  0.00  0.00    +0.049 HD
BRANCH  36  41
ATOM     39  N   UNL     1      -0.222  13.859  19.129  0.00  0.00    -0.254 N 
ATOM     40  C   UNL     1      -0.045  13.160  20.283  0.00  0.00    +0.050 A 
ATOM     41  C   UNL     1      -0.430  11.877  19.954  0.00  0.00    +0.097 A 
ATOM     42  N   UNL     1      -0.818  11.851  18.637  0.00  0.00    -0.133 NA
ATOM     43  N   UNL     1      -0.690  13.076  18.143  0.00  0.00    -0.066 NA
ATOM     44  H   UNL     1       0.333  13.600  21.194  0.00  0.00    +0.085 HD
BRANCH  39  45
ATOM     45  C   UNL     1       0.030  15.253  18.886  0.00  0.00    +0.032 C 
ATOM     46  H   UNL     1      -0.769  15.849  19.336  0.00  0.00    +0.047 HD
ATOM     47  H   UNL     1       0.053  15.420  17.805  0.00  0.00    +0.047 HD
ATOM     48  H   UNL     1       0.991  15.518  19.336  0.00  0.00    +0.047 HD
ENDBRANCH  39  45
ENDBRANCH  36  41
ENDBRANCH  34  36
ENDBRANCH   1  34
BRANCH   5  49
ATOM     49  O   UNL     1       1.222   9.825  17.654  0.00  0.00    -0.390 OA
ATOM     50  H   UNL     1       0.464  10.278  18.062  0.00  0.00    +0.210 HD
ENDBRANCH   5  49
TORSDOF 8
ENDMDL
MODEL 9
REMARK VINA RESULT:    -7.269      4.548      7.437
REMARK INTER + INTRA:         -11.074
REMARK INTER:                 -10.139
REMARK INTRA:                  -0.935
REMARK UNBOUND:                -0.830
REMARK  Name = 
REMARK  8 active torsions:
REMARK  status: ('A' for Active; 'I' for Inactive)
REMARK    1  A    between atoms: C_1  and  N_2
REMARK    2  A    between atoms: C_4  and  C_5
REMARK    3  A    between atoms: C_5  and  N_6
REMARK    4  A    between atoms: N_6  and  C_7
REMARK    5  A    between atoms: C_9  and  C_10
REMARK    6  A    between atoms: C_10  and  N_11
REMARK    7  A    between atoms: C_15  and  C_16
REMARK    8  A    between atoms: C_23  and  O_24
REMARK                            x       y       z     vdW  Elec       q    Type
REMARK                         _______ _______ _______ _____ _____    ______ ____
ROOT
ATOM      1  C   UNL     1       1.372   8.704  19.386  0.00  0.00    +0.034 C 
ATOM      2  C   UNL     1       1.975   7.575  20.221  0.00  0.00    -0.031 C 
ATOM      3  C   UNL     1       2.410   6.567  19.153  0.00  0.00    -0.019 C 
ATOM      4  C   UNL     1       2.934   7.436  17.995  0.00  0.00    -0.021 C 
ATOM      5  C   UNL     1       2.413   8.853  18.259  0.00  0.00    +0.071 C 
ATOM      6  H   UNL     1       0.415   8.389  18.947  0.00  0.00    +0.049 HD
ATOM      7  H   UNL     1       2.837   7.927  20.801  0.00  0.00    +0.028 HD
ATOM      8  H   UNL     1       1.252   7.134  20.915  0.00  0.00    +0.028 HD
ATOM      9  H   UNL     1       1.513   6.042  18.797  0.00  0.00    +0.032 HD
ATOM     10  H   UNL     1       2.599   7.041  17.030  0.00  0.00    +0.029 HD
ATOM     11  H   UNL     1       4.030   7.457  17.973  0.00  0.00    +0.029 HD
ATOM     12  H   UNL     1       3.249   9.495  18.566  0.00  0.00    +0.061 HD
ENDROOT
BRANCH   3  13
ATOM     13  C   UNL     1       3.421   5.553  19.687  0.00  0.00    +0.028 C 
ATOM     14  H   UNL     1       4.440   5.810  19.374  0.00  0.00    +0.049 HD
ATOM     15  H   UNL     1       3.423   5.549  20.783  0.00  0.00    +0.049 HD
BRANCH  13  16
ATOM     16  N   UNL     1       3.158   4.195  19.244  0.00  0.00    -0.330 N 
ATOM     17  C   UNL     1       2.181   3.378  19.745  0.00  0.00    +0.025 A 
ATOM     18  C   UNL     1       2.277   2.219  19.017  0.00  0.00    +0.046 A 
ATOM     19  N   UNL     1       3.273   2.315  18.083  0.00  0.00    -0.236 NA
ATOM     20  C   UNL     1       3.799   3.517  18.227  0.00  0.00    +0.141 A 
ATOM     21  H   UNL     1       1.523   3.674  20.550  0.00  0.00    +0.082 HD
ATOM     22  H   UNL     1       1.680   1.321  19.113  0.00  0.00    +0.084 HD
BRANCH  20  23
ATOM     23  C   UNL     1       4.891   4.058  17.425  0.00  0.00    +0.017 A 
ATOM     24  C   UNL     1       6.136   4.309  18.013  0.00  0.00    -0.051 A 
ATOM     25  C   UNL     1       7.187   4.817  17.246  0.00  0.00    -0.061 A 
ATOM     26  C   UNL     1       6.995   5.080  15.890  0.00  0.00    -0.062 A 
ATOM     27  C   UNL     1       5.752   4.843  15.300  0.00  0.00    -0.061 A 
ATOM     28  C   UNL     1       4.701   4.340  16.067  0.00  0.00    -0.051 A 
ATOM     29  H   UNL     1       6.287   4.120  19.073  0.00  0.00    +0.062 HD
ATOM     30  H   UNL     1       8.149   5.018  17.709  0.00  0.00    +0.062 HD
ATOM     31  H   UNL     1       7.810   5.483  15.294  0.00  0.00    +0.062 HD
ATOM     32  H   UNL     1       5.600   5.061  14.246  0.00  0.00    +0.062 HD
ATOM     33  H   UNL     1       3.728   4.180  15.608  0.00  0.00    +0.062 HD
ENDBRANCH  20  23
ENDBRANCH  13  16
ENDBRANCH   3  13
BRANCH   1  34
ATOM     34  N   UNL     1       1.176   9.958  20.118  0.00  0.00    -0.305 NA
ATOM     35  H   UNL     1       0.393  10.467  19.704  0.00  0.00    +0.123 HD
BRANCH  34  36
ATOM     36  C   UNL     1       0.834   9.727  21.527  0.00  0.00    +0.042 C 
ATOM     37  H   UNL     1       0.563   8.679  21.701  0.00  0.00    +0.049 HD
ATOM     38  H   UNL     1       1.679   9.977  22.179  0.00  0.00    +0.049 HD
BRANCH  36  41
ATOM     39  N   UNL     1      -1.972  11.654  22.775  0.00  0.00    -0.254 N 
ATOM     40  C   UNL     1      -1.061  10.677  23.034  0.00  0.00    +0.050 A 
ATOM     41  C   UNL     1      -0.326  10.594  21.870  0.00  0.00    +0.097 A 
ATOM     42  N   UNL     1      -0.814  11.507  20.968  0.00  0.00    -0.133 NA
ATOM     43  N   UNL     1      -1.828  12.148  21.534  0.00  0.00    -0.066 NA
ATOM     44  H   UNL     1      -0.999  10.155  23.978  0.00  0.00    +0.085 HD
BRANCH  39  45
ATOM     45  C   UNL     1      -2.998  12.167  23.642  0.00  0.00    +0.032 C 
ATOM     46  H   UNL     1      -2.577  12.958  24.270  0.00  0.00    +0.047 HD
ATOM     47  H   UNL     1      -3.366  11.350  24.269  0.00  0.00    +0.047 HD
ATOM     48  H   UNL     1      -3.806  12.572  23.025  0.00  0.00    +0.047 HD
ENDBRANCH  39  45
ENDBRANCH  36  41
ENDBRANCH  34  36
ENDBRANCH   1  34
BRANCH   5  49
ATOM     49  O   UNL     1       1.838   9.400  17.083  0.00  0.00    -0.390 OA
ATOM     50  H   UNL     1       1.825   8.692  16.416  0.00  0.00    +0.210 HD
ENDBRANCH   5  49
TORSDOF 8
ENDMDL
MODEL 10
REMARK VINA RESULT:    -7.256      4.328      7.386
REMARK INTER + INTRA:         -11.055
REMARK INTER:                 -10.109
REMARK INTRA:                  -0.946
REMARK UNBOUND:                -0.830
REMARK  Name = 
REMARK  8 active torsions:
REMARK  status: ('A' for Active; 'I' for Inactive)
REMARK    1  A    between atoms: C_1  and  N_2
REMARK    2  A    between atoms: C_4  and  C_5
REMARK    3  A    between atoms: C_5  and  N_6
REMARK    4  A    between atoms: N_6  and  C_7
REMARK    5  A    between atoms: C_9  and  C_10
REMARK    6  A    between atoms: C_10  and  N_11
REMARK    7  A    between atoms: C_15  and  C_16
REMARK    8  A    between atoms: C_23  and  O_24
REMARK                            x       y       z     vdW  Elec       q    Type
REMARK                         _______ _______ _______ _____ _____    ______ ____
ROOT
ATOM      1  C   UNL     1       1.927   9.019  19.379  0.00  0.00    +0.034 C 
ATOM      2  C   UNL     1       1.972   8.073  18.180  0.00  0.00    -0.031 C 
ATOM      3  C   UNL     1       2.592   6.806  18.780  0.00  0.00    -0.019 C 
ATOM      4  C   UNL     1       1.986   6.713  20.192  0.00  0.00    -0.021 C 
ATOM      5  C   UNL     1       1.394   8.095  20.492  0.00  0.00    +0.071 C 
ATOM      6  H   UNL     1       2.941   9.349  19.647  0.00  0.00    +0.049 HD
ATOM      7  H   UNL     1       0.965   7.871  17.796  0.00  0.00    +0.028 HD
ATOM      8  H   UNL     1       2.580   8.464  17.359  0.00  0.00    +0.028 HD
ATOM      9  H   UNL     1       3.671   6.977  18.890  0.00  0.00    +0.032 HD
ATOM     10  H   UNL     1       2.747   6.418  20.923  0.00  0.00    +0.029 HD
ATOM     11  H   UNL     1       1.187   5.964  20.237  0.00  0.00    +0.029 HD
ATOM     12  H   UNL     1       0.298   8.031  20.471  0.00  0.00    +0.061 HD
ENDROOT
BRANCH   3  13
ATOM     13  C   UNL     1       2.352   5.573  17.909  0.00  0.00    +0.028 C 
ATOM     14  H   UNL     1       1.306   5.515  17.587  0.00  0.00    +0.049 HD
ATOM     15  H   UNL     1       2.958   5.620  16.996  0.00  0.00    +0.049 HD
BRANCH  13  16
ATOM     16  N   UNL     1       2.671   4.327  18.583  0.00  0.00    -0.330 N 
ATOM     17  C   UNL     1       1.752   3.443  19.082  0.00  0.00    +0.025 A 
ATOM     18  C   UNL     1       2.493   2.409  19.595  0.00  0.00    +0.046 A 
ATOM     19  N   UNL     1       3.831   2.634  19.410  0.00  0.00    -0.236 NA
ATOM     20  C   UNL     1       3.928   3.797  18.794  0.00  0.00    +0.141 A 
ATOM     21  H   UNL     1       0.686   3.616  19.036  0.00  0.00    +0.082 HD
ATOM     22  H   UNL     1       2.136   1.512  20.085  0.00  0.00    +0.084 HD
BRANCH  20  23
ATOM     23  C   UNL     1       5.176   4.430  18.385  0.00  0.00    +0.017 A 
ATOM     24  C   UNL     1       5.918   5.182  19.304  0.00  0.00    -0.051 A 
ATOM     25  C   UNL     1       7.119   5.780  18.919  0.00  0.00    -0.061 A 
ATOM     26  C   UNL     1       7.581   5.634  17.612  0.00  0.00    -0.062 A 
ATOM     27  C   UNL     1       6.842   4.895  16.686  0.00  0.00    -0.061 A 
ATOM     28  C   UNL     1       5.639   4.301  17.070  0.00  0.00    -0.051 A 
ATOM     29  H   UNL     1       5.554   5.311  20.321  0.00  0.00    +0.062 HD
ATOM     30  H   UNL     1       7.686   6.369  19.635  0.00  0.00    +0.062 HD
ATOM     31  H   UNL     1       8.513   6.105  17.309  0.00  0.00    +0.062 HD
ATOM     32  H   UNL     1       7.197   4.793  15.664  0.00  0.00    +0.062 HD
ATOM     33  H   UNL     1       5.055   3.748  16.338  0.00  0.00    +0.062 HD
ENDBRANCH  20  23
ENDBRANCH  13  16
ENDBRANCH   3  13
BRANCH   1  34
ATOM     34  N   UNL     1       1.073  10.194  19.190  0.00  0.00    -0.305 NA
ATOM     35  H   UNL     1       1.013  10.406  18.192  0.00  0.00    +0.123 HD
BRANCH  34  36
ATOM     36  C   UNL     1      -0.299   9.960  19.657  0.00  0.00    +0.042 C 
ATOM     37  H   UNL     1      -0.470   8.896  19.862  0.00  0.00    +0.049 HD
ATOM     38  H   UNL     1      -0.501  10.524  20.574  0.00  0.00    +0.049 HD
BRANCH  36  41
ATOM     39  N   UNL     1      -2.405  10.710  16.803  0.00  0.00    -0.254 N 
ATOM     40  C   UNL     1      -1.391   9.949  17.296  0.00  0.00    +0.050 A 
ATOM     41  C   UNL     1      -1.235  10.404  18.588  0.00  0.00    +0.097 A 
ATOM     42  N   UNL     1      -2.144  11.407  18.821  0.00  0.00    -0.133 NA
ATOM     43  N   UNL     1      -2.853  11.588  17.715  0.00  0.00    -0.066 NA
ATOM     44  H   UNL     1      -0.896   9.175  16.727  0.00  0.00    +0.085 HD
BRANCH  39  45
ATOM     45  C   UNL     1      -2.998  10.663  15.494  0.00  0.00    +0.032 C 
ATOM     46  H   UNL     1      -2.424   9.980  14.861  0.00  0.00    +0.047 HD
ATOM     47  H   UNL     1      -2.978  11.670  15.066  0.00  0.00    +0.047 HD
ATOM     48  H   UNL     1      -4.028  10.306  15.590  0.00  0.00    +0.047 HD
ENDBRANCH  39  45
ENDBRANCH  36  41
ENDBRANCH  34  36
ENDBRANCH   1  34
BRANCH   5  49
ATOM     49  O   UNL     1       1.791   8.539  21.779  0.00  0.00    -0.390 OA
ATOM     50  H   UNL     1       1.714   7.778  22.379  0.00  0.00    +0.210 HD
ENDBRANCH   5  49
TORSDOF 8
ENDMDL
MODEL 11
REMARK VINA RESULT:    -7.143      4.392      7.295
REMARK INTER + INTRA:         -10.896
REMARK INTER:                  -9.628
REMARK INTRA:                  -1.268
REMARK UNBOUND:                -0.830
REMARK  Name = 
REMARK  8 active torsions:
REMARK  status: ('A' for Active; 'I' for Inactive)
REMARK    1  A    between atoms: C_1  and  N_2
REMARK    2  A    between atoms: C_4  and  C_5
REMARK    3  A    between atoms: C_5  and  N_6
REMARK    4  A    between atoms: N_6  and  C_7
REMARK    5  A    between atoms: C_9  and  C_10
REMARK    6  A    between atoms: C_10  and  N_11
REMARK    7  A    between atoms: C_15  and  C_16
REMARK    8  A    between atoms: C_23  and  O_24
REMARK                            x       y       z     vdW  Elec       q    Type
REMARK                         _______ _______ _______ _____ _____    ______ ____
ROOT
ATOM      1  C   UNL     1       0.873  10.007  19.604  0.00  0.00    +0.034 C 
ATOM      2  C   UNL     1       1.136   9.271  18.290  0.00  0.00    -0.031 C 
ATOM      3  C   UNL     1       2.233   8.276  18.680  0.00  0.00    -0.019 C 
ATOM      4  C   UNL     1       1.853   7.822  20.101  0.00  0.00    -0.021 C 
ATOM      5  C   UNL     1       0.833   8.844  20.615  0.00  0.00    +0.071 C 
ATOM      6  H   UNL     1       1.719  10.664  19.852  0.00  0.00    +0.049 HD
ATOM      7  H   UNL     1       0.237   8.747  17.944  0.00  0.00    +0.028 HD
ATOM      8  H   UNL     1       1.470   9.942  17.493  0.00  0.00    +0.028 HD
ATOM      9  H   UNL     1       3.181   8.827  18.748  0.00  0.00    +0.032 HD
ATOM     10  H   UNL     1       2.741   7.762  20.740  0.00  0.00    +0.029 HD
ATOM     11  H   UNL     1       1.391   6.828  20.095  0.00  0.00    +0.029 HD
ATOM     12  H   UNL     1      -0.161   8.377  20.651  0.00  0.00    +0.061 HD
ENDROOT
BRANCH   3  13
ATOM     13  C   UNL     1       2.371   7.137  17.671  0.00  0.00    +0.028 C 
ATOM     14  H   UNL     1       1.577   6.392  17.806  0.00  0.00    +0.049 HD
ATOM     15  H   UNL     1       2.273   7.514  16.646  0.00  0.00    +0.049 HD
BRANCH  13  16
ATOM     16  N   UNL     1       3.642   6.441  17.764  0.00  0.00    -0.330 N 
ATOM     17  C   UNL     1       4.837   6.919  17.298  0.00  0.00    +0.025 A 
ATOM     18  C   UNL     1       5.759   5.958  17.627  0.00  0.00    +0.046 A 
ATOM     19  N   UNL     1       5.160   4.919  18.288  0.00  0.00    -0.236 NA
ATOM     20  C   UNL     1       3.878   5.224  18.369  0.00  0.00    +0.141 A 
ATOM     21  H   UNL     1       4.933   7.867  16.787  0.00  0.00    +0.082 HD
ATOM     22  H   UNL     1       6.823   5.957  17.426  0.00  0.00    +0.084 HD
BRANCH  20  23
ATOM     23  C   UNL     1       2.858   4.402  19.009  0.00  0.00    +0.017 A 
ATOM     24  C   UNL     1       2.735   4.393  20.404  0.00  0.00    -0.051 A 
ATOM     25  C   UNL     1       1.753   3.615  21.019  0.00  0.00    -0.061 A 
ATOM     26  C   UNL     1       0.892   2.840  20.243  0.00  0.00    -0.062 A 
ATOM     27  C   UNL     1       1.016   2.834  18.853  0.00  0.00    -0.061 A 
ATOM     28  C   UNL     1       2.000   3.608  18.238  0.00  0.00    -0.051 A 
ATOM     29  H   UNL     1       3.413   4.984  21.014  0.00  0.00    +0.062 HD
ATOM     30  H   UNL     1       1.667   3.606  22.102  0.00  0.00    +0.062 HD
ATOM     31  H   UNL     1       0.131   2.228  20.722  0.00  0.00    +0.062 HD
ATOM     32  H   UNL     1       0.352   2.219  18.250  0.00  0.00    +0.062 HD
ATOM     33  H   UNL     1       2.108   3.580  17.156  0.00  0.00    +0.062 HD
ENDBRANCH  20  23
ENDBRANCH  13  16
ENDBRANCH   3  13
BRANCH   1  34
ATOM     34  N   UNL     1      -0.366  10.789  19.621  0.00  0.00    -0.305 NA
ATOM     35  H   UNL     1      -1.095  10.249  20.091  0.00  0.00    +0.123 HD
BRANCH  34  36
ATOM     36  C   UNL     1      -0.216  12.043  20.370  0.00  0.00    +0.042 C 
ATOM     37  H   UNL     1       0.788  12.127  20.802  0.00  0.00    +0.049 HD
ATOM     38  H   UNL     1      -0.384  12.908  19.719  0.00  0.00    +0.049 HD
BRANCH  36  41
ATOM     39  N   UNL     1      -2.902  12.343  22.787  0.00  0.00    -0.254 N 
ATOM     40  C   UNL     1      -2.394  12.763  21.597  0.00  0.00    +0.050 A 
ATOM     41  C   UNL     1      -1.221  12.049  21.468  0.00  0.00    +0.097 A 
ATOM     42  N   UNL     1      -1.067  11.240  22.567  0.00  0.00    -0.133 NA
ATOM     43  N   UNL     1      -2.104  11.434  23.372  0.00  0.00    -0.066 NA
ATOM     44  H   UNL     1      -2.885  13.485  20.962  0.00  0.00    +0.085 HD
BRANCH  39  45
ATOM     45  C   UNL     1      -4.122  12.750  23.428  0.00  0.00    +0.032 C 
ATOM     46  H   UNL     1      -3.956  12.832  24.506  0.00  0.00    +0.047 HD
ATOM     47  H   UNL     1      -4.890  11.998  23.226  0.00  0.00    +0.047 HD
ATOM     48  H   UNL     1      -4.421  13.722  23.023  0.00  0.00    +0.047 HD
ENDBRANCH  39  45
ENDBRANCH  36  41
ENDBRANCH  34  36
ENDBRANCH   1  34
BRANCH   5  49
ATOM     49  O   UNL     1       1.171   9.273  21.923  0.00  0.00    -0.390 OA
ATOM     50  H   UNL     1       1.233   8.477  22.478  0.00  0.00    +0.210 HD
ENDBRANCH   5  49
TORSDOF 8
ENDMDL
MODEL 12
REMARK VINA RESULT:    -7.118      4.292      7.447
REMARK INTER + INTRA:         -10.861
REMARK INTER:                  -9.737
REMARK INTRA:                  -1.124
REMARK UNBOUND:                -0.830
REMARK  Name = 
REMARK  8 active torsions:
REMARK  status: ('A' for Active; 'I' for Inactive)
REMARK    1  A    between atoms: C_1  and  N_2
REMARK    2  A    between atoms: C_4  and  C_5
REMARK    3  A    between atoms: C_5  and  N_6
REMARK    4  A    between atoms: N_6  and  C_7
REMARK    5  A    between atoms: C_9  and  C_10
REMARK    6  A    between atoms: C_10  and  N_11
REMARK    7  A    between atoms: C_15  and  C_16
REMARK    8  A    between atoms: C_23  and  O_24
REMARK                            x       y       z     vdW  Elec       q    Type
REMARK                         _______ _______ _______ _____ _____    ______ ____
ROOT
ATOM      1  C   UNL     1       1.238  10.475  18.857  0.00  0.00    +0.034 C 
ATOM      2  C   UNL     1       1.524   9.481  17.732  0.00  0.00    -0.031 C 
ATOM      3  C   UNL     1       2.309   8.381  18.453  0.00  0.00    -0.019 C 
ATOM      4  C   UNL     1       1.635   8.267  19.832  0.00  0.00    -0.021 C 
ATOM      5  C   UNL     1       0.797   9.540  20.000  0.00  0.00    +0.071 C 
ATOM      6  H   UNL     1       2.160  10.993  19.156  0.00  0.00    +0.049 HD
ATOM      7  H   UNL     1       0.593   9.084  17.308  0.00  0.00    +0.028 HD
ATOM      8  H   UNL     1       2.109   9.922  16.920  0.00  0.00    +0.028 HD
ATOM      9  H   UNL     1       3.333   8.743  18.610  0.00  0.00    +0.032 HD
ATOM     10  H   UNL     1       2.384   8.154  20.623  0.00  0.00    +0.029 HD
ATOM     11  H   UNL     1       0.974   7.395  19.886  0.00  0.00    +0.029 HD
ATOM     12  H   UNL     1      -0.268   9.285  19.923  0.00  0.00    +0.061 HD
ENDROOT
BRANCH   3  13
ATOM     13  C   UNL     1       2.342   7.074  17.659  0.00  0.00    +0.028 C 
ATOM     14  H   UNL     1       1.564   6.383  18.004  0.00  0.00    +0.049 HD
ATOM     15  H   UNL     1       2.145   7.262  16.597  0.00  0.00    +0.049 HD
BRANCH  13  16
ATOM     16  N   UNL     1       3.614   6.380  17.753  0.00  0.00    -0.330 N 
ATOM     17  C   UNL     1       4.802   6.839  17.250  0.00  0.00    +0.025 A 
ATOM     18  C   UNL     1       5.728   5.888  17.595  0.00  0.00    +0.046 A 
ATOM     19  N   UNL     1       5.140   4.876  18.304  0.00  0.00    -0.236 NA
ATOM     20  C   UNL     1       3.860   5.185  18.397  0.00  0.00    +0.141 A 
ATOM     21  H   UNL     1       4.888   7.768  16.703  0.00  0.00    +0.082 HD
ATOM     22  H   UNL     1       6.788   5.879  17.376  0.00  0.00    +0.084 HD
BRANCH  20  23
ATOM     23  C   UNL     1       2.851   4.388  19.085  0.00  0.00    +0.017 A 
ATOM     24  C   UNL     1       2.659   4.534  20.464  0.00  0.00    -0.051 A 
ATOM     25  C   UNL     1       1.686   3.780  21.123  0.00  0.00    -0.061 A 
ATOM     26  C   UNL     1       0.904   2.874  20.408  0.00  0.00    -0.062 A 
ATOM     27  C   UNL     1       1.098   2.714  19.034  0.00  0.00    -0.061 A 
ATOM     28  C   UNL     1       2.073   3.464  18.376  0.00  0.00    -0.051 A 
ATOM     29  H   UNL     1       3.275   5.229  21.029  0.00  0.00    +0.062 HD
ATOM     30  H   UNL     1       1.546   3.893  22.195  0.00  0.00    +0.062 HD
ATOM     31  H   UNL     1       0.152   2.281  20.922  0.00  0.00    +0.062 HD
ATOM     32  H   UNL     1       0.497   1.997  18.480  0.00  0.00    +0.062 HD
ATOM     33  H   UNL     1       2.236   3.317  17.311  0.00  0.00    +0.062 HD
ENDBRANCH  20  23
ENDBRANCH  13  16
ENDBRANCH   3  13
BRANCH   1  34
ATOM     34  N   UNL     1       0.210  11.469  18.537  0.00  0.00    -0.305 NA
ATOM     35  H   UNL     1       0.520  12.025  17.738  0.00  0.00    +0.123 HD
BRANCH  34  36
ATOM     36  C   UNL     1      -1.062  10.844  18.152  0.00  0.00    +0.042 C 
ATOM     37  H   UNL     1      -1.243  10.950  17.076  0.00  0.00    +0.049 HD
ATOM     38  H   UNL     1      -1.061   9.776  18.398  0.00  0.00    +0.049 HD
BRANCH  36  41
ATOM     39  N   UNL     1      -3.407  12.638  20.255  0.00  0.00    -0.254 N 
ATOM     40  C   UNL     1      -2.118  12.243  20.073  0.00  0.00    +0.050 A 
ATOM     41  C   UNL     1      -2.156  11.522  18.899  0.00  0.00    +0.097 A 
ATOM     42  N   UNL     1      -3.445  11.508  18.425  0.00  0.00    -0.133 NA
ATOM     43  N   UNL     1      -4.204  12.193  19.270  0.00  0.00    -0.066 NA
ATOM     44  H   UNL     1      -1.315  12.503  20.747  0.00  0.00    +0.085 HD
BRANCH  39  45
ATOM     45  C   UNL     1      -3.953  13.430  21.323  0.00  0.00    +0.032 C 
ATOM     46  H   UNL     1      -3.471  13.150  22.264  0.00  0.00    +0.047 HD
ATOM     47  H   UNL     1      -5.029  13.238  21.385  0.00  0.00    +0.047 HD
ATOM     48  H   UNL     1      -3.764  14.486  21.107  0.00  0.00    +0.047 HD
ENDBRANCH  39  45
ENDBRANCH  36  41
ENDBRANCH  34  36
ENDBRANCH   1  34
BRANCH   5  49
ATOM     49  O   UNL     1       1.025  10.123  21.273  0.00  0.00    -0.390 OA
ATOM     50  H   UNL     1       0.392   9.717  21.890  0.00  0.00    +0.210 HD
ENDBRANCH   5  49
TORSDOF 8
ENDMDL
MODEL 13
REMARK VINA RESULT:    -7.000      4.507      6.735
REMARK INTER + INTRA:         -10.695
REMARK INTER:                  -9.778
REMARK INTRA:                  -0.916
REMARK UNBOUND:                -0.830
REMARK  Name = 
REMARK  8 active torsions:
REMARK  status: ('A' for Active; 'I' for Inactive)
REMARK    1  A    between atoms: C_1  and  N_2
REMARK    2  A    between atoms: C_4  and  C_5
REMARK    3  A    between atoms: C_5  and  N_6
REMARK    4  A    between atoms: N_6  and  C_7
REMARK    5  A    between atoms: C_9  and  C_10
REMARK    6  A    between atoms: C_10  and  N_11
REMARK    7  A    between atoms: C_15  and  C_16
REMARK    8  A    between atoms: C_23  and  O_24
REMARK                            x       y       z     vdW  Elec       q    Type
REMARK                         _______ _______ _______ _____ _____    ______ ____
ROOT
ATOM      1  C   UNL     1       0.940   8.378  19.612  0.00  0.00    +0.034 C 
ATOM      2  C   UNL     1       2.074   7.406  19.940  0.00  0.00    -0.031 C 
ATOM      3  C   UNL     1       2.659   7.100  18.558  0.00  0.00    -0.019 C 
ATOM      4  C   UNL     1       2.586   8.439  17.803  0.00  0.00    -0.021 C 
ATOM      5  C   UNL     1       1.617   9.322  18.599  0.00  0.00    +0.071 C 
ATOM      6  H   UNL     1       0.115   7.852  19.111  0.00  0.00    +0.049 HD
ATOM      7  H   UNL     1       2.824   7.877  20.587  0.00  0.00    +0.028 HD
ATOM      8  H   UNL     1       1.718   6.497  20.433  0.00  0.00    +0.028 HD
ATOM      9  H   UNL     1       1.984   6.395  18.054  0.00  0.00    +0.032 HD
ATOM     10  H   UNL     1       2.257   8.286  16.770  0.00  0.00    +0.029 HD
ATOM     11  H   UNL     1       3.565   8.931  17.762  0.00  0.00    +0.029 HD
ATOM     12  H   UNL     1       2.183  10.116  19.105  0.00  0.00    +0.061 HD
ENDROOT
BRANCH   3  13
ATOM     13  C   UNL     1       4.062   6.499  18.641  0.00  0.00    +0.028 C 
ATOM     14  H   UNL     1       4.827   7.250  18.410  0.00  0.00    +0.049 HD
ATOM     15  H   UNL     1       4.271   6.143  19.656  0.00  0.00    +0.049 HD
BRANCH  13  16
ATOM     16  N   UNL     1       4.260   5.382  17.734  0.00  0.00    -0.330 N 
ATOM     17  C   UNL     1       5.036   5.411  16.607  0.00  0.00    +0.025 A 
ATOM     18  C   UNL     1       4.957   4.144  16.087  0.00  0.00    +0.046 A 
ATOM     19  N   UNL     1       4.168   3.347  16.872  0.00  0.00    -0.236 NA
ATOM     20  C   UNL     1       3.753   4.106  17.869  0.00  0.00    +0.141 A 
ATOM     21  H   UNL     1       5.559   6.297  16.275  0.00  0.00    +0.082 HD
ATOM     22  H   UNL     1       5.428   3.760  15.190  0.00  0.00    +0.084 HD
BRANCH  20  23
ATOM     23  C   UNL     1       2.893   3.664  18.960  0.00  0.00    +0.017 A 
ATOM     24  C   UNL     1       3.455   3.193  20.152  0.00  0.00    -0.051 A 
ATOM     25  C   UNL     1       2.634   2.779  21.203  0.00  0.00    -0.061 A 
ATOM     26  C   UNL     1       1.248   2.830  21.064  0.00  0.00    -0.062 A 
ATOM     27  C   UNL     1       0.680   3.287  19.874  0.00  0.00    -0.061 A 
ATOM     28  C   UNL     1       1.500   3.697  18.822  0.00  0.00    -0.051 A 
ATOM     29  H   UNL     1       4.536   3.137  20.260  0.00  0.00    +0.062 HD
ATOM     30  H   UNL     1       3.076   2.407  22.123  0.00  0.00    +0.062 HD
ATOM     31  H   UNL     1       0.608   2.500  21.879  0.00  0.00    +0.062 HD
ATOM     32  H   UNL     1      -0.402   3.314  19.762  0.00  0.00    +0.062 HD
ATOM     33  H   UNL     1       1.052   4.029  17.888  0.00  0.00    +0.062 HD
ENDBRANCH  20  23
ENDBRANCH  13  16
ENDBRANCH   3  13
BRANCH   1  34
ATOM     34  N   UNL     1       0.415   9.106  20.770  0.00  0.00    -0.305 NA
ATOM     35  H   UNL     1       0.772   8.676  21.625  0.00  0.00    +0.123 HD
BRANCH  34  36
ATOM     36  C   UNL     1       0.852  10.508  20.785  0.00  0.00    +0.042 C 
ATOM     37  H   UNL     1       1.895  10.592  21.114  0.00  0.00    +0.049 HD
ATOM     38  H   UNL     1       0.769  10.953  19.788  0.00  0.00    +0.049 HD
BRANCH  36  41
ATOM     39  N   UNL     1      -1.119  12.701  22.894  0.00  0.00    -0.254 N 
ATOM     40  C   UNL     1      -0.180  12.612  21.913  0.00  0.00    +0.050 A 
ATOM     41  C   UNL     1      -0.019  11.254  21.733  0.00  0.00    +0.097 A 
ATOM     42  N   UNL     1      -0.851  10.587  22.599  0.00  0.00    -0.133 NA
ATOM     43  N   UNL     1      -1.517  11.488  23.310  0.00  0.00    -0.066 NA
ATOM     44  H   UNL     1       0.265  13.472  21.434  0.00  0.00    +0.085 HD
BRANCH  39  45
ATOM     45  C   UNL     1      -1.681  13.887  23.482  0.00  0.00    +0.032 C 
ATOM     46  H   UNL     1      -0.994  14.724  23.336  0.00  0.00    +0.047 HD
ATOM     47  H   UNL     1      -1.829  13.709  24.551  0.00  0.00    +0.047 HD
ATOM     48  H   UNL     1      -2.637  14.099  22.992  0.00  0.00    +0.047 HD
ENDBRANCH  39  45
ENDBRANCH  36  41
ENDBRANCH  34  36
ENDBRANCH   1  34
BRANCH   5  49
ATOM     49  O   UNL     1       0.672   9.930  17.734  0.00  0.00    -0.390 OA
ATOM     50  H   UNL     1       0.186   9.212  17.293  0.00  0.00    +0.210 HD
ENDBRANCH   5  49
TORSDOF 8
ENDMDL
MODEL 14
REMARK VINA RESULT:    -6.949      4.323      6.984
REMARK INTER + INTRA:         -10.623
REMARK INTER:                  -9.635
REMARK INTRA:                  -0.988
REMARK UNBOUND:                -0.830
REMARK  Name = 
REMARK  8 active torsions:
REMARK  status: ('A' for Active; 'I' for Inactive)
REMARK    1  A    between atoms: C_1  and  N_2
REMARK    2  A    between atoms: C_4  and  C_5
REMARK    3  A    between atoms: C_5  and  N_6
REMARK    4  A    between atoms: N_6  and  C_7
REMARK    5  A    between atoms: C_9  and  C_10
REMARK    6  A    between atoms: C_10  and  N_11
REMARK    7  A    between atoms: C_15  and  C_16
REMARK    8  A    between atoms: C_23  and  O_24
REMARK                            x       y       z     vdW  Elec       q    Type
REMARK                         _______ _______ _______ _____ _____    ______ ____
ROOT
ATOM      1  C   UNL     1       1.979   8.811  19.395  0.00  0.00    +0.034 C 
ATOM      2  C   UNL     1       1.967   7.914  18.158  0.00  0.00    -0.031 C 
ATOM      3  C   UNL     1       2.581   6.613  18.685  0.00  0.00    -0.019 C 
ATOM      4  C   UNL     1       2.020   6.473  20.111  0.00  0.00    -0.021 C 
ATOM      5  C   UNL     1       1.464   7.852  20.486  0.00  0.00    +0.071 C 
ATOM      6  H   UNL     1       3.007   9.112  19.642  0.00  0.00    +0.049 HD
ATOM      7  H   UNL     1       0.943   7.747  17.800  0.00  0.00    +0.028 HD
ATOM      8  H   UNL     1       2.555   8.327  17.333  0.00  0.00    +0.028 HD
ATOM      9  H   UNL     1       3.666   6.760  18.766  0.00  0.00    +0.032 HD
ATOM     10  H   UNL     1       2.798   6.134  20.804  0.00  0.00    +0.029 HD
ATOM     11  H   UNL     1       1.207   5.738  20.153  0.00  0.00    +0.029 HD
ATOM     12  H   UNL     1       0.367   7.809  20.499  0.00  0.00    +0.061 HD
ENDROOT
BRANCH   3  13
ATOM     13  C   UNL     1       2.289   5.421  17.773  0.00  0.00    +0.028 C 
ATOM     14  H   UNL     1       1.231   5.393  17.487  0.00  0.00    +0.049 HD
ATOM     15  H   UNL     1       2.862   5.496  16.842  0.00  0.00    +0.049 HD
BRANCH  13  16
ATOM     16  N   UNL     1       2.609   4.143  18.384  0.00  0.00    -0.330 N 
ATOM     17  C   UNL     1       1.693   3.207  18.781  0.00  0.00    +0.025 A 
ATOM     18  C   UNL     1       2.437   2.162  19.265  0.00  0.00    +0.046 A 
ATOM     19  N   UNL     1       3.775   2.430  19.160  0.00  0.00    -0.236 NA
ATOM     20  C   UNL     1       3.869   3.632  18.623  0.00  0.00    +0.141 A 
ATOM     21  H   UNL     1       0.626   3.356  18.694  0.00  0.00    +0.082 HD
ATOM     22  H   UNL     1       2.082   1.227  19.681  0.00  0.00    +0.084 HD
BRANCH  20  23
ATOM     23  C   UNL     1       5.118   4.320  18.316  0.00  0.00    +0.017 A 
ATOM     24  C   UNL     1       5.793   5.030  19.315  0.00  0.00    -0.051 A 
ATOM     25  C   UNL     1       6.994   5.681  19.027  0.00  0.00    -0.061 A 
ATOM     26  C   UNL     1       7.522   5.629  17.737  0.00  0.00    -0.062 A 
ATOM     27  C   UNL     1       6.848   4.932  16.733  0.00  0.00    -0.061 A 
ATOM     28  C   UNL     1       5.645   4.285  17.019  0.00  0.00    -0.051 A 
ATOM     29  H   UNL     1       5.378   5.086  20.318  0.00  0.00    +0.062 HD
ATOM     30  H   UNL     1       7.510   6.237  19.805  0.00  0.00    +0.062 HD
ATOM     31  H   UNL     1       8.454   6.141  17.510  0.00  0.00    +0.062 HD
ATOM     32  H   UNL     1       7.255   4.903  15.725  0.00  0.00    +0.062 HD
ATOM     33  H   UNL     1       5.112   3.765  16.227  0.00  0.00    +0.062 HD
ENDBRANCH  20  23
ENDBRANCH  13  16
ENDBRANCH   3  13
BRANCH   1  34
ATOM     34  N   UNL     1       1.142  10.008  19.281  0.00  0.00    -0.305 NA
ATOM     35  H   UNL     1       1.076  10.278  18.298  0.00  0.00    +0.123 HD
BRANCH  34  36
ATOM     36  C   UNL     1      -0.230   9.769  19.748  0.00  0.00    +0.042 C 
ATOM     37  H   UNL     1      -0.959  10.003  18.963  0.00  0.00    +0.049 HD
ATOM     38  H   UNL     1      -0.364   8.722  20.041  0.00  0.00    +0.049 HD
BRANCH  36  41
ATOM     39  N   UNL     1      -0.864  12.248  22.315  0.00  0.00    -0.254 N 
ATOM     40  C   UNL     1      -0.643  12.014  20.993  0.00  0.00    +0.050 A 
ATOM     41  C   UNL     1      -0.479  10.647  20.923  0.00  0.00    +0.097 A 
ATOM     42  N   UNL     1      -0.604  10.117  22.183  0.00  0.00    -0.133 NA
ATOM     43  N   UNL     1      -0.835  11.112  23.030  0.00  0.00    -0.066 NA
ATOM     44  H   UNL     1      -0.635  12.792  20.244  0.00  0.00    +0.085 HD
BRANCH  39  45
ATOM     45  C   UNL     1      -1.109  13.506  22.967  0.00  0.00    +0.032 C 
ATOM     46  H   UNL     1      -1.317  14.270  22.214  0.00  0.00    +0.047 HD
ATOM     47  H   UNL     1      -0.217  13.781  23.539  0.00  0.00    +0.047 HD
ATOM     48  H   UNL     1      -1.971  13.392  23.632  0.00  0.00    +0.047 HD
ENDBRANCH  39  45
ENDBRANCH  36  41
ENDBRANCH  34  36
ENDBRANCH   1  34
BRANCH   5  49
ATOM     49  O   UNL     1       1.911   8.235  21.776  0.00  0.00    -0.390 OA
ATOM     50  H   UNL     1       2.586   7.590  22.048  0.00  0.00    +0.210 HD
ENDBRANCH   5  49
TORSDOF 8
ENDMDL
MODEL 15
REMARK VINA RESULT:    -6.938      4.037      6.118
REMARK INTER + INTRA:         -10.607
REMARK INTER:                 -10.925
REMARK INTRA:                   0.318
REMARK UNBOUND:                -0.830
REMARK  Name = 
REMARK  8 active torsions:
REMARK  status: ('A' for Active; 'I' for Inactive)
REMARK    1  A    between atoms: C_1  and  N_2
REMARK    2  A    between atoms: C_4  and  C_5
REMARK    3  A    between atoms: C_5  and  N_6
REMARK    4  A    between atoms: N_6  and  C_7
REMARK    5  A    between atoms: C_9  and  C_10
REMARK    6  A    between atoms: C_10  and  N_11
REMARK    7  A    between atoms: C_15  and  C_16
REMARK    8  A    between atoms: C_23  and  O_24
REMARK                            x       y       z     vdW  Elec       q    Type
REMARK                         _______ _______ _______ _____ _____    ______ ____
ROOT
ATOM      1  C   UNL     1       3.665   4.034  19.018  0.00  0.00    +0.034 C 
ATOM      2  C   UNL     1       3.606   5.547  19.225  0.00  0.00    -0.031 C 
ATOM      3  C   UNL     1       2.160   5.764  19.682  0.00  0.00    -0.019 C 
ATOM      4  C   UNL     1       1.854   4.551  20.579  0.00  0.00    -0.021 C 
ATOM      5  C   UNL     1       2.942   3.515  20.277  0.00  0.00    +0.071 C 
ATOM      6  H   UNL     1       3.084   3.744  18.130  0.00  0.00    +0.049 HD
ATOM      7  H   UNL     1       4.314   5.869  19.999  0.00  0.00    +0.028 HD
ATOM      8  H   UNL     1       3.823   6.105  18.309  0.00  0.00    +0.028 HD
ATOM      9  H   UNL     1       1.512   5.698  18.798  0.00  0.00    +0.032 HD
ATOM     10  H   UNL     1       0.847   4.168  20.383  0.00  0.00    +0.029 HD
ATOM     11  H   UNL     1       1.898   4.816  21.642  0.00  0.00    +0.029 HD
ATOM     12  H   UNL     1       3.626   3.448  21.134  0.00  0.00    +0.061 HD
ENDROOT
BRANCH   3  13
ATOM     13  C   UNL     1       1.963   7.118  20.365  0.00  0.00    +0.028 C 
ATOM     14  H   UNL     1       1.072   7.112  21.003  0.00  0.00    +0.049 HD
ATOM     15  H   UNL     1       2.813   7.350  21.017  0.00  0.00    +0.049 HD
BRANCH  13  16
ATOM     16  N   UNL     1       1.819   8.216  19.425  0.00  0.00    -0.330 N 
ATOM     17  C   UNL     1       2.308   8.229  18.147  0.00  0.00    +0.025 A 
ATOM     18  C   UNL     1       1.914   9.434  17.625  0.00  0.00    +0.046 A 
ATOM     19  N   UNL     1       1.190  10.145  18.544  0.00  0.00    -0.236 NA
ATOM     20  C   UNL     1       1.136   9.397  19.630  0.00  0.00    +0.141 A 
ATOM     21  H   UNL     1       2.879   7.412  17.728  0.00  0.00    +0.082 HD
ATOM     22  H   UNL     1       2.109   9.829  16.636  0.00  0.00    +0.084 HD
BRANCH  20  23
ATOM     23  C   UNL     1       0.449   9.757  20.865  0.00  0.00    +0.017 A 
ATOM     24  C   UNL     1      -0.491  10.795  20.870  0.00  0.00    -0.051 A 
ATOM     25  C   UNL     1      -1.158  11.135  22.049  0.00  0.00    -0.061 A 
ATOM     26  C   UNL     1      -0.885  10.442  23.227  0.00  0.00    -0.062 A 
ATOM     27  C   UNL     1       0.059   9.413  23.233  0.00  0.00    -0.061 A 
ATOM     28  C   UNL     1       0.729   9.076  22.056  0.00  0.00    -0.051 A 
ATOM     29  H   UNL     1      -0.696  11.349  19.957  0.00  0.00    +0.062 HD
ATOM     30  H   UNL     1      -1.880  11.947  22.049  0.00  0.00    +0.062 HD
ATOM     31  H   UNL     1      -1.399  10.711  24.147  0.00  0.00    +0.062 HD
ATOM     32  H   UNL     1       0.279   8.882  24.155  0.00  0.00    +0.062 HD
ATOM     33  H   UNL     1       1.481   8.291  22.071  0.00  0.00    +0.062 HD
ENDBRANCH  20  23
ENDBRANCH  13  16
ENDBRANCH   3  13
BRANCH   1  34
ATOM     34  N   UNL     1       5.021   3.492  18.904  0.00  0.00    -0.305 NA
ATOM     35  H   UNL     1       5.048   2.819  18.135  0.00  0.00    +0.123 HD
BRANCH  34  36
ATOM     36  C   UNL     1       6.007   4.533  18.591  0.00  0.00    +0.042 C 
ATOM     37  H   UNL     1       5.637   5.525  18.877  0.00  0.00    +0.049 HD
ATOM     38  H   UNL     1       6.948   4.351  19.123  0.00  0.00    +0.049 HD
BRANCH  36  41
ATOM     39  N   UNL     1       6.275   4.181  14.993  0.00  0.00    -0.254 N 
ATOM     40  C   UNL     1       5.660   3.761  16.132  0.00  0.00    +0.050 A 
ATOM     41  C   UNL     1       6.257   4.510  17.125  0.00  0.00    +0.097 A 
ATOM     42  N   UNL     1       7.193   5.338  16.557  0.00  0.00    -0.133 NA
ATOM     43  N   UNL     1       7.198   5.123  15.248  0.00  0.00    -0.066 NA
ATOM     44  H   UNL     1       4.880   3.014  16.147  0.00  0.00    +0.085 HD
BRANCH  39  45
ATOM     45  C   UNL     1       6.043   3.743  13.644  0.00  0.00    +0.032 C 
ATOM     46  H   UNL     1       5.528   2.779  13.659  0.00  0.00    +0.047 HD
ATOM     47  H   UNL     1       7.009   3.640  13.140  0.00  0.00    +0.047 HD
ATOM     48  H   UNL     1       5.423   4.489  13.137  0.00  0.00    +0.047 HD
ENDBRANCH  39  45
ENDBRANCH  36  41
ENDBRANCH  34  36
ENDBRANCH   1  34
BRANCH   5  49
ATOM     49  O   UNL     1       2.368   2.236  20.063  0.00  0.00    -0.390 OA
ATOM     50  H   UNL     1       1.566   2.188  20.612  0.00  0.00    +0.210 HD
ENDBRANCH   5  49
TORSDOF 8
ENDMDL
MODEL 16
REMARK VINA RESULT:    -6.701      4.256      7.321
REMARK INTER + INTRA:         -10.274
REMARK INTER:                  -9.114
REMARK INTRA:                  -1.160
REMARK UNBOUND:                -0.830
REMARK  Name = 
REMARK  8 active torsions:
REMARK  status: ('A' for Active; 'I' for Inactive)
REMARK    1  A    between atoms: C_1  and  N_2
REMARK    2  A    between atoms: C_4  and  C_5
REMARK    3  A    between atoms: C_5  and  N_6
REMARK    4  A    between atoms: N_6  and  C_7
REMARK    5  A    between atoms: C_9  and  C_10
REMARK    6  A    between atoms: C_10  and  N_11
REMARK    7  A    between atoms: C_15  and  C_16
REMARK    8  A    between atoms: C_23  and  O_24
REMARK                            x       y       z     vdW  Elec       q    Type
REMARK                         _______ _______ _______ _____ _____    ______ ____
ROOT
ATOM      1  C   UNL     1       2.365   6.988  19.617  0.00  0.00    +0.034 C 
ATOM      2  C   UNL     1       1.294   7.721  20.424  0.00  0.00    -0.031 C 
ATOM      3  C   UNL     1       1.472   9.173  19.969  0.00  0.00    -0.019 C 
ATOM      4  C   UNL     1       1.793   9.070  18.467  0.00  0.00    -0.021 C 
ATOM      5  C   UNL     1       2.187   7.610  18.217  0.00  0.00    +0.071 C 
ATOM      6  H   UNL     1       3.368   7.238  19.991  0.00  0.00    +0.049 HD
ATOM      7  H   UNL     1       0.291   7.353  20.176  0.00  0.00    +0.028 HD
ATOM      8  H   UNL     1       1.440   7.620  21.503  0.00  0.00    +0.028 HD
ATOM      9  H   UNL     1       2.359   9.580  20.473  0.00  0.00    +0.032 HD
ATOM     10  H   UNL     1       2.589   9.770  18.191  0.00  0.00    +0.029 HD
ATOM     11  H   UNL     1       0.919   9.314  17.852  0.00  0.00    +0.029 HD
ATOM     12  H   UNL     1       1.388   7.110  17.654  0.00  0.00    +0.061 HD
ENDROOT
BRANCH   3  13
ATOM     13  C   UNL     1       0.253  10.038  20.294  0.00  0.00    +0.028 C 
ATOM     14  H   UNL     1      -0.661   9.606  19.871  0.00  0.00    +0.049 HD
ATOM     15  H   UNL     1       0.098  10.096  21.378  0.00  0.00    +0.049 HD
BRANCH  13  16
ATOM     16  N   UNL     1       0.367  11.396  19.794  0.00  0.00    -0.330 N 
ATOM     17  C   UNL     1       1.378  12.266  20.098  0.00  0.00    +0.025 A 
ATOM     18  C   UNL     1       1.097  13.404  19.386  0.00  0.00    +0.046 A 
ATOM     19  N   UNL     1      -0.046  13.244  18.650  0.00  0.00    -0.236 NA
ATOM     20  C   UNL     1      -0.479  12.023  18.902  0.00  0.00    +0.141 A 
ATOM     21  H   UNL     1       2.184  12.017  20.774  0.00  0.00    +0.082 HD
ATOM     22  H   UNL     1       1.657  14.331  19.360  0.00  0.00    +0.084 HD
BRANCH  20  23
ATOM     23  C   UNL     1      -1.671  11.417  18.319  0.00  0.00    +0.017 A 
ATOM     24  C   UNL     1      -2.943  11.858  18.703  0.00  0.00    -0.051 A 
ATOM     25  C   UNL     1      -4.086  11.287  18.139  0.00  0.00    -0.061 A 
ATOM     26  C   UNL     1      -3.961  10.271  17.193  0.00  0.00    -0.062 A 
ATOM     27  C   UNL     1      -2.696   9.818  16.814  0.00  0.00    -0.061 A 
ATOM     28  C   UNL     1      -1.554  10.385  17.381  0.00  0.00    -0.051 A 
ATOM     29  H   UNL     1      -3.046  12.640  19.451  0.00  0.00    +0.062 HD
ATOM     30  H   UNL     1      -5.071  11.628  18.446  0.00  0.00    +0.062 HD
ATOM     31  H   UNL     1      -4.851   9.821  16.759  0.00  0.00    +0.062 HD
ATOM     32  H   UNL     1      -2.601   9.016  16.086  0.00  0.00    +0.062 HD
ATOM     33  H   UNL     1      -0.572  10.011  17.100  0.00  0.00    +0.062 HD
ENDBRANCH  20  23
ENDBRANCH  13  16
ENDBRANCH   3  13
BRANCH   1  34
ATOM     34  N   UNL     1       2.211   5.531  19.591  0.00  0.00    -0.305 NA
ATOM     35  H   UNL     1       2.041   5.231  18.629  0.00  0.00    +0.123 HD
BRANCH  34  36
ATOM     36  C   UNL     1       3.424   4.839  20.044  0.00  0.00    +0.042 C 
ATOM     37  H   UNL     1       3.930   5.408  20.833  0.00  0.00    +0.049 HD
ATOM     38  H   UNL     1       3.182   3.845  20.437  0.00  0.00    +0.049 HD
BRANCH  36  41
ATOM     39  N   UNL     1       5.993   4.565  17.501  0.00  0.00    -0.254 N 
ATOM     40  C   UNL     1       5.712   4.820  18.808  0.00  0.00    +0.050 A 
ATOM     41  C   UNL     1       4.340   4.700  18.880  0.00  0.00    +0.097 A 
ATOM     42  N   UNL     1       3.854   4.385  17.635  0.00  0.00    -0.133 NA
ATOM     43  N   UNL     1       4.879   4.310  16.796  0.00  0.00    -0.066 NA
ATOM     44  H   UNL     1       6.468   5.040  19.548  0.00  0.00    +0.085 HD
BRANCH  39  45
ATOM     45  C   UNL     1       7.277   4.545  16.855  0.00  0.00    +0.032 C 
ATOM     46  H   UNL     1       8.044   4.260  17.581  0.00  0.00    +0.047 HD
ATOM     47  H   UNL     1       7.488   5.546  16.466  0.00  0.00    +0.047 HD
ATOM     48  H   UNL     1       7.246   3.815  16.040  0.00  0.00    +0.047 HD
ENDBRANCH  39  45
ENDBRANCH  36  41
ENDBRANCH  34  36
ENDBRANCH   1  34
BRANCH   5  49
ATOM     49  O   UNL     1       3.381   7.539  17.455  0.00  0.00    -0.390 OA
ATOM     50  H   UNL     1       3.137   7.703  16.528  0.00  0.00    +0.210 HD
ENDBRANCH   5  49
TORSDOF 8
ENDMDL
MODEL 17
REMARK VINA RESULT:    -6.671      3.705      5.456
REMARK INTER + INTRA:         -10.231
REMARK INTER:                  -9.278
REMARK INTRA:                  -0.953
REMARK UNBOUND:                -0.830
REMARK  Name = 
REMARK  8 active torsions:
REMARK  status: ('A' for Active; 'I' for Inactive)
REMARK    1  A    between atoms: C_1  and  N_2
REMARK    2  A    between atoms: C_4  and  C_5
REMARK    3  A    between atoms: C_5  and  N_6
REMARK    4  A    between atoms: N_6  and  C_7
REMARK    5  A    between atoms: C_9  and  C_10
REMARK    6  A    between atoms: C_10  and  N_11
REMARK    7  A    between atoms: C_15  and  C_16
REMARK    8  A    between atoms: C_23  and  O_24
REMARK                            x       y       z     vdW  Elec       q    Type
REMARK                         _______ _______ _______ _____ _____    ______ ____
ROOT
ATOM      1  C   UNL     1       1.275  10.055  18.990  0.00  0.00    +0.034 C 
ATOM      2  C   UNL     1       1.644   9.190  17.785  0.00  0.00    -0.031 C 
ATOM      3  C   UNL     1       2.579   8.145  18.401  0.00  0.00    -0.019 C 
ATOM      4  C   UNL     1       1.969   7.848  19.782  0.00  0.00    -0.021 C 
ATOM      5  C   UNL     1       0.987   8.990  20.067  0.00  0.00    +0.071 C 
ATOM      6  H   UNL     1       2.136  10.659  19.308  0.00  0.00    +0.049 HD
ATOM      7  H   UNL     1       0.755   8.714  17.353  0.00  0.00    +0.028 HD
ATOM      8  H   UNL     1       2.145   9.760  16.997  0.00  0.00    +0.028 HD
ATOM      9  H   UNL     1       3.556   8.620  18.563  0.00  0.00    +0.032 HD
ATOM     10  H   UNL     1       2.751   7.769  20.545  0.00  0.00    +0.029 HD
ATOM     11  H   UNL     1       1.420   6.898  19.783  0.00  0.00    +0.029 HD
ATOM     12  H   UNL     1      -0.041   8.612  19.995  0.00  0.00    +0.061 HD
ENDROOT
BRANCH   3  13
ATOM     13  C   UNL     1       2.746   6.916  17.508  0.00  0.00    +0.028 C 
ATOM     14  H   UNL     1       1.906   6.222  17.631  0.00  0.00    +0.049 HD
ATOM     15  H   UNL     1       2.761   7.204  16.450  0.00  0.00    +0.049 HD
BRANCH  13  16
ATOM     16  N   UNL     1       3.966   6.175  17.777  0.00  0.00    -0.330 N 
ATOM     17  C   UNL     1       5.224   6.565  17.405  0.00  0.00    +0.025 A 
ATOM     18  C   UNL     1       6.058   5.591  17.891  0.00  0.00    +0.046 A 
ATOM     19  N   UNL     1       5.346   4.632  18.557  0.00  0.00    -0.236 NA
ATOM     20  C   UNL     1       4.079   4.996  18.486  0.00  0.00    +0.141 A 
ATOM     21  H   UNL     1       5.416   7.468  16.842  0.00  0.00    +0.082 HD
ATOM     22  H   UNL     1       7.136   5.530  17.800  0.00  0.00    +0.084 HD
BRANCH  20  23
ATOM     23  C   UNL     1       2.961   4.268  19.074  0.00  0.00    +0.017 A 
ATOM     24  C   UNL     1       2.702   4.366  20.446  0.00  0.00    -0.051 A 
ATOM     25  C   UNL     1       1.625   3.679  21.010  0.00  0.00    -0.061 A 
ATOM     26  C   UNL     1       0.807   2.887  20.206  0.00  0.00    -0.062 A 
ATOM     27  C   UNL     1       1.066   2.775  18.839  0.00  0.00    -0.061 A 
ATOM     28  C   UNL     1       2.144   3.458  18.275  0.00  0.00    -0.051 A 
ATOM     29  H   UNL     1       3.346   4.970  21.080  0.00  0.00    +0.062 HD
ATOM     30  H   UNL     1       1.433   3.753  22.077  0.00  0.00    +0.062 HD
ATOM     31  H   UNL     1      -0.027   2.346  20.646  0.00  0.00    +0.062 HD
ATOM     32  H   UNL     1       0.434   2.147  18.215  0.00  0.00    +0.062 HD
ATOM     33  H   UNL     1       2.356   3.347  17.214  0.00  0.00    +0.062 HD
ENDBRANCH  20  23
ENDBRANCH  13  16
ENDBRANCH   3  13
BRANCH   1  34
ATOM     34  N   UNL     1       0.124  10.935  18.772  0.00  0.00    -0.305 NA
ATOM     35  H   UNL     1      -0.736  10.401  18.910  0.00  0.00    +0.123 HD
BRANCH  34  36
ATOM     36  C   UNL     1       0.090  12.048  19.729  0.00  0.00    +0.042 C 
ATOM     37  H   UNL     1      -0.821  12.646  19.607  0.00  0.00    +0.049 HD
ATOM     38  H   UNL     1       0.123  11.677  20.760  0.00  0.00    +0.049 HD
BRANCH  36  41
ATOM     39  N   UNL     1       3.078  14.094  19.554  0.00  0.00    -0.254 N 
ATOM     40  C   UNL     1       2.236  13.380  20.349  0.00  0.00    +0.050 A 
ATOM     41  C   UNL     1       1.276  12.911  19.478  0.00  0.00    +0.097 A 
ATOM     42  N   UNL     1       1.569  13.354  18.211  0.00  0.00    -0.133 NA
ATOM     43  N   UNL     1       2.675  14.084  18.273  0.00  0.00    -0.066 NA
ATOM     44  H   UNL     1       2.385  13.255  21.412  0.00  0.00    +0.085 HD
BRANCH  39  45
ATOM     45  C   UNL     1       4.270  14.805  19.930  0.00  0.00    +0.032 C 
ATOM     46  H   UNL     1       4.407  14.734  21.012  0.00  0.00    +0.047 HD
ATOM     47  H   UNL     1       4.158  15.853  19.637  0.00  0.00    +0.047 HD
ATOM     48  H   UNL     1       5.123  14.351  19.416  0.00  0.00    +0.047 HD
ENDBRANCH  39  45
ENDBRANCH  36  41
ENDBRANCH  34  36
ENDBRANCH   1  34
BRANCH   5  49
ATOM     49  O   UNL     1       1.183   9.501  21.376  0.00  0.00    -0.390 OA
ATOM     50  H   UNL     1       2.141   9.491  21.545  0.00  0.00    +0.210 HD
ENDBRANCH   5  49
TORSDOF 8
ENDMDL
MODEL 18
REMARK VINA RESULT:    -6.662      3.234      5.283
REMARK INTER + INTRA:         -10.218
REMARK INTER:                 -10.778
REMARK INTRA:                   0.560
REMARK UNBOUND:                -0.830
REMARK  Name = 
REMARK  8 active torsions:
REMARK  status: ('A' for Active; 'I' for Inactive)
REMARK    1  A    between atoms: C_1  and  N_2
REMARK    2  A    between atoms: C_4  and  C_5
REMARK    3  A    between atoms: C_5  and  N_6
REMARK    4  A    between atoms: N_6  and  C_7
REMARK    5  A    between atoms: C_9  and  C_10
REMARK    6  A    between atoms: C_10  and  N_11
REMARK    7  A    between atoms: C_15  and  C_16
REMARK    8  A    between atoms: C_23  and  O_24
REMARK                            x       y       z     vdW  Elec       q    Type
REMARK                         _______ _______ _______ _____ _____    ______ ____
ROOT
ATOM      1  C   UNL     1       3.595   4.178  18.894  0.00  0.00    +0.034 C 
ATOM      2  C   UNL     1       3.496   5.689  19.100  0.00  0.00    -0.031 C 
ATOM      3  C   UNL     1       2.088   5.853  19.680  0.00  0.00    -0.019 C 
ATOM      4  C   UNL     1       1.907   4.635  20.604  0.00  0.00    -0.021 C 
ATOM      5  C   UNL     1       3.005   3.639  20.213  0.00  0.00    +0.071 C 
ATOM      6  H   UNL     1       2.952   3.860  18.061  0.00  0.00    +0.049 HD
ATOM      7  H   UNL     1       4.255   6.042  19.809  0.00  0.00    +0.028 HD
ATOM      8  H   UNL     1       3.611   6.248  18.167  0.00  0.00    +0.028 HD
ATOM      9  H   UNL     1       1.369   5.756  18.855  0.00  0.00    +0.032 HD
ATOM     10  H   UNL     1       0.902   4.212  20.497  0.00  0.00    +0.029 HD
ATOM     11  H   UNL     1       2.032   4.909  21.658  0.00  0.00    +0.029 HD
ATOM     12  H   UNL     1       3.762   3.605  21.008  0.00  0.00    +0.061 HD
ENDROOT
BRANCH   3  13
ATOM     13  C   UNL     1       1.897   7.203  20.372  0.00  0.00    +0.028 C 
ATOM     14  H   UNL     1       1.000   7.200  21.002  0.00  0.00    +0.049 HD
ATOM     15  H   UNL     1       2.743   7.420  21.035  0.00  0.00    +0.049 HD
BRANCH  13  16
ATOM     16  N   UNL     1       1.773   8.310  19.441  0.00  0.00    -0.330 N 
ATOM     17  C   UNL     1       2.284   8.333  18.171  0.00  0.00    +0.025 A 
ATOM     18  C   UNL     1       1.903   9.545  17.655  0.00  0.00    +0.046 A 
ATOM     19  N   UNL     1       1.166  10.250  18.568  0.00  0.00    -0.236 NA
ATOM     20  C   UNL     1       1.091   9.492  19.645  0.00  0.00    +0.141 A 
ATOM     21  H   UNL     1       2.859   7.518  17.754  0.00  0.00    +0.082 HD
ATOM     22  H   UNL     1       2.116   9.948  16.672  0.00  0.00    +0.084 HD
BRANCH  20  23
ATOM     23  C   UNL     1       0.384   9.843  20.872  0.00  0.00    +0.017 A 
ATOM     24  C   UNL     1       0.500   9.031  22.007  0.00  0.00    -0.051 A 
ATOM     25  C   UNL     1      -0.167   9.369  23.186  0.00  0.00    -0.061 A 
ATOM     26  C   UNL     1      -0.955  10.518  23.234  0.00  0.00    -0.062 A 
ATOM     27  C   UNL     1      -1.085  11.327  22.103  0.00  0.00    -0.061 A 
ATOM     28  C   UNL     1      -0.422  10.986  20.923  0.00  0.00    -0.051 A 
ATOM     29  H   UNL     1       1.101   8.126  21.970  0.00  0.00    +0.062 HD
ATOM     30  H   UNL     1      -0.080   8.732  24.061  0.00  0.00    +0.062 HD
ATOM     31  H   UNL     1      -1.481  10.779  24.150  0.00  0.00    +0.062 HD
ATOM     32  H   UNL     1      -1.710  12.216  22.138  0.00  0.00    +0.062 HD
ATOM     33  H   UNL     1      -0.546  11.606  20.038  0.00  0.00    +0.062 HD
ENDBRANCH  20  23
ENDBRANCH  13  16
ENDBRANCH   3  13
BRANCH   1  34
ATOM     34  N   UNL     1       4.957   3.687  18.666  0.00  0.00    -0.305 NA
ATOM     35  H   UNL     1       4.937   2.668  18.596  0.00  0.00    +0.123 HD
BRANCH  34  36
ATOM     36  C   UNL     1       5.520   4.188  17.405  0.00  0.00    +0.042 C 
ATOM     37  H   UNL     1       6.091   3.406  16.891  0.00  0.00    +0.049 HD
ATOM     38  H   UNL     1       4.726   4.533  16.734  0.00  0.00    +0.049 HD
BRANCH  36  41
ATOM     39  N   UNL     1       7.501   7.189  17.863  0.00  0.00    -0.254 N 
ATOM     40  C   UNL     1       6.517   6.576  17.150  0.00  0.00    +0.050 A 
ATOM     41  C   UNL     1       6.426   5.325  17.722  0.00  0.00    +0.097 A 
ATOM     42  N   UNL     1       7.343   5.232  18.740  0.00  0.00    -0.133 NA
ATOM     43  N   UNL     1       8.000   6.382  18.813  0.00  0.00    -0.066 NA
ATOM     44  H   UNL     1       5.978   7.055  16.346  0.00  0.00    +0.085 HD
BRANCH  39  45
ATOM     45  C   UNL     1       8.015   8.523  17.706  0.00  0.00    +0.032 C 
ATOM     46  H   UNL     1       8.669   8.761  18.550  0.00  0.00    +0.047 HD
ATOM     47  H   UNL     1       7.173   9.220  17.679  0.00  0.00    +0.047 HD
ATOM     48  H   UNL     1       8.583   8.569  16.771  0.00  0.00    +0.047 HD
ENDBRANCH  39  45
ENDBRANCH  36  41
ENDBRANCH  34  36
ENDBRANCH   1  34
BRANCH   5  49
ATOM     49  O   UNL     1       2.464   2.338  20.054  0.00  0.00    -0.390 OA
ATOM     50  H   UNL     1       1.934   2.151  20.847  0.00  0.00    +0.210 HD
ENDBRANCH   5  49
TORSDOF 8
ENDMDL
MODEL 19
REMARK VINA RESULT:    -6.616      4.402      7.100
REMARK INTER + INTRA:         -10.153
REMARK INTER:                  -9.265
REMARK INTRA:                  -0.888
REMARK UNBOUND:                -0.830
REMARK  Name = 
REMARK  8 active torsions:
REMARK  status: ('A' for Active; 'I' for Inactive)
REMARK    1  A    between atoms: C_1  and  N_2
REMARK    2  A    between atoms: C_4  and  C_5
REMARK    3  A    between atoms: C_5  and  N_6
REMARK    4  A    between atoms: N_6  and  C_7
REMARK    5  A    between atoms: C_9  and  C_10
REMARK    6  A    between atoms: C_10  and  N_11
REMARK    7  A    between atoms: C_15  and  C_16
REMARK    8  A    between atoms: C_23  and  O_24
REMARK                            x       y       z     vdW  Elec       q    Type
REMARK                         _______ _______ _______ _____ _____    ______ ____
ROOT
ATOM      1  C   UNL     1       1.851   9.126  18.734  0.00  0.00    +0.034 C 
ATOM      2  C   UNL     1       1.975   7.930  17.791  0.00  0.00    -0.031 C 
ATOM      3  C   UNL     1       2.568   6.849  18.699  0.00  0.00    -0.019 C 
ATOM      4  C   UNL     1       1.881   7.069  20.059  0.00  0.00    -0.021 C 
ATOM      5  C   UNL     1       1.260   8.470  19.999  0.00  0.00    +0.071 C 
ATOM      6  H   UNL     1       2.844   9.530  18.975  0.00  0.00    +0.049 HD
ATOM      7  H   UNL     1       0.993   7.624  17.408  0.00  0.00    +0.028 HD
ATOM      8  H   UNL     1       2.627   8.136  16.936  0.00  0.00    +0.028 HD
ATOM      9  H   UNL     1       3.638   7.064  18.827  0.00  0.00    +0.032 HD
ATOM     10  H   UNL     1       2.600   6.966  20.879  0.00  0.00    +0.029 HD
ATOM     11  H   UNL     1       1.087   6.334  20.231  0.00  0.00    +0.029 HD
ATOM     12  H   UNL     1       0.168   8.379  19.932  0.00  0.00    +0.061 HD
ENDROOT
BRANCH   3  13
ATOM     13  C   UNL     1       2.391   5.444  18.124  0.00  0.00    +0.028 C 
ATOM     14  H   UNL     1       1.330   5.173  18.064  0.00  0.00    +0.049 HD
ATOM     15  H   UNL     1       2.785   5.391  17.102  0.00  0.00    +0.049 HD
BRANCH  13  16
ATOM     16  N   UNL     1       3.059   4.418  18.905  0.00  0.00    -0.330 N 
ATOM     17  C   UNL     1       2.506   3.748  19.963  0.00  0.00    +0.025 A 
ATOM     18  C   UNL     1       3.472   2.863  20.370  0.00  0.00    +0.046 A 
ATOM     19  N   UNL     1       4.586   2.968  19.582  0.00  0.00    -0.236 NA
ATOM     20  C   UNL     1       4.325   3.910  18.696  0.00  0.00    +0.141 A 
ATOM     21  H   UNL     1       1.510   3.950  20.330  0.00  0.00    +0.082 HD
ATOM     22  H   UNL     1       3.424   2.153  21.186  0.00  0.00    +0.084 HD
BRANCH  20  23
ATOM     23  C   UNL     1       5.234   4.349  17.643  0.00  0.00    +0.017 A 
ATOM     24  C   UNL     1       6.214   5.311  17.916  0.00  0.00    -0.051 A 
ATOM     25  C   UNL     1       7.092   5.726  16.912  0.00  0.00    -0.061 A 
ATOM     26  C   UNL     1       6.990   5.184  15.632  0.00  0.00    -0.062 A 
ATOM     27  C   UNL     1       6.008   4.233  15.349  0.00  0.00    -0.061 A 
ATOM     28  C   UNL     1       5.127   3.822  16.351  0.00  0.00    -0.051 A 
ATOM     29  H   UNL     1       6.287   5.747  18.909  0.00  0.00    +0.062 HD
ATOM     30  H   UNL     1       7.846   6.478  17.128  0.00  0.00    +0.062 HD
ATOM     31  H   UNL     1       7.669   5.512  14.848  0.00  0.00    +0.062 HD
ATOM     32  H   UNL     1       5.922   3.821  14.346  0.00  0.00    +0.062 HD
ATOM     33  H   UNL     1       4.348   3.099  16.118  0.00  0.00    +0.062 HD
ENDBRANCH  20  23
ENDBRANCH  13  16
ENDBRANCH   3  13
BRANCH   1  34
ATOM     34  N   UNL     1       0.999  10.207  18.232  0.00  0.00    -0.305 NA
ATOM     35  H   UNL     1       0.022   9.982  18.430  0.00  0.00    +0.123 HD
BRANCH  34  36
ATOM     36  C   UNL     1       1.283  11.486  18.894  0.00  0.00    +0.042 C 
ATOM     37  H   UNL     1       2.123  11.391  19.593  0.00  0.00    +0.049 HD
ATOM     38  H   UNL     1       1.534  12.258  18.158  0.00  0.00    +0.049 HD
BRANCH  36  41
ATOM     39  N   UNL     1      -1.874  12.548  20.326  0.00  0.00    -0.254 N 
ATOM     40  C   UNL     1      -1.150  12.356  19.189  0.00  0.00    +0.050 A 
ATOM     41  C   UNL     1       0.067  11.898  19.647  0.00  0.00    +0.097 A 
ATOM     42  N   UNL     1       0.033  11.834  21.018  0.00  0.00    -0.133 NA
ATOM     43  N   UNL     1      -1.163  12.241  21.423  0.00  0.00    -0.066 NA
ATOM     44  H   UNL     1      -1.540  12.535  18.198  0.00  0.00    +0.085 HD
BRANCH  39  45
ATOM     45  C   UNL     1      -3.228  13.014  20.450  0.00  0.00    +0.032 C 
ATOM     46  H   UNL     1      -3.871  12.443  19.775  0.00  0.00    +0.047 HD
ATOM     47  H   UNL     1      -3.258  14.075  20.182  0.00  0.00    +0.047 HD
ATOM     48  H   UNL     1      -3.553  12.870  21.485  0.00  0.00    +0.047 HD
ENDBRANCH  39  45
ENDBRANCH  36  41
ENDBRANCH  34  36
ENDBRANCH   1  34
BRANCH   5  49
ATOM     49  O   UNL     1       1.577   9.206  21.169  0.00  0.00    -0.390 OA
ATOM     50  H   UNL     1       0.739   9.551  21.524  0.00  0.00    +0.210 HD
ENDBRANCH   5  49
TORSDOF 8
ENDMDL
MODEL 20
REMARK VINA RESULT:    -6.603      4.950      8.231
REMARK INTER + INTRA:         -10.136
REMARK INTER:                  -9.951
REMARK INTRA:                  -0.185
REMARK UNBOUND:                -0.830
REMARK  Name = 
REMARK  8 active torsions:
REMARK  status: ('A' for Active; 'I' for Inactive)
REMARK    1  A    between atoms: C_1  and  N_2
REMARK    2  A    between atoms: C_4  and  C_5
REMARK    3  A    between atoms: C_5  and  N_6
REMARK    4  A    between atoms: N_6  and  C_7
REMARK    5  A    between atoms: C_9  and  C_10
REMARK    6  A    between atoms: C_10  and  N_11
REMARK    7  A    between atoms: C_15  and  C_16
REMARK    8  A    between atoms: C_23  and  O_24
REMARK                            x       y       z     vdW  Elec       q    Type
REMARK                         _______ _______ _______ _____ _____    ______ ____
ROOT
ATOM      1  C   UNL     1      -0.633  10.971  20.903  0.00  0.00    +0.034 C 
ATOM      2  C   UNL     1      -0.161   9.706  20.186  0.00  0.00    -0.031 C 
ATOM      3  C   UNL     1       0.881   9.143  21.157  0.00  0.00    -0.019 C 
ATOM      4  C   UNL     1       0.296   9.423  22.554  0.00  0.00    -0.021 C 
ATOM      5  C   UNL     1      -0.808  10.467  22.350  0.00  0.00    +0.071 C 
ATOM      6  H   UNL     1       0.154  11.738  20.887  0.00  0.00    +0.049 HD
ATOM      7  H   UNL     1      -0.988   8.999  20.045  0.00  0.00    +0.028 HD
ATOM      8  H   UNL     1       0.280   9.918  19.207  0.00  0.00    +0.028 HD
ATOM      9  H   UNL     1       1.798   9.738  21.053  0.00  0.00    +0.032 HD
ATOM     10  H   UNL     1       1.077   9.771  23.239  0.00  0.00    +0.029 HD
ATOM     11  H   UNL     1      -0.143   8.521  22.994  0.00  0.00    +0.029 HD
ATOM     12  H   UNL     1      -1.787   9.992  22.494  0.00  0.00    +0.061 HD
ENDROOT
BRANCH   3  13
ATOM     13  C   UNL     1       1.190   7.670  20.889  0.00  0.00    +0.028 C 
ATOM     14  H   UNL     1       1.783   7.236  21.702  0.00  0.00    +0.049 HD
ATOM     15  H   UNL     1       0.264   7.084  20.831  0.00  0.00    +0.049 HD
BRANCH  13  16
ATOM     16  N   UNL     1       1.922   7.456  19.653  0.00  0.00    -0.330 N 
ATOM     17  C   UNL     1       2.388   8.447  18.832  0.00  0.00    +0.025 A 
ATOM     18  C   UNL     1       3.038   7.793  17.816  0.00  0.00    +0.046 A 
ATOM     19  N   UNL     1       2.990   6.438  18.005  0.00  0.00    -0.236 NA
ATOM     20  C   UNL     1       2.315   6.244  19.122  0.00  0.00    +0.141 A 
ATOM     21  H   UNL     1       2.223   9.497  19.026  0.00  0.00    +0.082 HD
ATOM     22  H   UNL     1       3.540   8.224  16.959  0.00  0.00    +0.084 HD
BRANCH  20  23
ATOM     23  C   UNL     1       2.030   4.944  19.717  0.00  0.00    +0.017 A 
ATOM     24  C   UNL     1       1.431   3.936  18.952  0.00  0.00    -0.051 A 
ATOM     25  C   UNL     1       1.166   2.687  19.516  0.00  0.00    -0.061 A 
ATOM     26  C   UNL     1       1.496   2.441  20.848  0.00  0.00    -0.062 A 
ATOM     27  C   UNL     1       2.083   3.444  21.621  0.00  0.00    -0.061 A 
ATOM     28  C   UNL     1       2.343   4.695  21.059  0.00  0.00    -0.051 A 
ATOM     29  H   UNL     1       1.158   4.128  17.917  0.00  0.00    +0.062 HD
ATOM     30  H   UNL     1       0.694   1.911  18.920  0.00  0.00    +0.062 HD
ATOM     31  H   UNL     1       1.283   1.471  21.290  0.00  0.00    +0.062 HD
ATOM     32  H   UNL     1       2.328   3.255  22.663  0.00  0.00    +0.062 HD
ATOM     33  H   UNL     1       2.778   5.480  21.672  0.00  0.00    +0.062 HD
ENDBRANCH  20  23
ENDBRANCH  13  16
ENDBRANCH   3  13
BRANCH   1  34
ATOM     34  N   UNL     1      -1.873  11.541  20.370  0.00  0.00    -0.305 NA
ATOM     35  H   UNL     1      -2.277  12.171  21.065  0.00  0.00    +0.123 HD
BRANCH  34  36
ATOM     36  C   UNL     1      -1.638  12.339  19.159  0.00  0.00    +0.042 C 
ATOM     37  H   UNL     1      -1.937  13.383  19.312  0.00  0.00    +0.049 HD
ATOM     38  H   UNL     1      -0.579  12.321  18.881  0.00  0.00    +0.049 HD
BRANCH  36  41
ATOM     39  N   UNL     1      -3.220  10.840  16.262  0.00  0.00    -0.254 N 
ATOM     40  C   UNL     1      -2.055  11.251  16.834  0.00  0.00    +0.050 A 
ATOM     41  C   UNL     1      -2.448  11.756  18.056  0.00  0.00    +0.097 A 
ATOM     42  N   UNL     1      -3.811  11.633  18.172  0.00  0.00    -0.133 NA
ATOM     43  N   UNL     1      -4.273  11.074  17.061  0.00  0.00    -0.066 NA
ATOM     44  H   UNL     1      -1.090  11.146  16.361  0.00  0.00    +0.085 HD
BRANCH  39  45
ATOM     45  C   UNL     1      -3.411  10.224  14.977  0.00  0.00    +0.032 C 
ATOM     46  H   UNL     1      -3.475  11.000  14.209  0.00  0.00    +0.047 HD
ATOM     47  H   UNL     1      -4.340   9.647  15.002  0.00  0.00    +0.047 HD
ATOM     48  H   UNL     1      -2.558   9.569  14.774  0.00  0.00    +0.047 HD
ENDBRANCH  39  45
ENDBRANCH  36  41
ENDBRANCH  34  36
ENDBRANCH   1  34
BRANCH   5  49
ATOM     49  O   UNL     1      -0.679  11.520  23.291  0.00  0.00    -0.390 OA
ATOM     50  H   UNL     1      -0.038  11.227  23.961  0.00  0.00    +0.210 HD
ENDBRANCH   5  49
TORSDOF 8
ENDMDL
MODEL 21
REMARK VINA RESULT:    -6.574      3.829      6.779
REMARK INTER + INTRA:         -10.094
REMARK INTER:                  -9.094
REMARK INTRA:                  -1.000
REMARK UNBOUND:                -0.830
REMARK  Name = 
REMARK  8 active torsions:
REMARK  status: ('A' for Active; 'I' for Inactive)
REMARK    1  A    between atoms: C_1  and  N_2
REMARK    2  A    between atoms: C_4  and  C_5
REMARK    3  A    between atoms: C_5  and  N_6
REMARK    4  A    between atoms: N_6  and  C_7
REMARK    5  A    between atoms: C_9  and  C_10
REMARK    6  A    between atoms: C_10  and  N_11
REMARK    7  A    between atoms: C_15  and  C_16
REMARK    8  A    between atoms: C_23  and  O_24
REMARK                            x       y       z     vdW  Elec       q    Type
REMARK                         _______ _______ _______ _____ _____    ______ ____
ROOT
ATOM      1  C   UNL     1       1.636   9.109  19.054  0.00  0.00    +0.034 C 
ATOM      2  C   UNL     1       2.170   8.519  17.749  0.00  0.00    -0.031 C 
ATOM      3  C   UNL     1       3.287   7.591  18.236  0.00  0.00    -0.019 C 
ATOM      4  C   UNL     1       2.740   6.980  19.539  0.00  0.00    -0.021 C 
ATOM      5  C   UNL     1       1.556   7.861  19.955  0.00  0.00    +0.071 C 
ATOM      6  H   UNL     1       2.364   9.811  19.485  0.00  0.00    +0.049 HD
ATOM      7  H   UNL     1       1.391   7.952  17.223  0.00  0.00    +0.028 HD
ATOM      8  H   UNL     1       2.555   9.285  17.069  0.00  0.00    +0.028 HD
ATOM      9  H   UNL     1       4.154   8.213  18.497  0.00  0.00    +0.032 HD
ATOM     10  H   UNL     1       3.520   6.940  20.307  0.00  0.00    +0.029 HD
ATOM     11  H   UNL     1       2.385   5.955  19.384  0.00  0.00    +0.029 HD
ATOM     12  H   UNL     1       0.620   7.309  19.795  0.00  0.00    +0.061 HD
ENDROOT
BRANCH   3  13
ATOM     13  C   UNL     1       3.691   6.563  17.179  0.00  0.00    +0.028 C 
ATOM     14  H   UNL     1       2.960   5.747  17.124  0.00  0.00    +0.049 HD
ATOM     15  H   UNL     1       3.722   7.022  16.184  0.00  0.00    +0.049 HD
BRANCH  13  16
ATOM     16  N   UNL     1       4.992   5.967  17.429  0.00  0.00    -0.330 N 
ATOM     17  C   UNL     1       6.195   6.585  17.217  0.00  0.00    +0.025 A 
ATOM     18  C   UNL     1       7.139   5.674  17.616  0.00  0.00    +0.046 A 
ATOM     19  N   UNL     1       6.544   4.530  18.076  0.00  0.00    -0.236 NA
ATOM     20  C   UNL     1       5.243   4.719  17.961  0.00  0.00    +0.141 A 
ATOM     21  H   UNL     1       6.280   7.583  16.811  0.00  0.00    +0.082 HD
ATOM     22  H   UNL     1       8.217   5.779  17.600  0.00  0.00    +0.084 HD
BRANCH  20  23
ATOM     23  C   UNL     1       4.216   3.757  18.347  0.00  0.00    +0.017 A 
ATOM     24  C   UNL     1       3.445   3.121  17.367  0.00  0.00    -0.051 A 
ATOM     25  C   UNL     1       2.469   2.192  17.732  0.00  0.00    -0.061 A 
ATOM     26  C   UNL     1       2.256   1.899  19.078  0.00  0.00    -0.062 A 
ATOM     27  C   UNL     1       3.013   2.539  20.062  0.00  0.00    -0.061 A 
ATOM     28  C   UNL     1       3.986   3.470  19.697  0.00  0.00    -0.051 A 
ATOM     29  H   UNL     1       3.597   3.357  16.316  0.00  0.00    +0.062 HD
ATOM     30  H   UNL     1       1.869   1.707  16.967  0.00  0.00    +0.062 HD
ATOM     31  H   UNL     1       1.491   1.182  19.364  0.00  0.00    +0.062 HD
ATOM     32  H   UNL     1       2.837   2.319  21.112  0.00  0.00    +0.062 HD
ATOM     33  H   UNL     1       4.555   3.984  20.469  0.00  0.00    +0.062 HD
ENDBRANCH  20  23
ENDBRANCH  13  16
ENDBRANCH   3  13
BRANCH   1  34
ATOM     34  N   UNL     1       0.338   9.777  18.929  0.00  0.00    -0.305 NA
ATOM     35  H   UNL     1      -0.285   9.435  19.664  0.00  0.00    +0.123 HD
BRANCH  34  36
ATOM     36  C   UNL     1       0.446  11.230  19.106  0.00  0.00    +0.042 C 
ATOM     37  H   UNL     1       1.465  11.518  19.393  0.00  0.00    +0.049 HD
ATOM     38  H   UNL     1       0.188  11.756  18.180  0.00  0.00    +0.049 HD
BRANCH  36  41
ATOM     39  N   UNL     1      -1.656  11.902  21.983  0.00  0.00    -0.254 N 
ATOM     40  C   UNL     1      -0.686  11.113  21.444  0.00  0.00    +0.050 A 
ATOM     41  C   UNL     1      -0.496  11.637  20.183  0.00  0.00    +0.097 A 
ATOM     42  N   UNL     1      -1.344  12.704  20.011  0.00  0.00    -0.133 NA
ATOM     43  N   UNL     1      -2.054  12.852  21.122  0.00  0.00    -0.066 NA
ATOM     44  H   UNL     1      -0.222  10.294  21.975  0.00  0.00    +0.085 HD
BRANCH  39  45
ATOM     45  C   UNL     1      -2.247  11.818  23.291  0.00  0.00    +0.032 C 
ATOM     46  H   UNL     1      -1.464  11.628  24.030  0.00  0.00    +0.047 HD
ATOM     47  H   UNL     1      -2.969  10.997  23.295  0.00  0.00    +0.047 HD
ATOM     48  H   UNL     1      -2.743  12.768  23.510  0.00  0.00    +0.047 HD
ENDBRANCH  39  45
ENDBRANCH  36  41
ENDBRANCH  34  36
ENDBRANCH   1  34
BRANCH   5  49
ATOM     49  O   UNL     1       1.645   8.199  21.330  0.00  0.00    -0.390 OA
ATOM     50  H   UNL     1       1.990   7.417  21.794  0.00  0.00    +0.210 HD
ENDBRANCH   5  49
TORSDOF 8
ENDMDL
MODEL 22
REMARK VINA RESULT:    -6.571      3.777      6.924
REMARK INTER + INTRA:         -10.090
REMARK INTER:                  -9.072
REMARK INTRA:                  -1.018
REMARK UNBOUND:                -0.830
REMARK  Name = 
REMARK  8 active torsions:
REMARK  status: ('A' for Active; 'I' for Inactive)
REMARK    1  A    between atoms: C_1  and  N_2
REMARK    2  A    between atoms: C_4  and  C_5
REMARK    3  A    between atoms: C_5  and  N_6
REMARK    4  A    between atoms: N_6  and  C_7
REMARK    5  A    between atoms: C_9  and  C_10
REMARK    6  A    between atoms: C_10  and  N_11
REMARK    7  A    between atoms: C_15  and  C_16
REMARK    8  A    between atoms: C_23  and  O_24
REMARK                            x       y       z     vdW  Elec       q    Type
REMARK                         _______ _______ _______ _____ _____    ______ ____
ROOT
ATOM      1  C   UNL     1       2.792   5.916  19.754  0.00  0.00    +0.034 C 
ATOM      2  C   UNL     1       3.475   6.667  18.612  0.00  0.00    -0.031 C 
ATOM      3  C   UNL     1       3.927   5.530  17.691  0.00  0.00    -0.019 C 
ATOM      4  C   UNL     1       2.785   4.500  17.760  0.00  0.00    -0.021 C 
ATOM      5  C   UNL     1       1.950   4.875  18.990  0.00  0.00    +0.071 C 
ATOM      6  H   UNL     1       3.536   5.389  20.368  0.00  0.00    +0.049 HD
ATOM      7  H   UNL     1       2.769   7.330  18.097  0.00  0.00    +0.028 HD
ATOM      8  H   UNL     1       4.324   7.267  18.952  0.00  0.00    +0.028 HD
ATOM      9  H   UNL     1       4.819   5.069  18.135  0.00  0.00    +0.032 HD
ATOM     10  H   UNL     1       3.182   3.481  17.820  0.00  0.00    +0.029 HD
ATOM     11  H   UNL     1       2.148   4.547  16.869  0.00  0.00    +0.029 HD
ATOM     12  H   UNL     1       0.991   5.296  18.662  0.00  0.00    +0.061 HD
ENDROOT
BRANCH   3  13
ATOM     13  C   UNL     1       4.250   6.018  16.279  0.00  0.00    +0.028 C 
ATOM     14  H   UNL     1       3.358   6.002  15.642  0.00  0.00    +0.049 HD
ATOM     15  H   UNL     1       4.600   7.057  16.299  0.00  0.00    +0.049 HD
BRANCH  13  16
ATOM     16  N   UNL     1       5.272   5.224  15.619  0.00  0.00    -0.330 N 
ATOM     17  C   UNL     1       5.074   4.454  14.505  0.00  0.00    +0.025 A 
ATOM     18  C   UNL     1       6.303   3.918  14.218  0.00  0.00    +0.046 A 
ATOM     19  N   UNL     1       7.241   4.351  15.116  0.00  0.00    -0.236 NA
ATOM     20  C   UNL     1       6.607   5.145  15.958  0.00  0.00    +0.141 A 
ATOM     21  H   UNL     1       4.110   4.349  14.027  0.00  0.00    +0.082 HD
ATOM     22  H   UNL     1       6.566   3.245  13.411  0.00  0.00    +0.084 HD
BRANCH  20  23
ATOM     23  C   UNL     1       7.223   5.844  17.080  0.00  0.00    +0.017 A 
ATOM     24  C   UNL     1       7.551   5.147  18.249  0.00  0.00    -0.051 A 
ATOM     25  C   UNL     1       8.150   5.811  19.321  0.00  0.00    -0.061 A 
ATOM     26  C   UNL     1       8.420   7.176  19.230  0.00  0.00    -0.062 A 
ATOM     27  C   UNL     1       8.084   7.881  18.072  0.00  0.00    -0.061 A 
ATOM     28  C   UNL     1       7.481   7.218  17.003  0.00  0.00    -0.051 A 
ATOM     29  H   UNL     1       7.330   4.085  18.330  0.00  0.00    +0.062 HD
ATOM     30  H   UNL     1       8.396   5.266  20.228  0.00  0.00    +0.062 HD
ATOM     31  H   UNL     1       8.880   7.696  20.067  0.00  0.00    +0.062 HD
ATOM     32  H   UNL     1       8.283   8.948  18.008  0.00  0.00    +0.062 HD
ATOM     33  H   UNL     1       7.200   7.777  16.113  0.00  0.00    +0.062 HD
ENDBRANCH  20  23
ENDBRANCH  13  16
ENDBRANCH   3  13
BRANCH   1  34
ATOM     34  N   UNL     1       1.963   6.758  20.621  0.00  0.00    -0.305 NA
ATOM     35  H   UNL     1       2.465   6.937  21.492  0.00  0.00    +0.123 HD
BRANCH  34  36
ATOM     36  C   UNL     1       1.684   8.066  20.015  0.00  0.00    +0.042 C 
ATOM     37  H   UNL     1       2.611   8.564  19.708  0.00  0.00    +0.049 HD
ATOM     38  H   UNL     1       1.042   7.959  19.134  0.00  0.00    +0.049 HD
BRANCH  36  41
ATOM     39  N   UNL     1      -0.252  10.273  22.143  0.00  0.00    -0.254 N 
ATOM     40  C   UNL     1       0.004   9.856  20.873  0.00  0.00    +0.050 A 
ATOM     41  C   UNL     1       0.992   8.908  21.029  0.00  0.00    +0.097 A 
ATOM     42  N   UNL     1       1.291   8.790  22.364  0.00  0.00    -0.133 NA
ATOM     43  N   UNL     1       0.524   9.638  23.037  0.00  0.00    -0.066 NA
ATOM     44  H   UNL     1      -0.518  10.235  20.006  0.00  0.00    +0.085 HD
BRANCH  39  45
ATOM     45  C   UNL     1      -1.205  11.255  22.583  0.00  0.00    +0.032 C 
ATOM     46  H   UNL     1      -0.677  12.169  22.869  0.00  0.00    +0.047 HD
ATOM     47  H   UNL     1      -1.746  10.854  23.445  0.00  0.00    +0.047 HD
ATOM     48  H   UNL     1      -1.894  11.465  21.760  0.00  0.00    +0.047 HD
ENDBRANCH  39  45
ENDBRANCH  36  41
ENDBRANCH  34  36
ENDBRANCH   1  34
BRANCH   5  49
ATOM     49  O   UNL     1       1.687   3.728  19.782  0.00  0.00    -0.390 OA
ATOM     50  H   UNL     1       2.310   3.037  19.498  0.00  0.00    +0.210 HD
ENDBRANCH   5  49
TORSDOF 8
ENDMDL
MODEL 23
REMARK VINA RESULT:    -6.547      4.280      6.378
REMARK INTER + INTRA:         -10.057
REMARK INTER:                  -9.189
REMARK INTRA:                  -0.869
REMARK UNBOUND:                -0.830
REMARK  Name = 
REMARK  8 active torsions:
REMARK  status: ('A' for Active; 'I' for Inactive)
REMARK    1  A    between atoms: C_1  and  N_2
REMARK    2  A    between atoms: C_4  and  C_5
REMARK    3  A    between atoms: C_5  and  N_6
REMARK    4  A    between atoms: N_6  and  C_7
REMARK    5  A    between atoms: C_9  and  C_10
REMARK    6  A    between atoms: C_10  and  N_11
REMARK    7  A    between atoms: C_15  and  C_16
REMARK    8  A    between atoms: C_23  and  O_24
REMARK                            x       y       z     vdW  Elec       q    Type
REMARK                         _______ _______ _______ _____ _____    ______ ____
ROOT
ATOM      1  C   UNL     1       1.914   8.717  19.273  0.00  0.00    +0.034 C 
ATOM      2  C   UNL     1       1.942   7.751  18.090  0.00  0.00    -0.031 C 
ATOM      3  C   UNL     1       2.632   6.519  18.683  0.00  0.00    -0.019 C 
ATOM      4  C   UNL     1       2.091   6.430  20.121  0.00  0.00    -0.021 C 
ATOM      5  C   UNL     1       1.462   7.795  20.423  0.00  0.00    +0.071 C 
ATOM      6  H   UNL     1       2.925   9.088  19.492  0.00  0.00    +0.049 HD
ATOM      7  H   UNL     1       0.927   7.507  17.753  0.00  0.00    +0.028 HD
ATOM      8  H   UNL     1       2.500   8.148  17.236  0.00  0.00    +0.028 HD
ATOM      9  H   UNL     1       3.708   6.730  18.744  0.00  0.00    +0.032 HD
ATOM     10  H   UNL     1       2.892   6.175  20.823  0.00  0.00    +0.029 HD
ATOM     11  H   UNL     1       1.322   5.654  20.214  0.00  0.00    +0.029 HD
ATOM     12  H   UNL     1       0.369   7.692  20.451  0.00  0.00    +0.061 HD
ENDROOT
BRANCH   3  13
ATOM     13  C   UNL     1       2.401   5.262  17.844  0.00  0.00    +0.028 C 
ATOM     14  H   UNL     1       1.335   5.124  17.626  0.00  0.00    +0.049 HD
ATOM     15  H   UNL     1       2.909   5.343  16.876  0.00  0.00    +0.049 HD
BRANCH  13  16
ATOM     16  N   UNL     1       2.875   4.050  18.488  0.00  0.00    -0.330 N 
ATOM     17  C   UNL     1       2.075   3.050  18.973  0.00  0.00    +0.025 A 
ATOM     18  C   UNL     1       2.941   2.104  19.458  0.00  0.00    +0.046 A 
ATOM     19  N   UNL     1       4.239   2.493  19.270  0.00  0.00    -0.236 NA
ATOM     20  C   UNL     1       4.188   3.672  18.679  0.00  0.00    +0.141 A 
ATOM     21  H   UNL     1       0.995   3.093  18.938  0.00  0.00    +0.082 HD
ATOM     22  H   UNL     1       2.700   1.159  19.931  0.00  0.00    +0.084 HD
BRANCH  20  23
ATOM     23  C   UNL     1       5.347   4.461  18.277  0.00  0.00    +0.017 A 
ATOM     24  C   UNL     1       6.069   5.188  19.231  0.00  0.00    -0.051 A 
ATOM     25  C   UNL     1       7.185   5.936  18.851  0.00  0.00    -0.061 A 
ATOM     26  C   UNL     1       7.581   5.964  17.514  0.00  0.00    -0.062 A 
ATOM     27  C   UNL     1       6.859   5.252  16.555  0.00  0.00    -0.061 A 
ATOM     28  C   UNL     1       5.741   4.508  16.934  0.00  0.00    -0.051 A 
ATOM     29  H   UNL     1       5.756   5.181  20.272  0.00  0.00    +0.062 HD
ATOM     30  H   UNL     1       7.737   6.504  19.595  0.00  0.00    +0.062 HD
ATOM     31  H   UNL     1       8.445   6.552  17.216  0.00  0.00    +0.062 HD
ATOM     32  H   UNL     1       7.161   5.285  15.511  0.00  0.00    +0.062 HD
ATOM     33  H   UNL     1       5.168   3.975  16.179  0.00  0.00    +0.062 HD
ENDBRANCH  20  23
ENDBRANCH  13  16
ENDBRANCH   3  13
BRANCH   1  34
ATOM     34  N   UNL     1       1.010   9.857  19.101  0.00  0.00    -0.305 NA
ATOM     35  H   UNL     1       0.694  10.174  20.019  0.00  0.00    +0.123 HD
BRANCH  34  36
ATOM     36  C   UNL     1       1.678  11.000  18.464  0.00  0.00    +0.042 C 
ATOM     37  H   UNL     1       2.768  10.899  18.518  0.00  0.00    +0.049 HD
ATOM     38  H   UNL     1       1.391  11.081  17.410  0.00  0.00    +0.049 HD
BRANCH  36  41
ATOM     39  N   UNL     1       0.887  13.838  20.577  0.00  0.00    -0.254 N 
ATOM     40  C   UNL     1       1.443  12.598  20.503  0.00  0.00    +0.050 A 
ATOM     41  C   UNL     1       1.267  12.236  19.184  0.00  0.00    +0.097 A 
ATOM     42  N   UNL     1       0.621  13.253  18.524  0.00  0.00    -0.133 NA
ATOM     43  N   UNL     1       0.389  14.228  19.393  0.00  0.00    -0.066 NA
ATOM     44  H   UNL     1       1.908  12.102  21.342  0.00  0.00    +0.085 HD
BRANCH  39  45
ATOM     45  C   UNL     1       0.792  14.703  21.721  0.00  0.00    +0.032 C 
ATOM     46  H   UNL     1       0.793  15.745  21.388  0.00  0.00    +0.047 HD
ATOM     47  H   UNL     1       1.653  14.519  22.370  0.00  0.00    +0.047 HD
ATOM     48  H   UNL     1      -0.141  14.482  22.249  0.00  0.00    +0.047 HD
ENDBRANCH  39  45
ENDBRANCH  36  41
ENDBRANCH  34  36
ENDBRANCH   1  34
BRANCH   5  49
ATOM     49  O   UNL     1       1.897   8.276  21.684  0.00  0.00    -0.390 OA
ATOM     50  H   UNL     1       2.325   7.532  22.142  0.00  0.00    +0.210 HD
ENDBRANCH   5  49
TORSDOF 8
ENDMDL
MODEL 24
REMARK VINA RESULT:    -6.521      5.064      8.561
REMARK INTER + INTRA:         -10.020
REMARK INTER:                  -9.146
REMARK INTRA:                  -0.875
REMARK UNBOUND:                -0.830
REMARK  Name = 
REMARK  8 active torsions:
REMARK  status: ('A' for Active; 'I' for Inactive)
REMARK    1  A    between atoms: C_1  and  N_2
REMARK    2  A    between atoms: C_4  and  C_5
REMARK    3  A    between atoms: C_5  and  N_6
REMARK    4  A    between atoms: N_6  and  C_7
REMARK    5  A    between atoms: C_9  and  C_10
REMARK    6  A    between atoms: C_10  and  N_11
REMARK    7  A    between atoms: C_15  and  C_16
REMARK    8  A    between atoms: C_23  and  O_24
REMARK                            x       y       z     vdW  Elec       q    Type
REMARK                         _______ _______ _______ _____ _____    ______ ____
ROOT
ATOM      1  C   UNL     1       2.383   7.294  20.175  0.00  0.00    +0.034 C 
ATOM      2  C   UNL     1       1.172   8.147  20.553  0.00  0.00    -0.031 C 
ATOM      3  C   UNL     1       1.229   9.280  19.525  0.00  0.00    -0.019 C 
ATOM      4  C   UNL     1       1.690   8.597  18.224  0.00  0.00    -0.021 C 
ATOM      5  C   UNL     1       2.261   7.236  18.639  0.00  0.00    +0.071 C 
ATOM      6  H   UNL     1       3.316   7.813  20.438  0.00  0.00    +0.049 HD
ATOM      7  H   UNL     1       0.240   7.576  20.456  0.00  0.00    +0.028 HD
ATOM      8  H   UNL     1       1.233   8.532  21.576  0.00  0.00    +0.028 HD
ATOM      9  H   UNL     1       2.019   9.978  19.833  0.00  0.00    +0.032 HD
ATOM     10  H   UNL     1       2.425   9.216  17.699  0.00  0.00    +0.029 HD
ATOM     11  H   UNL     1       0.851   8.438  17.536  0.00  0.00    +0.029 HD
ATOM     12  H   UNL     1       1.572   6.442  18.320  0.00  0.00    +0.061 HD
ENDROOT
BRANCH   3  13
ATOM     13  C   UNL     1      -0.100  10.027  19.408  0.00  0.00    +0.028 C 
ATOM     14  H   UNL     1      -0.756   9.551  18.669  0.00  0.00    +0.049 HD
ATOM     15  H   UNL     1      -0.639  10.009  20.362  0.00  0.00    +0.049 HD
BRANCH  13  16
ATOM     16  N   UNL     1       0.058  11.417  19.019  0.00  0.00    -0.330 N 
ATOM     17  C   UNL     1       1.199  12.156  19.183  0.00  0.00    +0.025 A 
ATOM     18  C   UNL     1       0.907  13.386  18.651  0.00  0.00    +0.046 A 
ATOM     19  N   UNL     1      -0.370  13.410  18.159  0.00  0.00    -0.236 NA
ATOM     20  C   UNL     1      -0.875  12.211  18.384  0.00  0.00    +0.141 A 
ATOM     21  H   UNL     1       2.091  11.764  19.650  0.00  0.00    +0.082 HD
ATOM     22  H   UNL     1       1.548  14.257  18.593  0.00  0.00    +0.084 HD
BRANCH  20  23
ATOM     23  C   UNL     1      -2.217  11.781  18.011  0.00  0.00    +0.017 A 
ATOM     24  C   UNL     1      -2.444  11.187  16.764  0.00  0.00    -0.051 A 
ATOM     25  C   UNL     1      -3.726  10.764  16.408  0.00  0.00    -0.061 A 
ATOM     26  C   UNL     1      -4.787  10.937  17.295  0.00  0.00    -0.062 A 
ATOM     27  C   UNL     1      -4.571  11.539  18.536  0.00  0.00    -0.061 A 
ATOM     28  C   UNL     1      -3.290  11.966  18.891  0.00  0.00    -0.051 A 
ATOM     29  H   UNL     1      -1.623  11.064  16.062  0.00  0.00    +0.062 HD
ATOM     30  H   UNL     1      -3.898  10.311  15.435  0.00  0.00    +0.062 HD
ATOM     31  H   UNL     1      -5.787  10.615  17.016  0.00  0.00    +0.062 HD
ATOM     32  H   UNL     1      -5.402  11.685  19.222  0.00  0.00    +0.062 HD
ATOM     33  H   UNL     1      -3.133  12.456  19.849  0.00  0.00    +0.062 HD
ENDBRANCH  20  23
ENDBRANCH  13  16
ENDBRANCH   3  13
BRANCH   1  34
ATOM     34  N   UNL     1       2.391   5.957  20.773  0.00  0.00    -0.305 NA
ATOM     35  H   UNL     1       2.371   6.046  21.791  0.00  0.00    +0.123 HD
BRANCH  34  36
ATOM     36  C   UNL     1       1.208   5.175  20.392  0.00  0.00    +0.042 C 
ATOM     37  H   UNL     1       0.582   4.955  21.266  0.00  0.00    +0.049 HD
ATOM     38  H   UNL     1       0.599   5.719  19.661  0.00  0.00    +0.049 HD
BRANCH  36  41
ATOM     39  N   UNL     1       2.739   2.258  18.879  0.00  0.00    -0.254 N 
ATOM     40  C   UNL     1       2.889   3.563  19.235  0.00  0.00    +0.050 A 
ATOM     41  C   UNL     1       1.672   3.895  19.792  0.00  0.00    +0.097 A 
ATOM     42  N   UNL     1       0.848   2.797  19.751  0.00  0.00    -0.133 NA
ATOM     43  N   UNL     1       1.514   1.800  19.183  0.00  0.00    -0.066 NA
ATOM     44  H   UNL     1       3.802   4.120  19.086  0.00  0.00    +0.085 HD
BRANCH  39  45
ATOM     45  C   UNL     1       3.701   1.390  18.255  0.00  0.00    +0.032 C 
ATOM     46  H   UNL     1       4.708   1.773  18.439  0.00  0.00    +0.047 HD
ATOM     47  H   UNL     1       3.503   1.366  17.179  0.00  0.00    +0.047 HD
ATOM     48  H   UNL     1       3.598   0.389  18.687  0.00  0.00    +0.047 HD
ENDBRANCH  39  45
ENDBRANCH  36  41
ENDBRANCH  34  36
ENDBRANCH   1  34
BRANCH   5  49
ATOM     49  O   UNL     1       3.517   7.013  18.021  0.00  0.00    -0.390 OA
ATOM     50  H   UNL     1       3.630   6.050  17.944  0.00  0.00    +0.210 HD
ENDBRANCH   5  49
TORSDOF 8
ENDMDL
MODEL 25
REMARK VINA RESULT:    -6.465      3.626      5.824
REMARK INTER + INTRA:          -9.942
REMARK INTER:                  -8.887
REMARK INTRA:                  -1.054
REMARK UNBOUND:                -0.830
REMARK  Name = 
REMARK  8 active torsions:
REMARK  status: ('A' for Active; 'I' for Inactive)
REMARK    1  A    between atoms: C_1  and  N_2
REMARK    2  A    between atoms: C_4  and  C_5
REMARK    3  A    between atoms: C_5  and  N_6
REMARK    4  A    between atoms: N_6  and  C_7
REMARK    5  A    between atoms: C_9  and  C_10
REMARK    6  A    between atoms: C_10  and  N_11
REMARK    7  A    between atoms: C_15  and  C_16
REMARK    8  A    between atoms: C_23  and  O_24
REMARK                            x       y       z     vdW  Elec       q    Type
REMARK                         _______ _______ _______ _____ _____    ______ ____
ROOT
ATOM      1  C   UNL     1       6.693   5.225  17.186  0.00  0.00    +0.034 C 
ATOM      2  C   UNL     1       5.551   4.308  17.620  0.00  0.00    -0.031 C 
ATOM      3  C   UNL     1       5.814   4.136  19.119  0.00  0.00    -0.019 C 
ATOM      4  C   UNL     1       6.311   5.517  19.584  0.00  0.00    -0.021 C 
ATOM      5  C   UNL     1       6.699   6.279  18.312  0.00  0.00    +0.071 C 
ATOM      6  H   UNL     1       7.649   4.683  17.202  0.00  0.00    +0.049 HD
ATOM      7  H   UNL     1       4.576   4.781  17.446  0.00  0.00    +0.028 HD
ATOM      8  H   UNL     1       5.563   3.346  17.099  0.00  0.00    +0.028 HD
ATOM      9  H   UNL     1       6.644   3.426  19.237  0.00  0.00    +0.032 HD
ATOM     10  H   UNL     1       7.150   5.414  20.281  0.00  0.00    +0.029 HD
ATOM     11  H   UNL     1       5.523   6.072  20.106  0.00  0.00    +0.029 HD
ATOM     12  H   UNL     1       5.961   7.071  18.125  0.00  0.00    +0.061 HD
ENDROOT
BRANCH   3  13
ATOM     13  C   UNL     1       4.586   3.622  19.870  0.00  0.00    +0.028 C 
ATOM     14  H   UNL     1       4.831   2.737  20.470  0.00  0.00    +0.049 HD
ATOM     15  H   UNL     1       4.215   4.381  20.570  0.00  0.00    +0.049 HD
BRANCH  13  16
ATOM     16  N   UNL     1       3.487   3.263  18.991  0.00  0.00    -0.330 N 
ATOM     17  C   UNL     1       3.303   2.031  18.424  0.00  0.00    +0.025 A 
ATOM     18  C   UNL     1       2.138   2.138  17.708  0.00  0.00    +0.046 A 
ATOM     19  N   UNL     1       1.605   3.392  17.835  0.00  0.00    -0.236 NA
ATOM     20  C   UNL     1       2.429   4.065  18.617  0.00  0.00    +0.141 A 
ATOM     21  H   UNL     1       3.991   1.209  18.567  0.00  0.00    +0.082 HD
ATOM     22  H   UNL     1       1.651   1.378  17.109  0.00  0.00    +0.084 HD
BRANCH  20  23
ATOM     23  C   UNL     1       2.247   5.451  19.034  0.00  0.00    +0.017 A 
ATOM     24  C   UNL     1       1.778   5.742  20.321  0.00  0.00    -0.051 A 
ATOM     25  C   UNL     1       1.613   7.067  20.727  0.00  0.00    -0.061 A 
ATOM     26  C   UNL     1       1.913   8.107  19.848  0.00  0.00    -0.062 A 
ATOM     27  C   UNL     1       2.370   7.824  18.559  0.00  0.00    -0.061 A 
ATOM     28  C   UNL     1       2.531   6.499  18.151  0.00  0.00    -0.051 A 
ATOM     29  H   UNL     1       1.529   4.934  21.005  0.00  0.00    +0.062 HD
ATOM     30  H   UNL     1       1.241   7.287  21.724  0.00  0.00    +0.062 HD
ATOM     31  H   UNL     1       1.778   9.139  20.161  0.00  0.00    +0.062 HD
ATOM     32  H   UNL     1       2.591   8.636  17.870  0.00  0.00    +0.062 HD
ATOM     33  H   UNL     1       2.864   6.285  17.138  0.00  0.00    +0.062 HD
ENDBRANCH  20  23
ENDBRANCH  13  16
ENDBRANCH   3  13
BRANCH   1  34
ATOM     34  N   UNL     1       6.510   5.837  15.867  0.00  0.00    -0.305 NA
ATOM     35  H   UNL     1       6.539   6.854  15.963  0.00  0.00    +0.123 HD
BRANCH  34  36
ATOM     36  C   UNL     1       7.582   5.469  14.934  0.00  0.00    +0.042 C 
ATOM     37  H   UNL     1       8.091   6.360  14.546  0.00  0.00    +0.049 HD
ATOM     38  H   UNL     1       8.327   4.834  15.426  0.00  0.00    +0.049 HD
BRANCH  36  41
ATOM     39  N   UNL     1       5.733   3.609  12.431  0.00  0.00    -0.254 N 
ATOM     40  C   UNL     1       5.752   4.089  13.704  0.00  0.00    +0.050 A 
ATOM     41  C   UNL     1       6.973   4.724  13.799  0.00  0.00    +0.097 A 
ATOM     42  N   UNL     1       7.632   4.604  12.600  0.00  0.00    -0.133 NA
ATOM     43  N   UNL     1       6.862   3.913  11.770  0.00  0.00    -0.066 NA
ATOM     44  H   UNL     1       4.937   3.962  14.400  0.00  0.00    +0.085 HD
BRANCH  39  45
ATOM     45  C   UNL     1       4.692   2.864  11.776  0.00  0.00    +0.032 C 
ATOM     46  H   UNL     1       4.770   1.810  12.058  0.00  0.00    +0.047 HD
ATOM     47  H   UNL     1       4.815   2.969  10.694  0.00  0.00    +0.047 HD
ATOM     48  H   UNL     1       3.724   3.264  12.094  0.00  0.00    +0.047 HD
ENDBRANCH  39  45
ENDBRANCH  36  41
ENDBRANCH  34  36
ENDBRANCH   1  34
BRANCH   5  49
ATOM     49  O   UNL     1       7.973   6.882  18.460  0.00  0.00    -0.390 OA
ATOM     50  H   UNL     1       7.857   7.653  19.043  0.00  0.00    +0.210 HD
ENDBRANCH   5  49
TORSDOF 8
ENDMDL
MODEL 26
REMARK VINA RESULT:    -6.459      4.542      7.156
REMARK INTER + INTRA:          -9.932
REMARK INTER:                  -9.063
REMARK INTRA:                  -0.869
REMARK UNBOUND:                -0.830
REMARK  Name = 
REMARK  8 active torsions:
REMARK  status: ('A' for Active; 'I' for Inactive)
REMARK    1  A    between atoms: C_1  and  N_2
REMARK    2  A    between atoms: C_4  and  C_5
REMARK    3  A    between atoms: C_5  and  N_6
REMARK    4  A    between atoms: N_6  and  C_7
REMARK    5  A    between atoms: C_9  and  C_10
REMARK    6  A    between atoms: C_10  and  N_11
REMARK    7  A    between atoms: C_15  and  C_16
REMARK    8  A    between atoms: C_23  and  O_24
REMARK                            x       y       z     vdW  Elec       q    Type
REMARK                         _______ _______ _______ _____ _____    ______ ____
ROOT
ATOM      1  C   UNL     1       2.369   6.877  18.564  0.00  0.00    +0.034 C 
ATOM      2  C   UNL     1       2.397   8.248  17.892  0.00  0.00    -0.031 C 
ATOM      3  C   UNL     1       1.292   9.006  18.634  0.00  0.00    -0.019 C 
ATOM      4  C   UNL     1       1.412   8.529  20.093  0.00  0.00    -0.021 C 
ATOM      5  C   UNL     1       2.268   7.258  20.055  0.00  0.00    +0.071 C 
ATOM      6  H   UNL     1       1.462   6.325  18.277  0.00  0.00    +0.049 HD
ATOM      7  H   UNL     1       3.369   8.738  18.031  0.00  0.00    +0.028 HD
ATOM      8  H   UNL     1       2.192   8.194  16.818  0.00  0.00    +0.028 HD
ATOM      9  H   UNL     1       0.324   8.657  18.248  0.00  0.00    +0.032 HD
ATOM     10  H   UNL     1       0.422   8.353  20.528  0.00  0.00    +0.029 HD
ATOM     11  H   UNL     1       1.912   9.277  20.720  0.00  0.00    +0.029 HD
ATOM     12  H   UNL     1       3.256   7.473  20.483  0.00  0.00    +0.061 HD
ENDROOT
BRANCH   3  13
ATOM     13  C   UNL     1       1.403  10.520  18.455  0.00  0.00    +0.028 C 
ATOM     14  H   UNL     1       2.443  10.853  18.550  0.00  0.00    +0.049 HD
ATOM     15  H   UNL     1       1.069  10.817  17.454  0.00  0.00    +0.049 HD
BRANCH  13  16
ATOM     16  N   UNL     1       0.615  11.268  19.419  0.00  0.00    -0.330 N 
ATOM     17  C   UNL     1       1.116  11.894  20.530  0.00  0.00    +0.025 A 
ATOM     18  C   UNL     1       0.033  12.493  21.121  0.00  0.00    +0.046 A 
ATOM     19  N   UNL     1      -1.104  12.261  20.395  0.00  0.00    -0.236 NA
ATOM     20  C   UNL     1      -0.740  11.520  19.365  0.00  0.00    +0.141 A 
ATOM     21  H   UNL     1       2.161  11.860  20.802  0.00  0.00    +0.082 HD
ATOM     22  H   UNL     1       0.010  13.083  22.029  0.00  0.00    +0.084 HD
BRANCH  20  23
ATOM     23  C   UNL     1      -1.633  11.043  18.315  0.00  0.00    +0.017 A 
ATOM     24  C   UNL     1      -1.730  11.739  17.104  0.00  0.00    -0.051 A 
ATOM     25  C   UNL     1      -2.576  11.279  16.093  0.00  0.00    -0.061 A 
ATOM     26  C   UNL     1      -3.332  10.124  16.291  0.00  0.00    -0.062 A 
ATOM     27  C   UNL     1      -3.250   9.432  17.500  0.00  0.00    -0.061 A 
ATOM     28  C   UNL     1      -2.407   9.894  18.512  0.00  0.00    -0.051 A 
ATOM     29  H   UNL     1      -1.154  12.648  16.951  0.00  0.00    +0.062 HD
ATOM     30  H   UNL     1      -2.653  11.827  15.158  0.00  0.00    +0.062 HD
ATOM     31  H   UNL     1      -3.997   9.769  15.507  0.00  0.00    +0.062 HD
ATOM     32  H   UNL     1      -3.850   8.538  17.657  0.00  0.00    +0.062 HD
ATOM     33  H   UNL     1      -2.366   9.364  19.461  0.00  0.00    +0.062 HD
ENDBRANCH  20  23
ENDBRANCH  13  16
ENDBRANCH   3  13
BRANCH   1  34
ATOM     34  N   UNL     1       3.544   6.046  18.292  0.00  0.00    -0.305 NA
ATOM     35  H   UNL     1       3.241   5.167  17.868  0.00  0.00    +0.123 HD
BRANCH  34  36
ATOM     36  C   UNL     1       4.462   6.683  17.339  0.00  0.00    +0.042 C 
ATOM     37  H   UNL     1       3.940   7.431  16.729  0.00  0.00    +0.049 HD
ATOM     38  H   UNL     1       5.285   7.180  17.863  0.00  0.00    +0.049 HD
BRANCH  36  41
ATOM     39  N   UNL     1       5.859   4.434  14.862  0.00  0.00    -0.254 N 
ATOM     40  C   UNL     1       5.448   5.701  15.142  0.00  0.00    +0.050 A 
ATOM     41  C   UNL     1       5.011   5.625  16.447  0.00  0.00    +0.097 A 
ATOM     42  N   UNL     1       5.170   4.338  16.897  0.00  0.00    -0.133 NA
ATOM     43  N   UNL     1       5.687   3.615  15.912  0.00  0.00    -0.066 NA
ATOM     44  H   UNL     1       5.509   6.517  14.436  0.00  0.00    +0.085 HD
BRANCH  39  45
ATOM     45  C   UNL     1       6.419   3.931  13.637  0.00  0.00    +0.032 C 
ATOM     46  H   UNL     1       7.213   3.216  13.870  0.00  0.00    +0.047 HD
ATOM     47  H   UNL     1       6.830   4.771  13.070  0.00  0.00    +0.047 HD
ATOM     48  H   UNL     1       5.626   3.435  13.069  0.00  0.00    +0.047 HD
ENDBRANCH  39  45
ENDBRANCH  36  41
ENDBRANCH  34  36
ENDBRANCH   1  34
BRANCH   5  49
ATOM     49  O   UNL     1       1.665   6.228  20.821  0.00  0.00    -0.390 OA
ATOM     50  H   UNL     1       2.083   6.244  21.699  0.00  0.00    +0.210 HD
ENDBRANCH   5  49
TORSDOF 8
ENDMDL
MODEL 27
REMARK VINA RESULT:    -6.444      4.221      5.876
REMARK INTER + INTRA:          -9.911
REMARK INTER:                  -9.094
REMARK INTRA:                  -0.817
REMARK UNBOUND:                -0.830
REMARK  Name = 
REMARK  8 active torsions:
REMARK  status: ('A' for Active; 'I' for Inactive)
REMARK    1  A    between atoms: C_1  and  N_2
REMARK    2  A    between atoms: C_4  and  C_5
REMARK    3  A    between atoms: C_5  and  N_6
REMARK    4  A    between atoms: N_6  and  C_7
REMARK    5  A    between atoms: C_9  and  C_10
REMARK    6  A    between atoms: C_10  and  N_11
REMARK    7  A    between atoms: C_15  and  C_16
REMARK    8  A    between atoms: C_23  and  O_24
REMARK                            x       y       z     vdW  Elec       q    Type
REMARK                         _______ _______ _______ _____ _____    ______ ____
ROOT
ATOM      1  C   UNL     1       3.062   7.399  18.675  0.00  0.00    +0.034 C 
ATOM      2  C   UNL     1       4.187   6.671  17.939  0.00  0.00    -0.031 C 
ATOM      3  C   UNL     1       4.896   5.922  19.071  0.00  0.00    -0.019 C 
ATOM      4  C   UNL     1       3.758   5.465  20.001  0.00  0.00    -0.021 C 
ATOM      5  C   UNL     1       2.529   6.293  19.609  0.00  0.00    +0.071 C 
ATOM      6  H   UNL     1       3.469   8.215  19.288  0.00  0.00    +0.049 HD
ATOM      7  H   UNL     1       3.786   5.970  17.197  0.00  0.00    +0.028 HD
ATOM      8  H   UNL     1       4.867   7.359  17.428  0.00  0.00    +0.028 HD
ATOM      9  H   UNL     1       5.508   6.646  19.625  0.00  0.00    +0.032 HD
ATOM     10  H   UNL     1       4.035   5.602  21.052  0.00  0.00    +0.029 HD
ATOM     11  H   UNL     1       3.530   4.401  19.864  0.00  0.00    +0.029 HD
ATOM     12  H   UNL     1       1.806   5.647  19.094  0.00  0.00    +0.061 HD
ENDROOT
BRANCH   3  13
ATOM     13  C   UNL     1       5.781   4.788  18.554  0.00  0.00    +0.028 C 
ATOM     14  H   UNL     1       6.843   5.026  18.683  0.00  0.00    +0.049 HD
ATOM     15  H   UNL     1       5.597   3.866  19.117  0.00  0.00    +0.049 HD
BRANCH  13  16
ATOM     16  N   UNL     1       5.568   4.494  17.148  0.00  0.00    -0.330 N 
ATOM     17  C   UNL     1       6.426   4.826  16.134  0.00  0.00    +0.025 A 
ATOM     18  C   UNL     1       5.844   4.329  14.996  0.00  0.00    +0.046 A 
ATOM     19  N   UNL     1       4.667   3.695  15.291  0.00  0.00    -0.236 NA
ATOM     20  C   UNL     1       4.511   3.798  16.598  0.00  0.00    +0.141 A 
ATOM     21  H   UNL     1       7.345   5.371  16.297  0.00  0.00    +0.082 HD
ATOM     22  H   UNL     1       6.210   4.390  13.978  0.00  0.00    +0.084 HD
BRANCH  20  23
ATOM     23  C   UNL     1       3.391   3.251  17.356  0.00  0.00    +0.017 A 
ATOM     24  C   UNL     1       2.139   3.877  17.311  0.00  0.00    -0.051 A 
ATOM     25  C   UNL     1       1.063   3.350  18.027  0.00  0.00    -0.061 A 
ATOM     26  C   UNL     1       1.234   2.198  18.794  0.00  0.00    -0.062 A 
ATOM     27  C   UNL     1       2.482   1.576  18.853  0.00  0.00    -0.061 A 
ATOM     28  C   UNL     1       3.560   2.105  18.141  0.00  0.00    -0.051 A 
ATOM     29  H   UNL     1       2.004   4.783  16.726  0.00  0.00    +0.062 HD
ATOM     30  H   UNL     1       0.095   3.844  17.995  0.00  0.00    +0.062 HD
ATOM     31  H   UNL     1       0.398   1.791  19.358  0.00  0.00    +0.062 HD
ATOM     32  H   UNL     1       2.618   0.685  19.462  0.00  0.00    +0.062 HD
ATOM     33  H   UNL     1       4.536   1.629  18.210  0.00  0.00    +0.062 HD
ENDBRANCH  20  23
ENDBRANCH  13  16
ENDBRANCH   3  13
BRANCH   1  34
ATOM     34  N   UNL     1       2.012   7.929  17.802  0.00  0.00    -0.305 NA
ATOM     35  H   UNL     1       1.101   7.634  18.159  0.00  0.00    +0.123 HD
BRANCH  34  36
ATOM     36  C   UNL     1       2.004   9.397  17.778  0.00  0.00    +0.042 C 
ATOM     37  H   UNL     1       2.957   9.803  18.138  0.00  0.00    +0.049 HD
ATOM     38  H   UNL     1       1.833   9.769  16.762  0.00  0.00    +0.049 HD
BRANCH  36  41
ATOM     39  N   UNL     1      -0.354  10.579  20.265  0.00  0.00    -0.254 N 
ATOM     40  C   UNL     1       0.925  10.193  20.006  0.00  0.00    +0.050 A 
ATOM     41  C   UNL     1       0.907   9.869  18.666  0.00  0.00    +0.097 A 
ATOM     42  N   UNL     1      -0.360  10.066  18.176  0.00  0.00    -0.133 NA
ATOM     43  N   UNL     1      -1.126  10.498  19.170  0.00  0.00    -0.066 NA
ATOM     44  H   UNL     1       1.709  10.193  20.750  0.00  0.00    +0.085 HD
BRANCH  39  45
ATOM     45  C   UNL     1      -0.912  11.033  21.510  0.00  0.00    +0.032 C 
ATOM     46  H   UNL     1      -0.802  10.248  22.264  0.00  0.00    +0.047 HD
ATOM     47  H   UNL     1      -1.973  11.254  21.357  0.00  0.00    +0.047 HD
ATOM     48  H   UNL     1      -0.374  11.932  21.826  0.00  0.00    +0.047 HD
ENDBRANCH  39  45
ENDBRANCH  36  41
ENDBRANCH  34  36
ENDBRANCH   1  34
BRANCH   5  49
ATOM     49  O   UNL     1       1.904   6.835  20.760  0.00  0.00    -0.390 OA
ATOM     50  H   UNL     1       0.963   6.953  20.544  0.00  0.00    +0.210 HD
ENDBRANCH   5  49
TORSDOF 8
ENDMDL
MODEL 28
REMARK VINA RESULT:    -6.412      4.521      8.041
REMARK INTER + INTRA:          -9.867
REMARK INTER:                  -8.812
REMARK INTRA:                  -1.055
REMARK UNBOUND:                -0.830
REMARK  Name = 
REMARK  8 active torsions:
REMARK  status: ('A' for Active; 'I' for Inactive)
REMARK    1  A    between atoms: C_1  and  N_2
REMARK    2  A    between atoms: C_4  and  C_5
REMARK    3  A    between atoms: C_5  and  N_6
REMARK    4  A    between atoms: N_6  and  C_7
REMARK    5  A    between atoms: C_9  and  C_10
REMARK    6  A    between atoms: C_10  and  N_11
REMARK    7  A    between atoms: C_15  and  C_16
REMARK    8  A    between atoms: C_23  and  O_24
REMARK                            x       y       z     vdW  Elec       q    Type
REMARK                         _______ _______ _______ _____ _____    ______ ____
ROOT
ATOM      1  C   UNL     1       2.323   7.331  18.533  0.00  0.00    +0.034 C 
ATOM      2  C   UNL     1       2.325   8.727  17.909  0.00  0.00    -0.031 C 
ATOM      3  C   UNL     1       1.178   9.423  18.649  0.00  0.00    -0.019 C 
ATOM      4  C   UNL     1       1.277   8.898  20.093  0.00  0.00    -0.021 C 
ATOM      5  C   UNL     1       2.173   7.656  20.033  0.00  0.00    +0.071 C 
ATOM      6  H   UNL     1       1.442   6.764  18.202  0.00  0.00    +0.049 HD
ATOM      7  H   UNL     1       3.277   9.241  18.091  0.00  0.00    +0.028 HD
ATOM      8  H   UNL     1       2.148   8.705  16.830  0.00  0.00    +0.028 HD
ATOM      9  H   UNL     1       0.232   9.059  18.226  0.00  0.00    +0.032 HD
ATOM     10  H   UNL     1       0.282   8.676  20.495  0.00  0.00    +0.029 HD
ATOM     11  H   UNL     1       1.737   9.638  20.758  0.00  0.00    +0.029 HD
ATOM     12  H   UNL     1       3.142   7.886  20.493  0.00  0.00    +0.061 HD
ENDROOT
BRANCH   3  13
ATOM     13  C   UNL     1       1.246  10.945  18.526  0.00  0.00    +0.028 C 
ATOM     14  H   UNL     1       2.262  11.311  18.714  0.00  0.00    +0.049 HD
ATOM     15  H   UNL     1       0.982  11.264  17.511  0.00  0.00    +0.049 HD
BRANCH  13  16
ATOM     16  N   UNL     1       0.357  11.633  19.446  0.00  0.00    -0.330 N 
ATOM     17  C   UNL     1       0.757  12.345  20.544  0.00  0.00    +0.025 A 
ATOM     18  C   UNL     1      -0.399  12.839  21.091  0.00  0.00    +0.046 A 
ATOM     19  N   UNL     1      -1.486  12.459  20.349  0.00  0.00    -0.236 NA
ATOM     20  C   UNL     1      -1.016  11.731  19.354  0.00  0.00    +0.141 A 
ATOM     21  H   UNL     1       1.793  12.436  20.840  0.00  0.00    +0.082 HD
ATOM     22  H   UNL     1      -0.510  13.452  21.977  0.00  0.00    +0.084 HD
BRANCH  20  23
ATOM     23  C   UNL     1      -1.825  11.124  18.303  0.00  0.00    +0.017 A 
ATOM     24  C   UNL     1      -1.889  11.715  17.035  0.00  0.00    -0.051 A 
ATOM     25  C   UNL     1      -2.654  11.131  16.024  0.00  0.00    -0.061 A 
ATOM     26  C   UNL     1      -3.361   9.956  16.277  0.00  0.00    -0.062 A 
ATOM     27  C   UNL     1      -3.311   9.367  17.541  0.00  0.00    -0.061 A 
ATOM     28  C   UNL     1      -2.550   9.953  18.554  0.00  0.00    -0.051 A 
ATOM     29  H   UNL     1      -1.352  12.639  16.838  0.00  0.00    +0.062 HD
ATOM     30  H   UNL     1      -2.706  11.598  15.044  0.00  0.00    +0.062 HD
ATOM     31  H   UNL     1      -3.962   9.504  15.492  0.00  0.00    +0.062 HD
ATOM     32  H   UNL     1      -3.873   8.458  17.741  0.00  0.00    +0.062 HD
ATOM     33  H   UNL     1      -2.535   9.504  19.544  0.00  0.00    +0.062 HD
ENDBRANCH  20  23
ENDBRANCH  13  16
ENDBRANCH   3  13
BRANCH   1  34
ATOM     34  N   UNL     1       3.530   6.547  18.262  0.00  0.00    -0.305 NA
ATOM     35  H   UNL     1       4.024   6.380  19.141  0.00  0.00    +0.123 HD
BRANCH  34  36
ATOM     36  C   UNL     1       3.218   5.230  17.694  0.00  0.00    +0.042 C 
ATOM     37  H   UNL     1       2.489   5.316  16.879  0.00  0.00    +0.049 HD
ATOM     38  H   UNL     1       4.121   4.751  17.299  0.00  0.00    +0.049 HD
BRANCH  36  41
ATOM     39  N   UNL     1       2.228   3.174  20.511  0.00  0.00    -0.254 N 
ATOM     40  C   UNL     1       3.248   3.806  19.869  0.00  0.00    +0.050 A 
ATOM     41  C   UNL     1       2.642   4.384  18.774  0.00  0.00    +0.097 A 
ATOM     42  N   UNL     1       1.302   4.084  18.795  0.00  0.00    -0.133 NA
ATOM     43  N   UNL     1       1.062   3.336  19.865  0.00  0.00    -0.066 NA
ATOM     44  H   UNL     1       4.267   3.807  20.229  0.00  0.00    +0.085 HD
BRANCH  39  45
ATOM     45  C   UNL     1       2.279   2.409  21.727  0.00  0.00    +0.032 C 
ATOM     46  H   UNL     1       3.102   1.691  21.668  0.00  0.00    +0.047 HD
ATOM     47  H   UNL     1       1.330   1.876  21.844  0.00  0.00    +0.047 HD
ATOM     48  H   UNL     1       2.441   3.094  22.564  0.00  0.00    +0.047 HD
ENDBRANCH  39  45
ENDBRANCH  36  41
ENDBRANCH  34  36
ENDBRANCH   1  34
BRANCH   5  49
ATOM     49  O   UNL     1       1.584   6.581  20.746  0.00  0.00    -0.390 OA
ATOM     50  H   UNL     1       1.305   6.931  21.609  0.00  0.00    +0.210 HD
ENDBRANCH   5  49
TORSDOF 8
ENDMDL
MODEL 29
REMARK VINA RESULT:    -6.412      3.763      6.842
REMARK INTER + INTRA:          -9.867
REMARK INTER:                  -9.294
REMARK INTRA:                  -0.572
REMARK UNBOUND:                -0.830
REMARK  Name = 
REMARK  8 active torsions:
REMARK  status: ('A' for Active; 'I' for Inactive)
REMARK    1  A    between atoms: C_1  and  N_2
REMARK    2  A    between atoms: C_4  and  C_5
REMARK    3  A    between atoms: C_5  and  N_6
REMARK    4  A    between atoms: N_6  and  C_7
REMARK    5  A    between atoms: C_9  and  C_10
REMARK    6  A    between atoms: C_10  and  N_11
REMARK    7  A    between atoms: C_15  and  C_16
REMARK    8  A    between atoms: C_23  and  O_24
REMARK                            x       y       z     vdW  Elec       q    Type
REMARK                         _______ _______ _______ _____ _____    ______ ____
ROOT
ATOM      1  C   UNL     1       2.846   7.387  18.321  0.00  0.00    +0.034 C 
ATOM      2  C   UNL     1       3.475   6.347  17.395  0.00  0.00    -0.031 C 
ATOM      3  C   UNL     1       4.321   5.510  18.360  0.00  0.00    -0.019 C 
ATOM      4  C   UNL     1       3.471   5.424  19.640  0.00  0.00    -0.021 C 
ATOM      5  C   UNL     1       2.405   6.518  19.517  0.00  0.00    +0.071 C 
ATOM      6  H   UNL     1       3.603   8.105  18.664  0.00  0.00    +0.049 HD
ATOM      7  H   UNL     1       2.708   5.730  16.911  0.00  0.00    +0.028 HD
ATOM      8  H   UNL     1       4.093   6.800  16.613  0.00  0.00    +0.028 HD
ATOM      9  H   UNL     1       5.227   6.082  18.599  0.00  0.00    +0.032 HD
ATOM     10  H   UNL     1       4.096   5.549  20.531  0.00  0.00    +0.029 HD
ATOM     11  H   UNL     1       2.974   4.450  19.728  0.00  0.00    +0.029 HD
ATOM     12  H   UNL     1       1.427   6.053  19.336  0.00  0.00    +0.061 HD
ENDROOT
BRANCH   3  13
ATOM     13  C   UNL     1       4.708   4.155  17.769  0.00  0.00    +0.028 C 
ATOM     14  H   UNL     1       5.350   3.593  18.457  0.00  0.00    +0.049 HD
ATOM     15  H   UNL     1       3.818   3.538  17.598  0.00  0.00    +0.049 HD
BRANCH  13  16
ATOM     16  N   UNL     1       5.415   4.264  16.505  0.00  0.00    -0.330 N 
ATOM     17  C   UNL     1       5.057   3.633  15.344  0.00  0.00    +0.025 A 
ATOM     18  C   UNL     1       5.977   4.045  14.415  0.00  0.00    +0.046 A 
ATOM     19  N   UNL     1       6.873   4.917  14.974  0.00  0.00    -0.236 NA
ATOM     20  C   UNL     1       6.522   5.045  16.239  0.00  0.00    +0.141 A 
ATOM     21  H   UNL     1       4.211   2.963  15.276  0.00  0.00    +0.082 HD
ATOM     22  H   UNL     1       6.043   3.765  13.370  0.00  0.00    +0.084 HD
BRANCH  20  23
ATOM     23  C   UNL     1       7.195   5.893  17.217  0.00  0.00    +0.017 A 
ATOM     24  C   UNL     1       7.353   7.262  16.970  0.00  0.00    -0.051 A 
ATOM     25  C   UNL     1       7.988   8.078  17.908  0.00  0.00    -0.061 A 
ATOM     26  C   UNL     1       8.471   7.528  19.095  0.00  0.00    -0.062 A 
ATOM     27  C   UNL     1       8.328   6.161  19.343  0.00  0.00    -0.061 A 
ATOM     28  C   UNL     1       7.697   5.345  18.403  0.00  0.00    -0.051 A 
ATOM     29  H   UNL     1       6.991   7.692  16.039  0.00  0.00    +0.062 HD
ATOM     30  H   UNL     1       8.115   9.138  17.708  0.00  0.00    +0.062 HD
ATOM     31  H   UNL     1       8.972   8.161  19.823  0.00  0.00    +0.062 HD
ATOM     32  H   UNL     1       8.716   5.732  20.263  0.00  0.00    +0.062 HD
ATOM     33  H   UNL     1       7.610   4.277  18.591  0.00  0.00    +0.062 HD
ENDBRANCH  20  23
ENDBRANCH  13  16
ENDBRANCH   3  13
BRANCH   1  34
ATOM     34  N   UNL     1       1.721   8.118  17.733  0.00  0.00    -0.305 NA
ATOM     35  H   UNL     1       0.865   7.876  18.237  0.00  0.00    +0.123 HD
BRANCH  34  36
ATOM     36  C   UNL     1       1.886   9.572  17.850  0.00  0.00    +0.042 C 
ATOM     37  H   UNL     1       2.861   9.824  18.282  0.00  0.00    +0.049 HD
ATOM     38  H   UNL     1       1.809  10.053  16.868  0.00  0.00    +0.049 HD
BRANCH  36  41
ATOM     39  N   UNL     1      -0.417  10.862  20.335  0.00  0.00    -0.254 N 
ATOM     40  C   UNL     1       0.847  10.430  20.074  0.00  0.00    +0.050 A 
ATOM     41  C   UNL     1       0.811  10.090  18.738  0.00  0.00    +0.097 A 
ATOM     42  N   UNL     1      -0.452  10.324  18.253  0.00  0.00    -0.133 NA
ATOM     43  N   UNL     1      -1.198  10.793  19.245  0.00  0.00    -0.066 NA
ATOM     44  H   UNL     1       1.635  10.413  20.813  0.00  0.00    +0.085 HD
BRANCH  39  45
ATOM     45  C   UNL     1      -0.952  11.349  21.577  0.00  0.00    +0.032 C 
ATOM     46  H   UNL     1      -1.878  10.815  21.807  0.00  0.00    +0.047 HD
ATOM     47  H   UNL     1      -1.156  12.419  21.474  0.00  0.00    +0.047 HD
ATOM     48  H   UNL     1      -0.215  11.173  22.367  0.00  0.00    +0.047 HD
ENDBRANCH  39  45
ENDBRANCH  36  41
ENDBRANCH  34  36
ENDBRANCH   1  34
BRANCH   5  49
ATOM     49  O   UNL     1       2.325   7.275  20.714  0.00  0.00    -0.390 OA
ATOM     50  H   UNL     1       3.234   7.391  21.039  0.00  0.00    +0.210 HD
ENDBRANCH   5  49
TORSDOF 8
ENDMDL
MODEL 30
REMARK VINA RESULT:    -6.281      4.386      7.676
REMARK INTER + INTRA:          -9.681
REMARK INTER:                  -8.851
REMARK INTRA:                  -0.830
REMARK UNBOUND:                -0.830
REMARK  Name = 
REMARK  8 active torsions:
REMARK  status: ('A' for Active; 'I' for Inactive)
REMARK    1  A    between atoms: C_1  and  N_2
REMARK    2  A    between atoms: C_4  and  C_5
REMARK    3  A    between atoms: C_5  and  N_6
REMARK    4  A    between atoms: N_6  and  C_7
REMARK    5  A    between atoms: C_9  and  C_10
REMARK    6  A    between atoms: C_10  and  N_11
REMARK    7  A    between atoms: C_15  and  C_16
REMARK    8  A    between atoms: C_23  and  O_24
REMARK                            x       y       z     vdW  Elec       q    Type
REMARK                         _______ _______ _______ _____ _____    ______ ____
ROOT
ATOM      1  C   UNL     1       3.687   5.362  17.729  0.00  0.00    +0.034 C 
ATOM      2  C   UNL     1       2.375   6.072  18.062  0.00  0.00    -0.031 C 
ATOM      3  C   UNL     1       2.852   7.454  18.519  0.00  0.00    -0.019 C 
ATOM      4  C   UNL     1       4.037   7.779  17.592  0.00  0.00    -0.021 C 
ATOM      5  C   UNL     1       4.446   6.451  16.944  0.00  0.00    +0.071 C 
ATOM      6  H   UNL     1       4.245   5.134  18.648  0.00  0.00    +0.049 HD
ATOM      7  H   UNL     1       1.733   6.153  17.176  0.00  0.00    +0.028 HD
ATOM      8  H   UNL     1       1.811   5.564  18.849  0.00  0.00    +0.028 HD
ATOM      9  H   UNL     1       3.245   7.356  19.540  0.00  0.00    +0.032 HD
ATOM     10  H   UNL     1       4.857   8.239  18.154  0.00  0.00    +0.029 HD
ATOM     11  H   UNL     1       3.749   8.486  16.805  0.00  0.00    +0.029 HD
ATOM     12  H   UNL     1       4.154   6.460  15.885  0.00  0.00    +0.061 HD
ENDROOT
BRANCH   3  13
ATOM     13  C   UNL     1       1.731   8.494  18.497  0.00  0.00    +0.028 C 
ATOM     14  H   UNL     1       2.084   9.446  18.084  0.00  0.00    +0.049 HD
ATOM     15  H   UNL     1       0.908   8.161  17.853  0.00  0.00    +0.049 HD
BRANCH  13  16
ATOM     16  N   UNL     1       1.178   8.766  19.812  0.00  0.00    -0.330 N 
ATOM     17  C   UNL     1       1.662   8.264  20.989  0.00  0.00    +0.025 A 
ATOM     18  C   UNL     1       0.862   8.805  21.964  0.00  0.00    +0.046 A 
ATOM     19  N   UNL     1      -0.082   9.629  21.412  0.00  0.00    -0.236 NA
ATOM     20  C   UNL     1       0.120   9.600  20.109  0.00  0.00    +0.141 A 
ATOM     21  H   UNL     1       2.502   7.586  21.038  0.00  0.00    +0.082 HD
ATOM     22  H   UNL     1       0.916   8.649  23.034  0.00  0.00    +0.084 HD
BRANCH  20  23
ATOM     23  C   UNL     1      -0.654  10.346  19.122  0.00  0.00    +0.017 A 
ATOM     24  C   UNL     1      -0.428  11.716  18.941  0.00  0.00    -0.051 A 
ATOM     25  C   UNL     1      -1.159  12.431  17.991  0.00  0.00    -0.061 A 
ATOM     26  C   UNL     1      -2.122  11.780  17.220  0.00  0.00    -0.062 A 
ATOM     27  C   UNL     1      -2.361  10.416  17.403  0.00  0.00    -0.061 A 
ATOM     28  C   UNL     1      -1.633   9.703  18.356  0.00  0.00    -0.051 A 
ATOM     29  H   UNL     1       0.311  12.231  19.550  0.00  0.00    +0.062 HD
ATOM     30  H   UNL     1      -0.986  13.495  17.860  0.00  0.00    +0.062 HD
ATOM     31  H   UNL     1      -2.697  12.337  16.484  0.00  0.00    +0.062 HD
ATOM     32  H   UNL     1      -3.120   9.913  16.810  0.00  0.00    +0.062 HD
ATOM     33  H   UNL     1      -1.840   8.646  18.511  0.00  0.00    +0.062 HD
ENDBRANCH  20  23
ENDBRANCH  13  16
ENDBRANCH   3  13
BRANCH   1  34
ATOM     34  N   UNL     1       3.528   4.135  16.945  0.00  0.00    -0.305 NA
ATOM     35  H   UNL     1       4.143   4.177  16.130  0.00  0.00    +0.123 HD
BRANCH  34  36
ATOM     36  C   UNL     1       3.913   2.940  17.706  0.00  0.00    +0.042 C 
ATOM     37  H   UNL     1       3.913   2.049  17.067  0.00  0.00    +0.049 HD
ATOM     38  H   UNL     1       4.915   3.057  18.134  0.00  0.00    +0.049 HD
BRANCH  36  41
ATOM     39  N   UNL     1       1.852   2.555  20.664  0.00  0.00    -0.254 N 
ATOM     40  C   UNL     1       3.106   2.747  20.171  0.00  0.00    +0.050 A 
ATOM     41  C   UNL     1       2.926   2.751  18.804  0.00  0.00    +0.097 A 
ATOM     42  N   UNL     1       1.594   2.564  18.528  0.00  0.00    -0.133 NA
ATOM     43  N   UNL     1       0.946   2.440  19.679  0.00  0.00    -0.066 NA
ATOM     44  H   UNL     1       3.979   2.874  20.795  0.00  0.00    +0.085 HD
BRANCH  39  45
ATOM     45  C   UNL     1       1.440   2.472  22.038  0.00  0.00    +0.032 C 
ATOM     46  H   UNL     1       1.108   3.458  22.377  0.00  0.00    +0.047 HD
ATOM     47  H   UNL     1       2.291   2.140  22.639  0.00  0.00    +0.047 HD
ATOM     48  H   UNL     1       0.615   1.756  22.112  0.00  0.00    +0.047 HD
ENDBRANCH  39  45
ENDBRANCH  36  41
ENDBRANCH  34  36
ENDBRANCH   1  34
BRANCH   5  49
ATOM     49  O   UNL     1       5.850   6.271  17.019  0.00  0.00    -0.390 OA
ATOM     50  H   UNL     1       6.209   7.031  17.509  0.00  0.00    +0.210 HD
ENDBRANCH   5  49
TORSDOF 8
ENDMDL
MODEL 31
REMARK VINA RESULT:    -6.196      4.095      7.336
REMARK INTER + INTRA:          -9.562
REMARK INTER:                  -8.793
REMARK INTRA:                  -0.769
REMARK UNBOUND:                -0.830
REMARK  Name = 
REMARK  8 active torsions:
REMARK  status: ('A' for Active; 'I' for Inactive)
REMARK    1  A    between atoms: C_1  and  N_2
REMARK    2  A    between atoms: C_4  and  C_5
REMARK    3  A    between atoms: C_5  and  N_6
REMARK    4  A    between atoms: N_6  and  C_7
REMARK    5  A    between atoms: C_9  and  C_10
REMARK    6  A    between atoms: C_10  and  N_11
REMARK    7  A    between atoms: C_15  and  C_16
REMARK    8  A    between atoms: C_23  and  O_24
REMARK                            x       y       z     vdW  Elec       q    Type
REMARK                         _______ _______ _______ _____ _____    ______ ____
ROOT
ATOM      1  C   UNL     1       2.727   6.457  18.516  0.00  0.00    +0.034 C 
ATOM      2  C   UNL     1       2.775   7.793  17.776  0.00  0.00    -0.031 C 
ATOM      3  C   UNL     1       1.623   8.571  18.420  0.00  0.00    -0.019 C 
ATOM      4  C   UNL     1       1.671   8.170  19.906  0.00  0.00    -0.021 C 
ATOM      5  C   UNL     1       2.542   6.911  19.978  0.00  0.00    +0.071 C 
ATOM      6  H   UNL     1       1.844   5.879  18.209  0.00  0.00    +0.049 HD
ATOM      7  H   UNL     1       3.732   8.303  17.941  0.00  0.00    +0.028 HD
ATOM      8  H   UNL     1       2.627   7.682  16.698  0.00  0.00    +0.028 HD
ATOM      9  H   UNL     1       0.682   8.190  18.002  0.00  0.00    +0.032 HD
ATOM     10  H   UNL     1       0.662   8.002  20.296  0.00  0.00    +0.029 HD
ATOM     11  H   UNL     1       2.128   8.956  20.519  0.00  0.00    +0.029 HD
ATOM     12  H   UNL     1       3.504   7.162  20.445  0.00  0.00    +0.061 HD
ENDROOT
BRANCH   3  13
ATOM     13  C   UNL     1       1.725  10.076  18.171  0.00  0.00    +0.028 C 
ATOM     14  H   UNL     1       2.530  10.521  18.767  0.00  0.00    +0.049 HD
ATOM     15  H   UNL     1       1.966  10.278  17.120  0.00  0.00    +0.049 HD
BRANCH  13  16
ATOM     16  N   UNL     1       0.502  10.792  18.486  0.00  0.00    -0.330 N 
ATOM     17  C   UNL     1      -0.762  10.278  18.378  0.00  0.00    +0.025 A 
ATOM     18  C   UNL     1      -1.594  11.281  18.807  0.00  0.00    +0.046 A 
ATOM     19  N   UNL     1      -0.871  12.381  19.183  0.00  0.00    -0.236 NA
ATOM     20  C   UNL     1       0.398  12.073  18.988  0.00  0.00    +0.141 A 
ATOM     21  H   UNL     1      -0.962   9.279  18.016  0.00  0.00    +0.082 HD
ATOM     22  H   UNL     1      -2.675  11.271  18.868  0.00  0.00    +0.084 HD
BRANCH  20  23
ATOM     23  C   UNL     1       1.528  12.951  19.267  0.00  0.00    +0.017 A 
ATOM     24  C   UNL     1       2.008  13.085  20.575  0.00  0.00    -0.051 A 
ATOM     25  C   UNL     1       3.097  13.916  20.844  0.00  0.00    -0.061 A 
ATOM     26  C   UNL     1       3.707  14.621  19.807  0.00  0.00    -0.062 A 
ATOM     27  C   UNL     1       3.227  14.502  18.502  0.00  0.00    -0.061 A 
ATOM     28  C   UNL     1       2.136  13.674  18.234  0.00  0.00    -0.051 A 
ATOM     29  H   UNL     1       1.526  12.549  21.389  0.00  0.00    +0.062 HD
ATOM     30  H   UNL     1       3.461  14.022  21.863  0.00  0.00    +0.062 HD
ATOM     31  H   UNL     1       4.550  15.275  20.017  0.00  0.00    +0.062 HD
ATOM     32  H   UNL     1       3.696  15.062  17.697  0.00  0.00    +0.062 HD
ATOM     33  H   UNL     1       1.750  13.605  17.219  0.00  0.00    +0.062 HD
ENDBRANCH  20  23
ENDBRANCH  13  16
ENDBRANCH   3  13
BRANCH   1  34
ATOM     34  N   UNL     1       3.925   5.630  18.348  0.00  0.00    -0.305 NA
ATOM     35  H   UNL     1       3.725   4.884  17.679  0.00  0.00    +0.123 HD
BRANCH  34  36
ATOM     36  C   UNL     1       5.053   6.397  17.803  0.00  0.00    +0.042 C 
ATOM     37  H   UNL     1       4.712   7.343  17.367  0.00  0.00    +0.049 HD
ATOM     38  H   UNL     1       5.785   6.623  18.586  0.00  0.00    +0.049 HD
BRANCH  36  41
ATOM     39  N   UNL     1       6.317   4.565  14.942  0.00  0.00    -0.254 N 
ATOM     40  C   UNL     1       5.347   5.388  15.424  0.00  0.00    +0.050 A 
ATOM     41  C   UNL     1       5.701   5.578  16.743  0.00  0.00    +0.097 A 
ATOM     42  N   UNL     1       6.850   4.872  17.003  0.00  0.00    -0.133 NA
ATOM     43  N   UNL     1       7.215   4.250  15.889  0.00  0.00    -0.066 NA
ATOM     44  H   UNL     1       4.534   5.767  14.822  0.00  0.00    +0.085 HD
BRANCH  39  45
ATOM     45  C   UNL     1       6.458   4.040  13.611  0.00  0.00    +0.032 C 
ATOM     46  H   UNL     1       5.522   3.563  13.308  0.00  0.00    +0.047 HD
ATOM     47  H   UNL     1       7.268   3.304  13.610  0.00  0.00    +0.047 HD
ATOM     48  H   UNL     1       6.691   4.868  12.933  0.00  0.00    +0.047 HD
ENDBRANCH  39  45
ENDBRANCH  36  41
ENDBRANCH  34  36
ENDBRANCH   1  34
BRANCH   5  49
ATOM     49  O   UNL     1       1.912   5.912  20.762  0.00  0.00    -0.390 OA
ATOM     50  H   UNL     1       1.025   5.772  20.387  0.00  0.00    +0.210 HD
ENDBRANCH   5  49
TORSDOF 8
ENDMDL
MODEL 32
REMARK VINA RESULT:    -6.150      3.666      6.998
REMARK INTER + INTRA:          -9.497
REMARK INTER:                 -10.001
REMARK INTRA:                   0.504
REMARK UNBOUND:                -0.830
REMARK  Name = 
REMARK  8 active torsions:
REMARK  status: ('A' for Active; 'I' for Inactive)
REMARK    1  A    between atoms: C_1  and  N_2
REMARK    2  A    between atoms: C_4  and  C_5
REMARK    3  A    between atoms: C_5  and  N_6
REMARK    4  A    between atoms: N_6  and  C_7
REMARK    5  A    between atoms: C_9  and  C_10
REMARK    6  A    between atoms: C_10  and  N_11
REMARK    7  A    between atoms: C_15  and  C_16
REMARK    8  A    between atoms: C_23  and  O_24
REMARK                            x       y       z     vdW  Elec       q    Type
REMARK                         _______ _______ _______ _____ _____    ______ ____
ROOT
ATOM      1  C   UNL     1       2.184   5.005  20.501  0.00  0.00    +0.034 C 
ATOM      2  C   UNL     1       3.389   5.248  19.593  0.00  0.00    -0.031 C 
ATOM      3  C   UNL     1       3.788   3.828  19.182  0.00  0.00    -0.019 C 
ATOM      4  C   UNL     1       2.450   3.088  19.005  0.00  0.00    -0.021 C 
ATOM      5  C   UNL     1       1.392   3.953  19.699  0.00  0.00    +0.071 C 
ATOM      6  H   UNL     1       2.504   4.558  21.453  0.00  0.00    +0.049 HD
ATOM      7  H   UNL     1       3.109   5.846  18.716  0.00  0.00    +0.028 HD
ATOM      8  H   UNL     1       4.207   5.760  20.109  0.00  0.00    +0.028 HD
ATOM      9  H   UNL     1       4.316   3.367  20.027  0.00  0.00    +0.032 HD
ATOM     10  H   UNL     1       2.505   2.078  19.426  0.00  0.00    +0.029 HD
ATOM     11  H   UNL     1       2.186   2.982  17.946  0.00  0.00    +0.029 HD
ATOM     12  H   UNL     1       0.754   4.423  18.940  0.00  0.00    +0.061 HD
ENDROOT
BRANCH   3  13
ATOM     13  C   UNL     1       4.686   3.811  17.944  0.00  0.00    +0.028 C 
ATOM     14  H   UNL     1       5.024   2.793  17.716  0.00  0.00    +0.049 HD
ATOM     15  H   UNL     1       4.136   4.162  17.063  0.00  0.00    +0.049 HD
BRANCH  13  16
ATOM     16  N   UNL     1       5.868   4.642  18.085  0.00  0.00    -0.330 N 
ATOM     17  C   UNL     1       6.356   5.125  19.269  0.00  0.00    +0.025 A 
ATOM     18  C   UNL     1       7.488   5.822  18.931  0.00  0.00    +0.046 A 
ATOM     19  N   UNL     1       7.707   5.764  17.581  0.00  0.00    -0.236 NA
ATOM     20  C   UNL     1       6.722   5.045  17.078  0.00  0.00    +0.141 A 
ATOM     21  H   UNL     1       5.875   4.943  20.220  0.00  0.00    +0.082 HD
ATOM     22  H   UNL     1       8.161   6.360  19.588  0.00  0.00    +0.084 HD
BRANCH  20  23
ATOM     23  C   UNL     1       6.559   4.714  15.667  0.00  0.00    +0.017 A 
ATOM     24  C   UNL     1       7.558   5.050  14.746  0.00  0.00    -0.051 A 
ATOM     25  C   UNL     1       7.409   4.725  13.396  0.00  0.00    -0.061 A 
ATOM     26  C   UNL     1       6.259   4.068  12.961  0.00  0.00    -0.062 A 
ATOM     27  C   UNL     1       5.253   3.740  13.872  0.00  0.00    -0.061 A 
ATOM     28  C   UNL     1       5.400   4.069  15.220  0.00  0.00    -0.051 A 
ATOM     29  H   UNL     1       8.450   5.576  15.078  0.00  0.00    +0.062 HD
ATOM     30  H   UNL     1       8.185   4.995  12.684  0.00  0.00    +0.062 HD
ATOM     31  H   UNL     1       6.140   3.821  11.909  0.00  0.00    +0.062 HD
ATOM     32  H   UNL     1       4.351   3.239  13.529  0.00  0.00    +0.062 HD
ATOM     33  H   UNL     1       4.601   3.833  15.921  0.00  0.00    +0.062 HD
ENDBRANCH  20  23
ENDBRANCH  13  16
ENDBRANCH   3  13
BRANCH   1  34
ATOM     34  N   UNL     1       1.382   6.200  20.775  0.00  0.00    -0.305 NA
ATOM     35  H   UNL     1       1.333   6.344  21.785  0.00  0.00    +0.123 HD
BRANCH  34  36
ATOM     36  C   UNL     1       1.983   7.411  20.202  0.00  0.00    +0.042 C 
ATOM     37  H   UNL     1       3.023   7.529  20.530  0.00  0.00    +0.049 HD
ATOM     38  H   UNL     1       1.970   7.371  19.107  0.00  0.00    +0.049 HD
BRANCH  36  41
ATOM     39  N   UNL     1       0.031  10.059  21.725  0.00  0.00    -0.254 N 
ATOM     40  C   UNL     1       0.581   8.824  21.876  0.00  0.00    +0.050 A 
ATOM     41  C   UNL     1       1.191   8.583  20.663  0.00  0.00    +0.097 A 
ATOM     42  N   UNL     1       0.988   9.663  19.839  0.00  0.00    -0.133 NA
ATOM     43  N   UNL     1       0.270  10.561  20.502  0.00  0.00    -0.066 NA
ATOM     44  H   UNL     1       0.513   8.249  22.788  0.00  0.00    +0.085 HD
BRANCH  39  45
ATOM     45  C   UNL     1      -0.725  10.820  22.682  0.00  0.00    +0.032 C 
ATOM     46  H   UNL     1      -0.082  11.077  23.529  0.00  0.00    +0.047 HD
ATOM     47  H   UNL     1      -1.566  10.211  23.025  0.00  0.00    +0.047 HD
ATOM     48  H   UNL     1      -1.084  11.733  22.197  0.00  0.00    +0.047 HD
ENDBRANCH  39  45
ENDBRANCH  36  41
ENDBRANCH  34  36
ENDBRANCH   1  34
BRANCH   5  49
ATOM     49  O   UNL     1       0.572   3.159  20.541  0.00  0.00    -0.390 OA
ATOM     50  H   UNL     1       1.153   2.508  20.972  0.00  0.00    +0.210 HD
ENDBRANCH   5  49
TORSDOF 8
ENDMDL
MODEL 33
REMARK VINA RESULT:    -6.128      4.956      8.416
REMARK INTER + INTRA:          -9.466
REMARK INTER:                  -8.224
REMARK INTRA:                  -1.242
REMARK UNBOUND:                -0.830
REMARK  Name = 
REMARK  8 active torsions:
REMARK  status: ('A' for Active; 'I' for Inactive)
REMARK    1  A    between atoms: C_1  and  N_2
REMARK    2  A    between atoms: C_4  and  C_5
REMARK    3  A    between atoms: C_5  and  N_6
REMARK    4  A    between atoms: N_6  and  C_7
REMARK    5  A    between atoms: C_9  and  C_10
REMARK    6  A    between atoms: C_10  and  N_11
REMARK    7  A    between atoms: C_15  and  C_16
REMARK    8  A    between atoms: C_23  and  O_24
REMARK                            x       y       z     vdW  Elec       q    Type
REMARK                         _______ _______ _______ _____ _____    ______ ____
ROOT
ATOM      1  C   UNL     1       2.155   7.968  18.512  0.00  0.00    +0.034 C 
ATOM      2  C   UNL     1       1.739   9.303  17.894  0.00  0.00    -0.031 C 
ATOM      3  C   UNL     1       0.465   9.646  18.671  0.00  0.00    -0.019 C 
ATOM      4  C   UNL     1       0.754   9.179  20.109  0.00  0.00    -0.021 C 
ATOM      5  C   UNL     1       1.965   8.244  20.017  0.00  0.00    +0.071 C 
ATOM      6  H   UNL     1       1.464   7.171  18.206  0.00  0.00    +0.049 HD
ATOM      7  H   UNL     1       2.510  10.068  18.048  0.00  0.00    +0.028 HD
ATOM      8  H   UNL     1       1.544   9.225  16.820  0.00  0.00    +0.028 HD
ATOM      9  H   UNL     1      -0.350   9.025  18.276  0.00  0.00    +0.032 HD
ATOM     10  H   UNL     1      -0.123   8.684  20.541  0.00  0.00    +0.029 HD
ATOM     11  H   UNL     1       1.003  10.023  20.763  0.00  0.00    +0.029 HD
ATOM     12  H   UNL     1       2.842   8.744  20.448  0.00  0.00    +0.061 HD
ENDROOT
BRANCH   3  13
ATOM     13  C   UNL     1       0.091  11.123  18.552  0.00  0.00    +0.028 C 
ATOM     14  H   UNL     1       0.441  11.691  19.422  0.00  0.00    +0.049 HD
ATOM     15  H   UNL     1       0.567  11.574  17.673  0.00  0.00    +0.049 HD
BRANCH  13  16
ATOM     16  N   UNL     1      -1.340  11.343  18.436  0.00  0.00    -0.330 N 
ATOM     17  C   UNL     1      -2.121  10.918  17.394  0.00  0.00    +0.025 A 
ATOM     18  C   UNL     1      -3.394  11.312  17.718  0.00  0.00    +0.046 A 
ATOM     19  N   UNL     1      -3.409  11.951  18.929  0.00  0.00    -0.236 NA
ATOM     20  C   UNL     1      -2.161  11.961  19.357  0.00  0.00    +0.141 A 
ATOM     21  H   UNL     1      -1.722  10.392  16.538  0.00  0.00    +0.082 HD
ATOM     22  H   UNL     1      -4.302  11.169  17.146  0.00  0.00    +0.084 HD
BRANCH  20  23
ATOM     23  C   UNL     1      -1.710  12.533  20.620  0.00  0.00    +0.017 A 
ATOM     24  C   UNL     1      -2.034  11.908  21.830  0.00  0.00    -0.051 A 
ATOM     25  C   UNL     1      -1.595  12.447  23.041  0.00  0.00    -0.061 A 
ATOM     26  C   UNL     1      -0.835  13.616  23.047  0.00  0.00    -0.062 A 
ATOM     27  C   UNL     1      -0.518  14.252  21.845  0.00  0.00    -0.061 A 
ATOM     28  C   UNL     1      -0.961  13.715  20.635  0.00  0.00    -0.051 A 
ATOM     29  H   UNL     1      -2.638  11.004  21.832  0.00  0.00    +0.062 HD
ATOM     30  H   UNL     1      -1.855  11.962  23.978  0.00  0.00    +0.062 HD
ATOM     31  H   UNL     1      -0.499  14.041  23.990  0.00  0.00    +0.062 HD
ATOM     32  H   UNL     1       0.064  15.171  21.852  0.00  0.00    +0.062 HD
ATOM     33  H   UNL     1      -0.732  14.229  19.704  0.00  0.00    +0.062 HD
ENDBRANCH  20  23
ENDBRANCH  13  16
ENDBRANCH   3  13
BRANCH   1  34
ATOM     34  N   UNL     1       3.528   7.560  18.201  0.00  0.00    -0.305 NA
ATOM     35  H   UNL     1       4.022   7.361  19.072  0.00  0.00    +0.123 HD
BRANCH  34  36
ATOM     36  C   UNL     1       3.570   6.332  17.398  0.00  0.00    +0.042 C 
ATOM     37  H   UNL     1       3.023   6.457  16.456  0.00  0.00    +0.049 HD
ATOM     38  H   UNL     1       4.604   6.057  17.161  0.00  0.00    +0.049 HD
BRANCH  36  41
ATOM     39  N   UNL     1       1.778   3.592  18.955  0.00  0.00    -0.254 N 
ATOM     40  C   UNL     1       1.904   4.389  17.859  0.00  0.00    +0.050 A 
ATOM     41  C   UNL     1       2.938   5.240  18.187  0.00  0.00    +0.097 A 
ATOM     42  N   UNL     1       3.388   4.931  19.447  0.00  0.00    -0.133 NA
ATOM     43  N   UNL     1       2.664   3.920  19.910  0.00  0.00    -0.066 NA
ATOM     44  H   UNL     1       1.293   4.286  16.975  0.00  0.00    +0.085 HD
BRANCH  39  45
ATOM     45  C   UNL     1       0.854   2.511  19.168  0.00  0.00    +0.032 C 
ATOM     46  H   UNL     1      -0.155   2.840  18.903  0.00  0.00    +0.047 HD
ATOM     47  H   UNL     1       0.887   2.228  20.224  0.00  0.00    +0.047 HD
ATOM     48  H   UNL     1       1.150   1.670  18.535  0.00  0.00    +0.047 HD
ENDBRANCH  39  45
ENDBRANCH  36  41
ENDBRANCH  34  36
ENDBRANCH   1  34
BRANCH   5  49
ATOM     49  O   UNL     1       1.730   7.049  20.744  0.00  0.00    -0.390 OA
ATOM     50  H   UNL     1       1.390   7.309  21.617  0.00  0.00    +0.210 HD
ENDBRANCH   5  49
TORSDOF 8
ENDMDL
