MODEL 1
REMARK VINA RESULT:    -8.379      0.000      0.000
REMARK INTER + INTRA:         -12.655
REMARK INTER:                 -11.709
REMARK INTRA:                  -0.946
REMARK UNBOUND:                -0.602
REMARK  Name = 
REMARK  9 active torsions:
REMARK  status: ('A' for Active; 'I' for Inactive)
REMARK    1  A    between atoms: C_1  and  C_2
REMARK    2  A    between atoms: C_2  and  C_3
REMARK    3  A    between atoms: C_2  and  C_10
REMARK    4  A    between atoms: C_3  and  C_4
REMARK    5  A    between atoms: N_8  and  C_9
REMARK    6  A    between atoms: C_14  and  N_15
REMARK    7  A    between atoms: C_16  and  C_18
REMARK    8  A    between atoms: C_20  and  C_21
REMARK    9  A    between atoms: C_26  and  O_27
REMARK                            x       y       z     vdW  Elec       q    Type
REMARK                         _______ _______ _______ _____ _____    ______ ____
ROOT
ATOM      1  C   UNL     1      -0.143  10.403  19.896  0.00  0.00    -0.042 A 
ATOM      2  C   UNL     1      -0.369  10.720  21.240  0.00  0.00    -0.058 A 
ATOM      3  C   UNL     1       0.213   9.961  22.255  0.00  0.00    -0.060 A 
ATOM      4  C   UNL     1       1.019   8.867  21.937  0.00  0.00    -0.040 A 
ATOM      5  C   UNL     1       1.242   8.511  20.604  0.00  0.00    +0.034 A 
ATOM      6  C   UNL     1       0.663   9.286  19.594  0.00  0.00    -0.037 A 
ATOM      7  H   UNL     1      -1.003  11.559  21.520  0.00  0.00    +0.062 HD
ATOM      8  H   UNL     1       0.038  10.225  23.295  0.00  0.00    +0.062 HD
ATOM      9  H   UNL     1       1.459   8.295  22.750  0.00  0.00    +0.064 HD
ATOM     10  H   UNL     1       0.837   9.050  18.548  0.00  0.00    +0.064 HD
ENDROOT
BRANCH   5  11
ATOM     11  N   UNL     1       2.049   7.380  20.364  0.00  0.00    -0.280 N 
ATOM     12  C   UNL     1       1.673   6.046  20.445  0.00  0.00    +0.267 C 
ATOM     13  O   UNL     1       0.576   5.610  20.773  0.00  0.00    -0.268 OA
ATOM     14  H   UNL     1       2.997   7.577  20.065  0.00  0.00    +0.155 HD
BRANCH  12  15
ATOM     15  C   UNL     1       2.766   5.081  20.113  0.00  0.00    +0.126 A 
ATOM     16  C   UNL     1       3.894   5.517  19.440  0.00  0.00    -0.019 A 
ATOM     17  C   UNL     1       4.878   4.571  19.160  0.00  0.00    +0.040 A 
ATOM     18  C   UNL     1       4.700   3.237  19.519  0.00  0.00    -0.031 A 
ATOM     19  C   UNL     1       3.540   2.905  20.195  0.00  0.00    +0.029 A 
ATOM     20  N   UNL     1       2.576   3.795  20.505  0.00  0.00    -0.250 NA
ATOM     21  H   UNL     1       4.024   6.555  19.152  0.00  0.00    +0.065 HD
ATOM     22  H   UNL     1       5.427   2.475  19.266  0.00  0.00    +0.064 HD
ATOM     23  H   UNL     1       3.342   1.882  20.506  0.00  0.00    +0.083 HD
BRANCH  17  24
ATOM     24  C   UNL     1       6.067   5.010  18.402  0.00  0.00    +0.247 C 
ATOM     25  O   UNL     1       7.073   5.299  19.043  0.00  0.00    -0.270 OA
ATOM     26  N   UNL     1       6.002   5.055  17.025  0.00  0.00    -0.295 N 
ATOM     27  C   UNL     1       4.977   4.482  16.160  0.00  0.00    +0.017 C 
ATOM     28  C   UNL     1       5.670   4.291  14.820  0.00  0.00    -0.010 C 
ATOM     29  C   UNL     1       6.696   5.421  14.796  0.00  0.00    +0.072 C 
ATOM     30  C   UNL     1       7.161   5.468  16.251  0.00  0.00    +0.041 C 
ATOM     31  H   UNL     1       4.163   5.210  16.074  0.00  0.00    +0.047 HD
ATOM     32  H   UNL     1       4.588   3.545  16.568  0.00  0.00    +0.047 HD
ATOM     33  H   UNL     1       6.175   3.318  14.780  0.00  0.00    +0.031 HD
ATOM     34  H   UNL     1       4.977   4.331  13.974  0.00  0.00    +0.031 HD
ATOM     35  H   UNL     1       6.217   6.363  14.506  0.00  0.00    +0.061 HD
ATOM     36  H   UNL     1       7.985   4.769  16.441  0.00  0.00    +0.049 HD
ATOM     37  H   UNL     1       7.486   6.468  16.554  0.00  0.00    +0.049 HD
BRANCH  29  38
ATOM     38  O   UNL     1       7.738   5.119  13.886  0.00  0.00    -0.390 OA
ATOM     39  H   UNL     1       8.522   5.630  14.152  0.00  0.00    +0.210 HD
ENDBRANCH  29  38
ENDBRANCH  17  24
ENDBRANCH  12  15
ENDBRANCH   5  11
BRANCH   1  40
ATOM     40  C   UNL     1      -0.752  11.200  18.749  0.00  0.00    -0.012 C 
ATOM     41  H   UNL     1      -0.304  10.795  17.829  0.00  0.00    +0.035 HD
BRANCH  40  42
ATOM     42  C   UNL     1      -0.381  12.690  18.733  0.00  0.00    -0.058 C 
ATOM     43  H   UNL     1       0.319  12.918  19.545  0.00  0.00    +0.024 HD
ATOM     44  H   UNL     1       0.093  12.998  17.796  0.00  0.00    +0.024 HD
ATOM     45  H   UNL     1      -1.271  13.313  18.877  0.00  0.00    +0.024 HD
ENDBRANCH  40  42
BRANCH  40  46
ATOM     46  C   UNL     1      -2.274  10.976  18.622  0.00  0.00    +0.014 C 
ATOM     47  H   UNL     1      -2.557  10.112  19.237  0.00  0.00    +0.035 HD
ATOM     48  H   UNL     1      -2.812  11.827  19.054  0.00  0.00    +0.035 HD
BRANCH  46  49
ATOM     49  C   UNL     1      -2.742  10.719  17.228  0.00  0.00    +0.134 A 
ATOM     50  N   UNL     1      -2.074  10.055  16.303  0.00  0.00    -0.135 NA
ATOM     51  N   UNL     1      -2.827  10.038  15.154  0.00  0.00    -0.138 NA
ATOM     52  C   UNL     1      -3.942  10.681  15.402  0.00  0.00    +0.120 A 
ATOM     53  N   UNL     1      -3.940  11.118  16.692  0.00  0.00    -0.320 N 
ATOM     54  H   UNL     1      -4.751  10.846  14.706  0.00  0.00    +0.105 HD
BRANCH  53  55
ATOM     55  C   UNL     1      -5.009  11.848  17.317  0.00  0.00    +0.014 C 
ATOM     56  H   UNL     1      -4.801  12.916  17.221  0.00  0.00    +0.046 HD
ATOM     57  H   UNL     1      -5.947  11.610  16.809  0.00  0.00    +0.046 HD
ATOM     58  H   UNL     1      -5.096  11.565  18.367  0.00  0.00    +0.046 HD
ENDBRANCH  53  55
ENDBRANCH  46  49
ENDBRANCH  40  46
ENDBRANCH   1  40
TORSDOF 9
ENDMDL
MODEL 2
REMARK VINA RESULT:    -8.259      1.522      1.840
REMARK INTER + INTRA:         -12.482
REMARK INTER:                 -12.074
REMARK INTRA:                  -0.408
REMARK UNBOUND:                -0.602
REMARK  Name = 
REMARK  9 active torsions:
REMARK  status: ('A' for Active; 'I' for Inactive)
REMARK    1  A    between atoms: C_1  and  C_2
REMARK    2  A    between atoms: C_2  and  C_3
REMARK    3  A    between atoms: C_2  and  C_10
REMARK    4  A    between atoms: C_3  and  C_4
REMARK    5  A    between atoms: N_8  and  C_9
REMARK    6  A    between atoms: C_14  and  N_15
REMARK    7  A    between atoms: C_16  and  C_18
REMARK    8  A    between atoms: C_20  and  C_21
REMARK    9  A    between atoms: C_26  and  O_27
REMARK                            x       y       z     vdW  Elec       q    Type
REMARK                         _______ _______ _______ _____ _____    ______ ____
ROOT
ATOM      1  C   UNL     1      -0.914  11.213  20.867  0.00  0.00    -0.042 A 
ATOM      2  C   UNL     1      -1.187  11.414  22.226  0.00  0.00    -0.058 A 
ATOM      3  C   UNL     1      -0.804  10.464  23.173  0.00  0.00    -0.060 A 
ATOM      4  C   UNL     1      -0.153   9.297  22.772  0.00  0.00    -0.040 A 
ATOM      5  C   UNL     1       0.110   9.058  21.419  0.00  0.00    +0.034 A 
ATOM      6  C   UNL     1      -0.268  10.021  20.480  0.00  0.00    -0.037 A 
ATOM      7  H   UNL     1      -1.704  12.308  22.568  0.00  0.00    +0.062 HD
ATOM      8  H   UNL     1      -1.013  10.638  24.225  0.00  0.00    +0.062 HD
ATOM      9  H   UNL     1       0.133   8.577  23.534  0.00  0.00    +0.064 HD
ATOM     10  H   UNL     1      -0.055   9.876  19.424  0.00  0.00    +0.064 HD
ENDROOT
BRANCH   5  11
ATOM     11  N   UNL     1       0.750   7.845  21.092  0.00  0.00    -0.280 N 
ATOM     12  C   UNL     1       1.650   7.621  20.059  0.00  0.00    +0.267 C 
ATOM     13  O   UNL     1       2.024   8.433  19.221  0.00  0.00    -0.268 OA
ATOM     14  H   UNL     1       0.550   7.066  21.710  0.00  0.00    +0.155 HD
BRANCH  12  15
ATOM     15  C   UNL     1       2.163   6.218  19.988  0.00  0.00    +0.126 A 
ATOM     16  C   UNL     1       2.871   5.794  18.877  0.00  0.00    -0.019 A 
ATOM     17  C   UNL     1       3.323   4.477  18.869  0.00  0.00    +0.040 A 
ATOM     18  C   UNL     1       3.033   3.623  19.932  0.00  0.00    -0.031 A 
ATOM     19  C   UNL     1       2.325   4.146  20.999  0.00  0.00    +0.029 A 
ATOM     20  N   UNL     1       1.891   5.422  21.053  0.00  0.00    -0.250 NA
ATOM     21  H   UNL     1       3.084   6.459  18.046  0.00  0.00    +0.065 HD
ATOM     22  H   UNL     1       3.329   2.581  19.925  0.00  0.00    +0.064 HD
ATOM     23  H   UNL     1       2.070   3.534  21.860  0.00  0.00    +0.083 HD
BRANCH  17  24
ATOM     24  C   UNL     1       4.039   3.995  17.672  0.00  0.00    +0.247 C 
ATOM     25  O   UNL     1       3.493   3.128  16.995  0.00  0.00    -0.270 OA
ATOM     26  N   UNL     1       5.264   4.546  17.358  0.00  0.00    -0.295 N 
ATOM     27  C   UNL     1       5.871   5.750  17.916  0.00  0.00    +0.017 C 
ATOM     28  C   UNL     1       6.853   6.212  16.851  0.00  0.00    -0.010 C 
ATOM     29  C   UNL     1       7.285   4.907  16.188  0.00  0.00    +0.072 C 
ATOM     30  C   UNL     1       5.985   4.103  16.177  0.00  0.00    +0.041 C 
ATOM     31  H   UNL     1       6.399   5.467  18.832  0.00  0.00    +0.047 HD
ATOM     32  H   UNL     1       5.116   6.506  18.148  0.00  0.00    +0.047 HD
ATOM     33  H   UNL     1       6.355   6.863  16.121  0.00  0.00    +0.031 HD
ATOM     34  H   UNL     1       7.694   6.775  17.265  0.00  0.00    +0.031 HD
ATOM     35  H   UNL     1       8.051   4.409  16.793  0.00  0.00    +0.061 HD
ATOM     36  H   UNL     1       5.379   4.315  15.288  0.00  0.00    +0.049 HD
ATOM     37  H   UNL     1       6.161   3.024  16.220  0.00  0.00    +0.049 HD
BRANCH  29  38
ATOM     38  O   UNL     1       7.796   5.161  14.892  0.00  0.00    -0.390 OA
ATOM     39  H   UNL     1       8.688   5.538  14.993  0.00  0.00    +0.210 HD
ENDBRANCH  29  38
ENDBRANCH  17  24
ENDBRANCH  12  15
ENDBRANCH   5  11
BRANCH   1  40
ATOM     40  C   UNL     1      -1.307  12.219  19.792  0.00  0.00    -0.012 C 
ATOM     41  H   UNL     1      -0.637  12.028  18.940  0.00  0.00    +0.035 HD
BRANCH  40  42
ATOM     42  C   UNL     1      -1.052  13.687  20.160  0.00  0.00    -0.058 C 
ATOM     43  H   UNL     1      -1.903  14.095  20.717  0.00  0.00    +0.024 HD
ATOM     44  H   UNL     1      -0.160  13.819  20.779  0.00  0.00    +0.024 HD
ATOM     45  H   UNL     1      -0.924  14.296  19.258  0.00  0.00    +0.024 HD
ENDBRANCH  40  42
BRANCH  40  46
ATOM     46  C   UNL     1      -2.742  11.988  19.270  0.00  0.00    +0.014 C 
ATOM     47  H   UNL     1      -3.280  11.353  19.986  0.00  0.00    +0.035 HD
ATOM     48  H   UNL     1      -3.289  12.937  19.257  0.00  0.00    +0.035 HD
BRANCH  46  49
ATOM     49  C   UNL     1      -2.810  11.329  17.933  0.00  0.00    +0.134 A 
ATOM     50  N   UNL     1      -1.855  10.599  17.386  0.00  0.00    -0.135 NA
ATOM     51  N   UNL     1      -2.287  10.176  16.153  0.00  0.00    -0.138 NA
ATOM     52  C   UNL     1      -3.498  10.645  15.975  0.00  0.00    +0.120 A 
ATOM     53  N   UNL     1      -3.874  11.366  17.068  0.00  0.00    -0.320 N 
ATOM     54  H   UNL     1      -4.120  10.491  15.105  0.00  0.00    +0.105 HD
BRANCH  53  55
ATOM     55  C   UNL     1      -5.146  12.016  17.230  0.00  0.00    +0.014 C 
ATOM     56  H   UNL     1      -4.982  12.981  17.714  0.00  0.00    +0.046 HD
ATOM     57  H   UNL     1      -5.594  12.172  16.245  0.00  0.00    +0.046 HD
ATOM     58  H   UNL     1      -5.815  11.393  17.826  0.00  0.00    +0.046 HD
ENDBRANCH  53  55
ENDBRANCH  46  49
ENDBRANCH  40  46
ENDBRANCH   1  40
TORSDOF 9
ENDMDL
MODEL 3
REMARK VINA RESULT:    -8.142      2.786      9.211
REMARK INTER + INTRA:         -12.314
REMARK INTER:                 -11.637
REMARK INTRA:                  -0.678
REMARK UNBOUND:                -0.602
REMARK  Name = 
REMARK  9 active torsions:
REMARK  status: ('A' for Active; 'I' for Inactive)
REMARK    1  A    between atoms: C_1  and  C_2
REMARK    2  A    between atoms: C_2  and  C_3
REMARK    3  A    between atoms: C_2  and  C_10
REMARK    4  A    between atoms: C_3  and  C_4
REMARK    5  A    between atoms: N_8  and  C_9
REMARK    6  A    between atoms: C_14  and  N_15
REMARK    7  A    between atoms: C_16  and  C_18
REMARK    8  A    between atoms: C_20  and  C_21
REMARK    9  A    between atoms: C_26  and  O_27
REMARK                            x       y       z     vdW  Elec       q    Type
REMARK                         _______ _______ _______ _____ _____    ______ ____
ROOT
ATOM      1  C   UNL     1       4.809   4.442  17.105  0.00  0.00    -0.042 A 
ATOM      2  C   UNL     1       3.973   3.330  16.941  0.00  0.00    -0.058 A 
ATOM      3  C   UNL     1       2.647   3.372  17.370  0.00  0.00    -0.060 A 
ATOM      4  C   UNL     1       2.142   4.522  17.977  0.00  0.00    -0.040 A 
ATOM      5  C   UNL     1       2.960   5.638  18.177  0.00  0.00    +0.034 A 
ATOM      6  C   UNL     1       4.285   5.590  17.734  0.00  0.00    -0.037 A 
ATOM      7  H   UNL     1       4.341   2.414  16.483  0.00  0.00    +0.062 HD
ATOM      8  H   UNL     1       2.006   2.505  17.227  0.00  0.00    +0.062 HD
ATOM      9  H   UNL     1       1.104   4.524  18.300  0.00  0.00    +0.064 HD
ATOM     10  H   UNL     1       4.939   6.450  17.852  0.00  0.00    +0.064 HD
ENDROOT
BRANCH   5  11
ATOM     11  N   UNL     1       2.384   6.754  18.819  0.00  0.00    -0.280 N 
ATOM     12  C   UNL     1       1.961   6.839  20.139  0.00  0.00    +0.267 C 
ATOM     13  O   UNL     1       1.981   5.945  20.976  0.00  0.00    -0.268 OA
ATOM     14  H   UNL     1       2.309   7.591  18.253  0.00  0.00    +0.155 HD
BRANCH  12  15
ATOM     15  C   UNL     1       1.405   8.174  20.518  0.00  0.00    +0.126 A 
ATOM     16  C   UNL     1       0.957   9.042  19.536  0.00  0.00    -0.019 A 
ATOM     17  C   UNL     1       0.450  10.271  19.951  0.00  0.00    +0.040 A 
ATOM     18  C   UNL     1       0.435  10.610  21.303  0.00  0.00    -0.031 A 
ATOM     19  C   UNL     1       0.898   9.670  22.205  0.00  0.00    +0.029 A 
ATOM     20  N   UNL     1       1.375   8.461  21.844  0.00  0.00    -0.250 NA
ATOM     21  H   UNL     1       0.982   8.778  18.484  0.00  0.00    +0.065 HD
ATOM     22  H   UNL     1       0.094  11.580  21.644  0.00  0.00    +0.064 HD
ATOM     23  H   UNL     1       0.909   9.872  23.273  0.00  0.00    +0.083 HD
BRANCH  17  24
ATOM     24  C   UNL     1       0.012  11.227  18.915  0.00  0.00    +0.247 C 
ATOM     25  O   UNL     1       0.739  12.188  18.687  0.00  0.00    -0.270 OA
ATOM     26  N   UNL     1      -1.170  10.989  18.244  0.00  0.00    -0.295 N 
ATOM     27  C   UNL     1      -1.960   9.763  18.232  0.00  0.00    +0.017 C 
ATOM     28  C   UNL     1      -2.755   9.833  16.937  0.00  0.00    -0.010 C 
ATOM     29  C   UNL     1      -2.954  11.332  16.732  0.00  0.00    +0.072 C 
ATOM     30  C   UNL     1      -1.619  11.905  17.208  0.00  0.00    +0.041 C 
ATOM     31  H   UNL     1      -2.629   9.785  19.098  0.00  0.00    +0.047 HD
ATOM     32  H   UNL     1      -1.322   8.877  18.285  0.00  0.00    +0.047 HD
ATOM     33  H   UNL     1      -2.178   9.409  16.105  0.00  0.00    +0.031 HD
ATOM     34  H   UNL     1      -3.699   9.284  16.989  0.00  0.00    +0.031 HD
ATOM     35  H   UNL     1      -3.781  11.694  17.354  0.00  0.00    +0.061 HD
ATOM     36  H   UNL     1      -0.874  11.929  16.404  0.00  0.00    +0.049 HD
ATOM     37  H   UNL     1      -1.719  12.917  17.610  0.00  0.00    +0.049 HD
BRANCH  29  38
ATOM     38  O   UNL     1      -3.229  11.609  15.372  0.00  0.00    -0.390 OA
ATOM     39  H   UNL     1      -2.671  11.024  14.830  0.00  0.00    +0.210 HD
ENDBRANCH  29  38
ENDBRANCH  17  24
ENDBRANCH  12  15
ENDBRANCH   5  11
BRANCH   1  40
ATOM     40  C   UNL     1       6.264   4.451  16.653  0.00  0.00    -0.012 C 
ATOM     41  H   UNL     1       6.490   3.419  16.344  0.00  0.00    +0.035 HD
BRANCH  40  42
ATOM     42  C   UNL     1       7.280   4.751  17.763  0.00  0.00    -0.058 C 
ATOM     43  H   UNL     1       7.306   5.825  17.978  0.00  0.00    +0.024 HD
ATOM     44  H   UNL     1       7.048   4.234  18.700  0.00  0.00    +0.024 HD
ATOM     45  H   UNL     1       8.289   4.450  17.458  0.00  0.00    +0.024 HD
ENDBRANCH  40  42
BRANCH  40  46
ATOM     46  C   UNL     1       6.485   5.332  15.405  0.00  0.00    +0.014 C 
ATOM     47  H   UNL     1       5.712   6.110  15.380  0.00  0.00    +0.035 HD
ATOM     48  H   UNL     1       7.435   5.871  15.494  0.00  0.00    +0.035 HD
BRANCH  46  49
ATOM     49  C   UNL     1       6.428   4.589  14.112  0.00  0.00    +0.134 A 
ATOM     50  N   UNL     1       5.541   3.665  13.794  0.00  0.00    -0.135 NA
ATOM     51  N   UNL     1       5.822   3.212  12.528  0.00  0.00    -0.138 NA
ATOM     52  C   UNL     1       6.867   3.873  12.094  0.00  0.00    +0.120 A 
ATOM     53  N   UNL     1       7.278   4.756  13.047  0.00  0.00    -0.320 N 
ATOM     54  H   UNL     1       7.342   3.754  11.132  0.00  0.00    +0.105 HD
BRANCH  53  55
ATOM     55  C   UNL     1       8.388   5.659  12.912  0.00  0.00    +0.014 C 
ATOM     56  H   UNL     1       8.041   6.670  13.136  0.00  0.00    +0.046 HD
ATOM     57  H   UNL     1       9.167   5.373  13.623  0.00  0.00    +0.046 HD
ATOM     58  H   UNL     1       8.796   5.606  11.901  0.00  0.00    +0.046 HD
ENDBRANCH  53  55
ENDBRANCH  46  49
ENDBRANCH  40  46
ENDBRANCH   1  40
TORSDOF 9
ENDMDL
MODEL 4
REMARK VINA RESULT:    -8.039      2.695      9.168
REMARK INTER + INTRA:         -12.165
REMARK INTER:                 -11.410
REMARK INTRA:                  -0.756
REMARK UNBOUND:                -0.602
REMARK  Name = 
REMARK  9 active torsions:
REMARK  status: ('A' for Active; 'I' for Inactive)
REMARK    1  A    between atoms: C_1  and  C_2
REMARK    2  A    between atoms: C_2  and  C_3
REMARK    3  A    between atoms: C_2  and  C_10
REMARK    4  A    between atoms: C_3  and  C_4
REMARK    5  A    between atoms: N_8  and  C_9
REMARK    6  A    between atoms: C_14  and  N_15
REMARK    7  A    between atoms: C_16  and  C_18
REMARK    8  A    between atoms: C_20  and  C_21
REMARK    9  A    between atoms: C_26  and  O_27
REMARK                            x       y       z     vdW  Elec       q    Type
REMARK                         _______ _______ _______ _____ _____    ______ ____
ROOT
ATOM      1  C   UNL     1       4.546   4.762  16.765  0.00  0.00    -0.042 A 
ATOM      2  C   UNL     1       3.826   3.562  16.785  0.00  0.00    -0.058 A 
ATOM      3  C   UNL     1       2.597   3.484  17.439  0.00  0.00    -0.060 A 
ATOM      4  C   UNL     1       2.078   4.603  18.091  0.00  0.00    -0.040 A 
ATOM      5  C   UNL     1       2.787   5.808  18.110  0.00  0.00    +0.034 A 
ATOM      6  C   UNL     1       4.012   5.878  17.442  0.00  0.00    -0.037 A 
ATOM      7  H   UNL     1       4.211   2.669  16.296  0.00  0.00    +0.062 HD
ATOM      8  H   UNL     1       2.043   2.548  17.437  0.00  0.00    +0.062 HD
ATOM      9  H   UNL     1       1.117   4.510  18.591  0.00  0.00    +0.064 HD
ATOM     10  H   UNL     1       4.575   6.807  17.418  0.00  0.00    +0.064 HD
ENDROOT
BRANCH   5  11
ATOM     11  N   UNL     1       2.207   6.886  18.810  0.00  0.00    -0.280 N 
ATOM     12  C   UNL     1       1.941   6.959  20.171  0.00  0.00    +0.267 C 
ATOM     13  O   UNL     1       2.131   6.083  21.005  0.00  0.00    -0.268 OA
ATOM     14  H   UNL     1       2.000   7.706  18.252  0.00  0.00    +0.155 HD
BRANCH  12  15
ATOM     15  C   UNL     1       1.332   8.254  20.606  0.00  0.00    +0.126 A 
ATOM     16  C   UNL     1       0.860   9.149  19.662  0.00  0.00    -0.019 A 
ATOM     17  C   UNL     1       0.304  10.338  20.128  0.00  0.00    +0.040 A 
ATOM     18  C   UNL     1       0.266  10.613  21.494  0.00  0.00    -0.031 A 
ATOM     19  C   UNL     1       0.757   9.650  22.355  0.00  0.00    +0.029 A 
ATOM     20  N   UNL     1       1.281   8.478  21.944  0.00  0.00    -0.250 NA
ATOM     21  H   UNL     1       0.903   8.936  18.598  0.00  0.00    +0.065 HD
ATOM     22  H   UNL     1      -0.114  11.553  21.876  0.00  0.00    +0.064 HD
ATOM     23  H   UNL     1       0.752   9.802  23.432  0.00  0.00    +0.083 HD
BRANCH  17  24
ATOM     24  C   UNL     1      -0.162  11.325  19.133  0.00  0.00    +0.247 C 
ATOM     25  O   UNL     1       0.489  12.358  19.012  0.00  0.00    -0.270 OA
ATOM     26  N   UNL     1      -1.281  11.036  18.379  0.00  0.00    -0.295 N 
ATOM     27  C   UNL     1      -1.957   9.751  18.240  0.00  0.00    +0.017 C 
ATOM     28  C   UNL     1      -2.685   9.845  16.908  0.00  0.00    -0.010 C 
ATOM     29  C   UNL     1      -3.005  11.332  16.791  0.00  0.00    +0.072 C 
ATOM     30  C   UNL     1      -1.754  11.981  17.381  0.00  0.00    +0.041 C 
ATOM     31  H   UNL     1      -2.671   9.655  19.065  0.00  0.00    +0.047 HD
ATOM     32  H   UNL     1      -1.247   8.921  18.272  0.00  0.00    +0.047 HD
ATOM     33  H   UNL     1      -2.030   9.531  16.086  0.00  0.00    +0.031 HD
ATOM     34  H   UNL     1      -3.579   9.216  16.868  0.00  0.00    +0.031 HD
ATOM     35  H   UNL     1      -3.893  11.578  17.386  0.00  0.00    +0.061 HD
ATOM     36  H   UNL     1      -0.972  12.125  16.626  0.00  0.00    +0.049 HD
ATOM     37  H   UNL     1      -1.963  12.951  17.843  0.00  0.00    +0.049 HD
BRANCH  29  38
ATOM     38  O   UNL     1      -3.231  11.681  15.438  0.00  0.00    -0.390 OA
ATOM     39  H   UNL     1      -2.801  11.008  14.881  0.00  0.00    +0.210 HD
ENDBRANCH  29  38
ENDBRANCH  17  24
ENDBRANCH  12  15
ENDBRANCH   5  11
BRANCH   1  40
ATOM     40  C   UNL     1       5.892   4.903  16.064  0.00  0.00    -0.012 C 
ATOM     41  H   UNL     1       5.900   5.913  15.626  0.00  0.00    +0.035 HD
BRANCH  40  42
ATOM     42  C   UNL     1       6.095   3.964  14.867  0.00  0.00    -0.058 C 
ATOM     43  H   UNL     1       5.887   4.490  13.929  0.00  0.00    +0.024 HD
ATOM     44  H   UNL     1       7.115   3.572  14.805  0.00  0.00    +0.024 HD
ATOM     45  H   UNL     1       5.413   3.108  14.926  0.00  0.00    +0.024 HD
ENDBRANCH  40  42
BRANCH  40  46
ATOM     46  C   UNL     1       7.077   4.854  17.054  0.00  0.00    +0.014 C 
ATOM     47  H   UNL     1       6.784   4.256  17.926  0.00  0.00    +0.035 HD
ATOM     48  H   UNL     1       7.916   4.314  16.601  0.00  0.00    +0.035 HD
BRANCH  46  49
ATOM     49  C   UNL     1       7.522   6.191  17.543  0.00  0.00    +0.134 A 
ATOM     50  N   UNL     1       7.515   7.309  16.841  0.00  0.00    -0.135 NA
ATOM     51  N   UNL     1       8.004   8.320  17.632  0.00  0.00    -0.138 NA
ATOM     52  C   UNL     1       8.289   7.804  18.802  0.00  0.00    +0.120 A 
ATOM     53  N   UNL     1       7.995   6.475  18.800  0.00  0.00    -0.320 N 
ATOM     54  H   UNL     1       8.694   8.336  19.651  0.00  0.00    +0.105 HD
BRANCH  53  55
ATOM     55  C   UNL     1       8.167   5.589  19.919  0.00  0.00    +0.014 C 
ATOM     56  H   UNL     1       7.302   5.692  20.578  0.00  0.00    +0.046 HD
ATOM     57  H   UNL     1       8.228   4.561  19.553  0.00  0.00    +0.046 HD
ATOM     58  H   UNL     1       9.089   5.828  20.451  0.00  0.00    +0.046 HD
ENDBRANCH  53  55
ENDBRANCH  46  49
ENDBRANCH  40  46
ENDBRANCH   1  40
TORSDOF 9
ENDMDL
MODEL 5
REMARK VINA RESULT:    -7.975      1.140      1.431
REMARK INTER + INTRA:         -12.074
REMARK INTER:                 -11.144
REMARK INTRA:                  -0.929
REMARK UNBOUND:                -0.602
REMARK  Name = 
REMARK  9 active torsions:
REMARK  status: ('A' for Active; 'I' for Inactive)
REMARK    1  A    between atoms: C_1  and  C_2
REMARK    2  A    between atoms: C_2  and  C_3
REMARK    3  A    between atoms: C_2  and  C_10
REMARK    4  A    between atoms: C_3  and  C_4
REMARK    5  A    between atoms: N_8  and  C_9
REMARK    6  A    between atoms: C_14  and  N_15
REMARK    7  A    between atoms: C_16  and  C_18
REMARK    8  A    between atoms: C_20  and  C_21
REMARK    9  A    between atoms: C_26  and  O_27
REMARK                            x       y       z     vdW  Elec       q    Type
REMARK                         _______ _______ _______ _____ _____    ______ ____
ROOT
ATOM      1  C   UNL     1       0.080  10.469  20.296  0.00  0.00    -0.042 A 
ATOM      2  C   UNL     1      -0.394  10.547  21.611  0.00  0.00    -0.058 A 
ATOM      3  C   UNL     1      -0.032   9.585  22.553  0.00  0.00    -0.060 A 
ATOM      4  C   UNL     1       0.801   8.527  22.189  0.00  0.00    -0.040 A 
ATOM      5  C   UNL     1       1.269   8.408  20.877  0.00  0.00    +0.034 A 
ATOM      6  C   UNL     1       0.909   9.384  19.943  0.00  0.00    -0.037 A 
ATOM      7  H   UNL     1      -1.056  11.354  21.922  0.00  0.00    +0.062 HD
ATOM      8  H   UNL     1      -0.399   9.664  23.573  0.00  0.00    +0.062 HD
ATOM      9  H   UNL     1       1.066   7.793  22.947  0.00  0.00    +0.064 HD
ATOM     10  H   UNL     1       1.277   9.334  18.922  0.00  0.00    +0.064 HD
ENDROOT
BRANCH   5  11
ATOM     11  N   UNL     1       2.087   7.298  20.582  0.00  0.00    -0.280 N 
ATOM     12  C   UNL     1       1.694   5.971  20.467  0.00  0.00    +0.267 C 
ATOM     13  O   UNL     1       0.568   5.521  20.636  0.00  0.00    -0.268 OA
ATOM     14  H   UNL     1       3.061   7.511  20.399  0.00  0.00    +0.155 HD
BRANCH  12  15
ATOM     15  C   UNL     1       2.807   5.032  20.128  0.00  0.00    +0.126 A 
ATOM     16  C   UNL     1       3.936   5.500  19.479  0.00  0.00    -0.019 A 
ATOM     17  C   UNL     1       4.939   4.577  19.190  0.00  0.00    +0.040 A 
ATOM     18  C   UNL     1       4.777   3.232  19.517  0.00  0.00    -0.031 A 
ATOM     19  C   UNL     1       3.615   2.867  20.170  0.00  0.00    +0.029 A 
ATOM     20  N   UNL     1       2.633   3.735  20.488  0.00  0.00    -0.250 NA
ATOM     21  H   UNL     1       4.052   6.547  19.215  0.00  0.00    +0.065 HD
ATOM     22  H   UNL     1       5.520   2.488  19.255  0.00  0.00    +0.064 HD
ATOM     23  H   UNL     1       3.430   1.834  20.456  0.00  0.00    +0.083 HD
BRANCH  17  24
ATOM     24  C   UNL     1       6.129   5.051  18.456  0.00  0.00    +0.247 C 
ATOM     25  O   UNL     1       7.108   5.383  19.118  0.00  0.00    -0.270 OA
ATOM     26  N   UNL     1       6.097   5.081  17.077  0.00  0.00    -0.295 N 
ATOM     27  C   UNL     1       5.115   4.462  16.193  0.00  0.00    +0.017 C 
ATOM     28  C   UNL     1       5.848   4.284  14.873  0.00  0.00    -0.010 C 
ATOM     29  C   UNL     1       6.832   5.450  14.862  0.00  0.00    +0.072 C 
ATOM     30  C   UNL     1       7.259   5.528  16.328  0.00  0.00    +0.041 C 
ATOM     31  H   UNL     1       4.278   5.158  16.080  0.00  0.00    +0.047 HD
ATOM     32  H   UNL     1       4.751   3.516  16.602  0.00  0.00    +0.047 HD
ATOM     33  H   UNL     1       6.389   3.329  14.856  0.00  0.00    +0.031 HD
ATOM     34  H   UNL     1       5.176   4.290  14.010  0.00  0.00    +0.031 HD
ATOM     35  H   UNL     1       6.327   6.371  14.550  0.00  0.00    +0.061 HD
ATOM     36  H   UNL     1       8.102   4.862  16.545  0.00  0.00    +0.049 HD
ATOM     37  H   UNL     1       7.539   6.542  16.628  0.00  0.00    +0.049 HD
BRANCH  29  38
ATOM     38  O   UNL     1       7.907   5.177  13.981  0.00  0.00    -0.390 OA
ATOM     39  H   UNL     1       7.898   4.223  13.788  0.00  0.00    +0.210 HD
ENDBRANCH  29  38
ENDBRANCH  17  24
ENDBRANCH  12  15
ENDBRANCH   5  11
BRANCH   1  40
ATOM     40  C   UNL     1      -0.283  11.493  19.227  0.00  0.00    -0.012 C 
ATOM     41  H   UNL     1      -0.653  10.915  18.368  0.00  0.00    +0.035 HD
BRANCH  40  42
ATOM     42  C   UNL     1       0.905  12.291  18.671  0.00  0.00    -0.058 C 
ATOM     43  H   UNL     1       1.648  12.469  19.457  0.00  0.00    +0.024 HD
ATOM     44  H   UNL     1       1.414  11.775  17.851  0.00  0.00    +0.024 HD
ATOM     45  H   UNL     1       0.577  13.267  18.298  0.00  0.00    +0.024 HD
ENDBRANCH  40  42
BRANCH  40  46
ATOM     46  C   UNL     1      -1.447  12.409  19.664  0.00  0.00    +0.014 C 
ATOM     47  H   UNL     1      -1.549  12.354  20.755  0.00  0.00    +0.035 HD
ATOM     48  H   UNL     1      -1.199  13.454  19.449  0.00  0.00    +0.035 HD
BRANCH  46  49
ATOM     49  C   UNL     1      -2.765  12.052  19.062  0.00  0.00    +0.134 A 
ATOM     50  N   UNL     1      -2.942  11.409  17.923  0.00  0.00    -0.135 NA
ATOM     51  N   UNL     1      -4.292  11.278  17.705  0.00  0.00    -0.138 NA
ATOM     52  C   UNL     1      -4.912  11.832  18.718  0.00  0.00    +0.120 A 
ATOM     53  N   UNL     1      -3.998  12.323  19.600  0.00  0.00    -0.320 N 
ATOM     54  H   UNL     1      -5.982  11.897  18.851  0.00  0.00    +0.105 HD
BRANCH  53  55
ATOM     55  C   UNL     1      -4.317  12.986  20.835  0.00  0.00    +0.014 C 
ATOM     56  H   UNL     1      -5.320  13.410  20.752  0.00  0.00    +0.046 HD
ATOM     57  H   UNL     1      -4.295  12.254  21.647  0.00  0.00    +0.046 HD
ATOM     58  H   UNL     1      -3.584  13.766  21.045  0.00  0.00    +0.046 HD
ENDBRANCH  53  55
ENDBRANCH  46  49
ENDBRANCH  40  46
ENDBRANCH   1  40
TORSDOF 9
ENDMDL
MODEL 6
REMARK VINA RESULT:    -7.951      1.578      2.191
REMARK INTER + INTRA:         -12.039
REMARK INTER:                 -11.202
REMARK INTRA:                  -0.837
REMARK UNBOUND:                -0.602
REMARK  Name = 
REMARK  9 active torsions:
REMARK  status: ('A' for Active; 'I' for Inactive)
REMARK    1  A    between atoms: C_1  and  C_2
REMARK    2  A    between atoms: C_2  and  C_3
REMARK    3  A    between atoms: C_2  and  C_10
REMARK    4  A    between atoms: C_3  and  C_4
REMARK    5  A    between atoms: N_8  and  C_9
REMARK    6  A    between atoms: C_14  and  N_15
REMARK    7  A    between atoms: C_16  and  C_18
REMARK    8  A    between atoms: C_20  and  C_21
REMARK    9  A    between atoms: C_26  and  O_27
REMARK                            x       y       z     vdW  Elec       q    Type
REMARK                         _______ _______ _______ _____ _____    ______ ____
ROOT
ATOM      1  C   UNL     1      -0.380  11.684  18.742  0.00  0.00    -0.042 A 
ATOM      2  C   UNL     1       0.646  12.611  18.525  0.00  0.00    -0.058 A 
ATOM      3  C   UNL     1       1.973  12.192  18.441  0.00  0.00    -0.060 A 
ATOM      4  C   UNL     1       2.293  10.842  18.585  0.00  0.00    -0.040 A 
ATOM      5  C   UNL     1       1.292   9.896  18.829  0.00  0.00    +0.034 A 
ATOM      6  C   UNL     1      -0.036  10.325  18.900  0.00  0.00    -0.037 A 
ATOM      7  H   UNL     1       0.430  13.673  18.421  0.00  0.00    +0.062 HD
ATOM      8  H   UNL     1       2.759  12.922  18.261  0.00  0.00    +0.062 HD
ATOM      9  H   UNL     1       3.337  10.547  18.514  0.00  0.00    +0.064 HD
ATOM     10  H   UNL     1      -0.839   9.611  19.063  0.00  0.00    +0.064 HD
ENDROOT
BRANCH   5  11
ATOM     11  N   UNL     1       1.697   8.555  18.986  0.00  0.00    -0.280 N 
ATOM     12  C   UNL     1       1.686   7.804  20.154  0.00  0.00    +0.267 C 
ATOM     13  O   UNL     1       1.354   8.186  21.270  0.00  0.00    -0.268 OA
ATOM     14  H   UNL     1       1.992   8.086  18.137  0.00  0.00    +0.155 HD
BRANCH  12  15
ATOM     15  C   UNL     1       2.167   6.399  19.982  0.00  0.00    +0.126 A 
ATOM     16  C   UNL     1       2.770   6.013  18.798  0.00  0.00    -0.019 A 
ATOM     17  C   UNL     1       3.197   4.691  18.698  0.00  0.00    +0.040 A 
ATOM     18  C   UNL     1       2.984   3.797  19.746  0.00  0.00    -0.031 A 
ATOM     19  C   UNL     1       2.379   4.284  20.890  0.00  0.00    +0.029 A 
ATOM     20  N   UNL     1       1.973   5.562  21.033  0.00  0.00    -0.250 NA
ATOM     21  H   UNL     1       2.923   6.709  17.980  0.00  0.00    +0.065 HD
ATOM     22  H   UNL     1       3.261   2.752  19.670  0.00  0.00    +0.064 HD
ATOM     23  H   UNL     1       2.188   3.639  21.744  0.00  0.00    +0.083 HD
BRANCH  17  24
ATOM     24  C   UNL     1       3.800   4.250  17.424  0.00  0.00    +0.247 C 
ATOM     25  O   UNL     1       3.107   3.570  16.674  0.00  0.00    -0.270 OA
ATOM     26  N   UNL     1       5.092   4.634  17.128  0.00  0.00    -0.295 N 
ATOM     27  C   UNL     1       5.898   5.650  17.798  0.00  0.00    +0.017 C 
ATOM     28  C   UNL     1       6.919   6.076  16.755  0.00  0.00    -0.010 C 
ATOM     29  C   UNL     1       7.120   4.810  15.927  0.00  0.00    +0.072 C 
ATOM     30  C   UNL     1       5.707   4.229  15.875  0.00  0.00    +0.041 C 
ATOM     31  H   UNL     1       6.392   5.178  18.653  0.00  0.00    +0.047 HD
ATOM     32  H   UNL     1       5.281   6.483  18.146  0.00  0.00    +0.047 HD
ATOM     33  H   UNL     1       6.519   6.881  16.126  0.00  0.00    +0.031 HD
ATOM     34  H   UNL     1       7.849   6.444  17.197  0.00  0.00    +0.031 HD
ATOM     35  H   UNL     1       7.807   4.126  16.439  0.00  0.00    +0.061 HD
ATOM     36  H   UNL     1       5.125   4.640  15.042  0.00  0.00    +0.049 HD
ATOM     37  H   UNL     1       5.706   3.138  15.785  0.00  0.00    +0.049 HD
BRANCH  29  38
ATOM     38  O   UNL     1       7.638   5.134  14.651  0.00  0.00    -0.390 OA
ATOM     39  H   UNL     1       7.728   4.306  14.147  0.00  0.00    +0.210 HD
ENDBRANCH  29  38
ENDBRANCH  17  24
ENDBRANCH  12  15
ENDBRANCH   5  11
BRANCH   1  40
ATOM     40  C   UNL     1      -1.847  12.087  18.840  0.00  0.00    -0.012 C 
ATOM     41  H   UNL     1      -2.009  12.829  18.044  0.00  0.00    +0.035 HD
BRANCH  40  42
ATOM     42  C   UNL     1      -2.227  12.821  20.133  0.00  0.00    -0.058 C 
ATOM     43  H   UNL     1      -2.633  12.117  20.868  0.00  0.00    +0.024 HD
ATOM     44  H   UNL     1      -1.375  13.326  20.599  0.00  0.00    +0.024 HD
ATOM     45  H   UNL     1      -2.996  13.578  19.938  0.00  0.00    +0.024 HD
ENDBRANCH  40  42
BRANCH  40  46
ATOM     46  C   UNL     1      -2.800  10.911  18.534  0.00  0.00    +0.014 C 
ATOM     47  H   UNL     1      -2.368   9.990  18.948  0.00  0.00    +0.035 HD
ATOM     48  H   UNL     1      -3.746  11.052  19.068  0.00  0.00    +0.035 HD
BRANCH  46  49
ATOM     49  C   UNL     1      -3.050  10.687  17.080  0.00  0.00    +0.134 A 
ATOM     50  N   UNL     1      -2.318   9.933  16.281  0.00  0.00    -0.135 NA
ATOM     51  N   UNL     1      -2.860   9.986  15.020  0.00  0.00    -0.138 NA
ATOM     52  C   UNL     1      -3.916  10.760  15.076  0.00  0.00    +0.120 A 
ATOM     53  N   UNL     1      -4.083  11.216  16.348  0.00  0.00    -0.320 N 
ATOM     54  H   UNL     1      -4.568  11.008  14.251  0.00  0.00    +0.105 HD
BRANCH  53  55
ATOM     55  C   UNL     1      -5.147  12.078  16.783  0.00  0.00    +0.014 C 
ATOM     56  H   UNL     1      -6.036  11.860  16.187  0.00  0.00    +0.046 HD
ATOM     57  H   UNL     1      -5.356  11.881  17.838  0.00  0.00    +0.046 HD
ATOM     58  H   UNL     1      -4.855  13.124  16.672  0.00  0.00    +0.046 HD
ENDBRANCH  53  55
ENDBRANCH  46  49
ENDBRANCH  40  46
ENDBRANCH   1  40
TORSDOF 9
ENDMDL
MODEL 7
REMARK VINA RESULT:    -7.936      2.596      3.331
REMARK INTER + INTRA:         -12.018
REMARK INTER:                 -11.563
REMARK INTRA:                  -0.455
REMARK UNBOUND:                -0.602
REMARK  Name = 
REMARK  9 active torsions:
REMARK  status: ('A' for Active; 'I' for Inactive)
REMARK    1  A    between atoms: C_1  and  C_2
REMARK    2  A    between atoms: C_2  and  C_3
REMARK    3  A    between atoms: C_2  and  C_10
REMARK    4  A    between atoms: C_3  and  C_4
REMARK    5  A    between atoms: N_8  and  C_9
REMARK    6  A    between atoms: C_14  and  N_15
REMARK    7  A    between atoms: C_16  and  C_18
REMARK    8  A    between atoms: C_20  and  C_21
REMARK    9  A    between atoms: C_26  and  O_27
REMARK                            x       y       z     vdW  Elec       q    Type
REMARK                         _______ _______ _______ _____ _____    ______ ____
ROOT
ATOM      1  C   UNL     1      -0.916  11.246  21.044  0.00  0.00    -0.042 A 
ATOM      2  C   UNL     1      -1.169  11.397  22.413  0.00  0.00    -0.058 A 
ATOM      3  C   UNL     1      -0.779  10.411  23.318  0.00  0.00    -0.060 A 
ATOM      4  C   UNL     1      -0.142   9.255  22.865  0.00  0.00    -0.040 A 
ATOM      5  C   UNL     1       0.100   9.065  21.501  0.00  0.00    +0.034 A 
ATOM      6  C   UNL     1      -0.285  10.065  20.603  0.00  0.00    -0.037 A 
ATOM      7  H   UNL     1      -1.675  12.281  22.796  0.00  0.00    +0.062 HD
ATOM      8  H   UNL     1      -0.971  10.547  24.380  0.00  0.00    +0.062 HD
ATOM      9  H   UNL     1       0.150   8.505  23.596  0.00  0.00    +0.064 HD
ATOM     10  H   UNL     1      -0.088   9.958  19.540  0.00  0.00    +0.064 HD
ENDROOT
BRANCH   5  11
ATOM     11  N   UNL     1       0.727   7.861  21.119  0.00  0.00    -0.280 N 
ATOM     12  C   UNL     1       1.627   7.674  20.079  0.00  0.00    +0.267 C 
ATOM     13  O   UNL     1       2.014   8.519  19.281  0.00  0.00    -0.268 OA
ATOM     14  H   UNL     1       0.516   7.057  21.700  0.00  0.00    +0.155 HD
BRANCH  12  15
ATOM     15  C   UNL     1       2.124   6.270  19.946  0.00  0.00    +0.126 A 
ATOM     16  C   UNL     1       2.774   5.872  18.790  0.00  0.00    -0.019 A 
ATOM     17  C   UNL     1       3.213   4.552  18.725  0.00  0.00    +0.040 A 
ATOM     18  C   UNL     1       2.968   3.672  19.776  0.00  0.00    -0.031 A 
ATOM     19  C   UNL     1       2.317   4.169  20.890  0.00  0.00    +0.029 A 
ATOM     20  N   UNL     1       1.897   5.447  21.000  0.00  0.00    -0.250 NA
ATOM     21  H   UNL     1       2.952   6.558  17.968  0.00  0.00    +0.065 HD
ATOM     22  H   UNL     1       3.254   2.628  19.726  0.00  0.00    +0.064 HD
ATOM     23  H   UNL     1       2.099   3.535  21.746  0.00  0.00    +0.083 HD
BRANCH  17  24
ATOM     24  C   UNL     1       3.866   4.098  17.481  0.00  0.00    +0.247 C 
ATOM     25  O   UNL     1       3.232   3.344  16.749  0.00  0.00    -0.270 OA
ATOM     26  N   UNL     1       5.136   4.552  17.189  0.00  0.00    -0.295 N 
ATOM     27  C   UNL     1       5.863   5.644  17.826  0.00  0.00    +0.017 C 
ATOM     28  C   UNL     1       6.875   6.091  16.782  0.00  0.00    -0.010 C 
ATOM     29  C   UNL     1       7.171   4.807  16.013  0.00  0.00    +0.072 C 
ATOM     30  C   UNL     1       5.799   4.135  15.964  0.00  0.00    +0.041 C 
ATOM     31  H   UNL     1       6.371   5.241  18.709  0.00  0.00    +0.047 HD
ATOM     32  H   UNL     1       5.189   6.449  18.129  0.00  0.00    +0.047 HD
ATOM     33  H   UNL     1       6.435   6.842  16.114  0.00  0.00    +0.031 HD
ATOM     34  H   UNL     1       7.771   6.536  17.223  0.00  0.00    +0.031 HD
ATOM     35  H   UNL     1       7.890   4.191  16.564  0.00  0.00    +0.061 HD
ATOM     36  H   UNL     1       5.207   4.473  15.105  0.00  0.00    +0.049 HD
ATOM     37  H   UNL     1       5.869   3.043  15.921  0.00  0.00    +0.049 HD
BRANCH  29  38
ATOM     38  O   UNL     1       7.691   5.110  14.732  0.00  0.00    -0.390 OA
ATOM     39  H   UNL     1       8.578   5.491  14.854  0.00  0.00    +0.210 HD
ENDBRANCH  29  38
ENDBRANCH  17  24
ENDBRANCH  12  15
ENDBRANCH   5  11
BRANCH   1  40
ATOM     40  C   UNL     1      -1.318  12.293  20.012  0.00  0.00    -0.012 C 
ATOM     41  H   UNL     1      -1.022  13.264  20.437  0.00  0.00    +0.035 HD
BRANCH  40  42
ATOM     42  C   UNL     1      -2.831  12.421  19.782  0.00  0.00    -0.058 C 
ATOM     43  H   UNL     1      -3.323  11.453  19.929  0.00  0.00    +0.024 HD
ATOM     44  H   UNL     1      -3.303  13.136  20.461  0.00  0.00    +0.024 HD
ATOM     45  H   UNL     1      -3.041  12.746  18.756  0.00  0.00    +0.024 HD
ENDBRANCH  40  42
BRANCH  40  46
ATOM     46  C   UNL     1      -0.536  12.144  18.690  0.00  0.00    +0.014 C 
ATOM     47  H   UNL     1      -0.318  11.081  18.526  0.00  0.00    +0.035 HD
ATOM     48  H   UNL     1      -1.170  12.442  17.847  0.00  0.00    +0.035 HD
BRANCH  46  49
ATOM     49  C   UNL     1       0.758  12.887  18.656  0.00  0.00    +0.134 A 
ATOM     50  N   UNL     1       1.957  12.341  18.568  0.00  0.00    -0.135 NA
ATOM     51  N   UNL     1       2.892  13.346  18.574  0.00  0.00    -0.138 NA
ATOM     52  C   UNL     1       2.248  14.485  18.652  0.00  0.00    +0.120 A 
ATOM     53  N   UNL     1       0.907  14.250  18.696  0.00  0.00    -0.320 N 
ATOM     54  H   UNL     1       2.693  15.469  18.677  0.00  0.00    +0.105 HD
BRANCH  53  55
ATOM     55  C   UNL     1      -0.107  15.266  18.771  0.00  0.00    +0.014 C 
ATOM     56  H   UNL     1      -0.268  15.519  19.821  0.00  0.00    +0.046 HD
ATOM     57  H   UNL     1       0.237  16.152  18.230  0.00  0.00    +0.046 HD
ATOM     58  H   UNL     1      -1.031  14.911  18.313  0.00  0.00    +0.046 HD
ENDBRANCH  53  55
ENDBRANCH  46  49
ENDBRANCH  40  46
ENDBRANCH   1  40
TORSDOF 9
ENDMDL
MODEL 8
REMARK VINA RESULT:    -7.829      2.505      9.071
REMARK INTER + INTRA:         -11.864
REMARK INTER:                 -11.615
REMARK INTRA:                  -0.249
REMARK UNBOUND:                -0.602
REMARK  Name = 
REMARK  9 active torsions:
REMARK  status: ('A' for Active; 'I' for Inactive)
REMARK    1  A    between atoms: C_1  and  C_2
REMARK    2  A    between atoms: C_2  and  C_3
REMARK    3  A    between atoms: C_2  and  C_10
REMARK    4  A    between atoms: C_3  and  C_4
REMARK    5  A    between atoms: N_8  and  C_9
REMARK    6  A    between atoms: C_14  and  N_15
REMARK    7  A    between atoms: C_16  and  C_18
REMARK    8  A    between atoms: C_20  and  C_21
REMARK    9  A    between atoms: C_26  and  O_27
REMARK                            x       y       z     vdW  Elec       q    Type
REMARK                         _______ _______ _______ _____ _____    ______ ____
ROOT
ATOM      1  C   UNL     1       2.817   3.010  19.142  0.00  0.00    -0.042 A 
ATOM      2  C   UNL     1       2.919   2.177  20.262  0.00  0.00    -0.058 A 
ATOM      3  C   UNL     1       2.543   2.637  21.524  0.00  0.00    -0.060 A 
ATOM      4  C   UNL     1       2.070   3.940  21.682  0.00  0.00    -0.040 A 
ATOM      5  C   UNL     1       1.981   4.803  20.585  0.00  0.00    +0.034 A 
ATOM      6  C   UNL     1       2.351   4.328  19.324  0.00  0.00    -0.037 A 
ATOM      7  H   UNL     1       3.297   1.160  20.173  0.00  0.00    +0.062 HD
ATOM      8  H   UNL     1       2.617   1.976  22.384  0.00  0.00    +0.062 HD
ATOM      9  H   UNL     1       1.783   4.269  22.678  0.00  0.00    +0.064 HD
ATOM     10  H   UNL     1       2.270   4.966  18.448  0.00  0.00    +0.064 HD
ENDROOT
BRANCH   5  11
ATOM     11  N   UNL     1       1.516   6.112  20.830  0.00  0.00    -0.280 N 
ATOM     12  C   UNL     1       1.941   7.284  20.219  0.00  0.00    +0.267 C 
ATOM     13  O   UNL     1       2.825   7.395  19.378  0.00  0.00    -0.268 OA
ATOM     14  H   UNL     1       0.762   6.187  21.503  0.00  0.00    +0.155 HD
BRANCH  12  15
ATOM     15  C   UNL     1       1.233   8.512  20.694  0.00  0.00    +0.126 A 
ATOM     16  C   UNL     1       0.692   9.398  19.778  0.00  0.00    -0.019 A 
ATOM     17  C   UNL     1       0.045  10.524  20.282  0.00  0.00    +0.040 A 
ATOM     18  C   UNL     1      -0.013  10.751  21.655  0.00  0.00    -0.031 A 
ATOM     19  C   UNL     1       0.553   9.802  22.486  0.00  0.00    +0.029 A 
ATOM     20  N   UNL     1       1.166   8.688  22.038  0.00  0.00    -0.250 NA
ATOM     21  H   UNL     1       0.750   9.222  18.709  0.00  0.00    +0.065 HD
ATOM     22  H   UNL     1      -0.465  11.646  22.067  0.00  0.00    +0.064 HD
ATOM     23  H   UNL     1       0.537   9.919  23.567  0.00  0.00    +0.083 HD
BRANCH  17  24
ATOM     24  C   UNL     1      -0.497  11.502  19.318  0.00  0.00    +0.247 C 
ATOM     25  O   UNL     1      -0.028  12.636  19.336  0.00  0.00    -0.270 OA
ATOM     26  N   UNL     1      -1.481  11.099  18.438  0.00  0.00    -0.295 N 
ATOM     27  C   UNL     1      -1.910   9.737  18.141  0.00  0.00    +0.017 C 
ATOM     28  C   UNL     1      -2.526   9.824  16.753  0.00  0.00    -0.010 C 
ATOM     29  C   UNL     1      -3.088  11.242  16.711  0.00  0.00    +0.072 C 
ATOM     30  C   UNL     1      -2.023  12.035  17.468  0.00  0.00    +0.041 C 
ATOM     31  H   UNL     1      -2.664   9.452  18.882  0.00  0.00    +0.047 HD
ATOM     32  H   UNL     1      -1.072   9.036  18.185  0.00  0.00    +0.047 HD
ATOM     33  H   UNL     1      -1.759   9.696  15.980  0.00  0.00    +0.031 HD
ATOM     34  H   UNL     1      -3.290   9.061  16.580  0.00  0.00    +0.031 HD
ATOM     35  H   UNL     1      -4.052  11.284  17.231  0.00  0.00    +0.061 HD
ATOM     36  H   UNL     1      -1.216  12.372  16.806  0.00  0.00    +0.049 HD
ATOM     37  H   UNL     1      -2.436  12.913  17.974  0.00  0.00    +0.049 HD
BRANCH  29  38
ATOM     38  O   UNL     1      -3.253  11.665  15.371  0.00  0.00    -0.390 OA
ATOM     39  H   UNL     1      -4.202  11.611  15.157  0.00  0.00    +0.210 HD
ENDBRANCH  29  38
ENDBRANCH  17  24
ENDBRANCH  12  15
ENDBRANCH   5  11
BRANCH   1  40
ATOM     40  C   UNL     1       3.213   2.557  17.741  0.00  0.00    -0.012 C 
ATOM     41  H   UNL     1       2.287   2.198  17.268  0.00  0.00    +0.035 HD
BRANCH  40  42
ATOM     42  C   UNL     1       4.160   1.350  17.699  0.00  0.00    -0.058 C 
ATOM     43  H   UNL     1       3.655   0.455  18.082  0.00  0.00    +0.024 HD
ATOM     44  H   UNL     1       4.510   1.122  16.688  0.00  0.00    +0.024 HD
ATOM     45  H   UNL     1       5.042   1.526  18.325  0.00  0.00    +0.024 HD
ENDBRANCH  40  42
BRANCH  40  46
ATOM     46  C   UNL     1       3.717   3.726  16.868  0.00  0.00    +0.014 C 
ATOM     47  H   UNL     1       3.598   3.454  15.811  0.00  0.00    +0.035 HD
ATOM     48  H   UNL     1       3.077   4.603  17.015  0.00  0.00    +0.035 HD
BRANCH  46  49
ATOM     49  C   UNL     1       5.149   4.083  17.090  0.00  0.00    +0.134 A 
ATOM     50  N   UNL     1       5.700   4.363  18.257  0.00  0.00    -0.135 NA
ATOM     51  N   UNL     1       7.027   4.649  18.052  0.00  0.00    -0.138 NA
ATOM     52  C   UNL     1       7.264   4.528  16.769  0.00  0.00    +0.120 A 
ATOM     53  N   UNL     1       6.120   4.165  16.125  0.00  0.00    -0.320 N 
ATOM     54  H   UNL     1       8.214   4.685  16.279  0.00  0.00    +0.105 HD
BRANCH  53  55
ATOM     55  C   UNL     1       6.008   3.929  14.711  0.00  0.00    +0.014 C 
ATOM     56  H   UNL     1       5.385   3.045  14.556  0.00  0.00    +0.046 HD
ATOM     57  H   UNL     1       5.537   4.796  14.242  0.00  0.00    +0.046 HD
ATOM     58  H   UNL     1       6.997   3.785  14.273  0.00  0.00    +0.046 HD
ENDBRANCH  53  55
ENDBRANCH  46  49
ENDBRANCH  40  46
ENDBRANCH   1  40
TORSDOF 9
ENDMDL
MODEL 9
REMARK VINA RESULT:    -7.824      2.048      2.983
REMARK INTER + INTRA:         -11.857
REMARK INTER:                 -10.898
REMARK INTRA:                  -0.960
REMARK UNBOUND:                -0.602
REMARK  Name = 
REMARK  9 active torsions:
REMARK  status: ('A' for Active; 'I' for Inactive)
REMARK    1  A    between atoms: C_1  and  C_2
REMARK    2  A    between atoms: C_2  and  C_3
REMARK    3  A    between atoms: C_2  and  C_10
REMARK    4  A    between atoms: C_3  and  C_4
REMARK    5  A    between atoms: N_8  and  C_9
REMARK    6  A    between atoms: C_14  and  N_15
REMARK    7  A    between atoms: C_16  and  C_18
REMARK    8  A    between atoms: C_20  and  C_21
REMARK    9  A    between atoms: C_26  and  O_27
REMARK                            x       y       z     vdW  Elec       q    Type
REMARK                         _______ _______ _______ _____ _____    ______ ____
ROOT
ATOM      1  C   UNL     1      -0.367  10.253  20.403  0.00  0.00    -0.042 A 
ATOM      2  C   UNL     1      -0.445  10.585  21.761  0.00  0.00    -0.058 A 
ATOM      3  C   UNL     1       0.285   9.867  22.708  0.00  0.00    -0.060 A 
ATOM      4  C   UNL     1       1.091   8.800  22.311  0.00  0.00    -0.040 A 
ATOM      5  C   UNL     1       1.168   8.430  20.965  0.00  0.00    +0.034 A 
ATOM      6  C   UNL     1       0.442   9.164  20.022  0.00  0.00    -0.037 A 
ATOM      7  H   UNL     1      -1.075  11.403  22.104  0.00  0.00    +0.062 HD
ATOM      8  H   UNL     1       0.223  10.142  23.758  0.00  0.00    +0.062 HD
ATOM      9  H   UNL     1       1.648   8.260  23.073  0.00  0.00    +0.064 HD
ATOM     10  H   UNL     1       0.500   8.916  18.965  0.00  0.00    +0.064 HD
ENDROOT
BRANCH   5  11
ATOM     11  N   UNL     1       1.986   7.327  20.645  0.00  0.00    -0.280 N 
ATOM     12  C   UNL     1       1.601   5.997  20.536  0.00  0.00    +0.267 C 
ATOM     13  O   UNL     1       0.483   5.537  20.733  0.00  0.00    -0.268 OA
ATOM     14  H   UNL     1       2.954   7.548  20.438  0.00  0.00    +0.155 HD
BRANCH  12  15
ATOM     15  C   UNL     1       2.712   5.067  20.165  0.00  0.00    +0.126 A 
ATOM     16  C   UNL     1       3.828   5.550  19.505  0.00  0.00    -0.019 A 
ATOM     17  C   UNL     1       4.829   4.635  19.186  0.00  0.00    +0.040 A 
ATOM     18  C   UNL     1       4.679   3.285  19.497  0.00  0.00    -0.031 A 
ATOM     19  C   UNL     1       3.529   2.905  20.164  0.00  0.00    +0.029 A 
ATOM     20  N   UNL     1       2.549   3.765  20.510  0.00  0.00    -0.250 NA
ATOM     21  H   UNL     1       3.936   6.600  19.254  0.00  0.00    +0.065 HD
ATOM     22  H   UNL     1       5.420   2.548  19.213  0.00  0.00    +0.064 HD
ATOM     23  H   UNL     1       3.353   1.868  20.438  0.00  0.00    +0.083 HD
BRANCH  17  24
ATOM     24  C   UNL     1       6.006   5.125  18.440  0.00  0.00    +0.247 C 
ATOM     25  O   UNL     1       6.974   5.502  19.093  0.00  0.00    -0.270 OA
ATOM     26  N   UNL     1       5.973   5.117  17.061  0.00  0.00    -0.295 N 
ATOM     27  C   UNL     1       5.010   4.447  16.194  0.00  0.00    +0.017 C 
ATOM     28  C   UNL     1       5.749   4.256  14.878  0.00  0.00    -0.010 C 
ATOM     29  C   UNL     1       6.698   5.449  14.836  0.00  0.00    +0.072 C 
ATOM     30  C   UNL     1       7.122   5.578  16.299  0.00  0.00    +0.041 C 
ATOM     31  H   UNL     1       4.153   5.115  16.062  0.00  0.00    +0.047 HD
ATOM     32  H   UNL     1       4.673   3.501  16.627  0.00  0.00    +0.047 HD
ATOM     33  H   UNL     1       6.317   3.317  14.886  0.00  0.00    +0.031 HD
ATOM     34  H   UNL     1       5.077   4.219  14.016  0.00  0.00    +0.031 HD
ATOM     35  H   UNL     1       6.166   6.347  14.501  0.00  0.00    +0.061 HD
ATOM     36  H   UNL     1       7.984   4.943  16.534  0.00  0.00    +0.049 HD
ATOM     37  H   UNL     1       7.372   6.608  16.573  0.00  0.00    +0.049 HD
BRANCH  29  38
ATOM     38  O   UNL     1       7.780   5.186  13.963  0.00  0.00    -0.390 OA
ATOM     39  H   UNL     1       8.552   4.950  14.507  0.00  0.00    +0.210 HD
ENDBRANCH  29  38
ENDBRANCH  17  24
ENDBRANCH  12  15
ENDBRANCH   5  11
BRANCH   1  40
ATOM     40  C   UNL     1      -1.140  11.006  19.327  0.00  0.00    -0.012 C 
ATOM     41  H   UNL     1      -2.202  10.914  19.598  0.00  0.00    +0.035 HD
BRANCH  40  42
ATOM     42  C   UNL     1      -1.048  10.394  17.922  0.00  0.00    -0.058 C 
ATOM     43  H   UNL     1      -1.387  11.114  17.168  0.00  0.00    +0.024 HD
ATOM     44  H   UNL     1      -0.029  10.096  17.656  0.00  0.00    +0.024 HD
ATOM     45  H   UNL     1      -1.686   9.507  17.843  0.00  0.00    +0.024 HD
ENDBRANCH  40  42
BRANCH  40  46
ATOM     46  C   UNL     1      -0.825  12.518  19.328  0.00  0.00    +0.014 C 
ATOM     47  H   UNL     1      -1.260  12.970  18.427  0.00  0.00    +0.035 HD
ATOM     48  H   UNL     1      -1.334  13.003  20.168  0.00  0.00    +0.035 HD
BRANCH  46  49
ATOM     49  C   UNL     1       0.632  12.840  19.344  0.00  0.00    +0.134 A 
ATOM     50  N   UNL     1       1.494  12.553  18.387  0.00  0.00    -0.135 NA
ATOM     51  N   UNL     1       2.734  13.001  18.772  0.00  0.00    -0.138 NA
ATOM     52  C   UNL     1       2.604  13.561  19.950  0.00  0.00    +0.120 A 
ATOM     53  N   UNL     1       1.303  13.494  20.347  0.00  0.00    -0.320 N 
ATOM     54  H   UNL     1       3.393  14.014  20.531  0.00  0.00    +0.105 HD
BRANCH  53  55
ATOM     55  C   UNL     1       0.788  14.021  21.581  0.00  0.00    +0.014 C 
ATOM     56  H   UNL     1       1.091  15.067  21.665  0.00  0.00    +0.046 HD
ATOM     57  H   UNL     1      -0.304  13.955  21.568  0.00  0.00    +0.046 HD
ATOM     58  H   UNL     1       1.165  13.441  22.425  0.00  0.00    +0.046 HD
ENDBRANCH  53  55
ENDBRANCH  46  49
ENDBRANCH  40  46
ENDBRANCH   1  40
TORSDOF 9
ENDMDL
MODEL 10
REMARK VINA RESULT:    -7.810      2.816      3.894
REMARK INTER + INTRA:         -11.837
REMARK INTER:                 -11.023
REMARK INTRA:                  -0.813
REMARK UNBOUND:                -0.602
REMARK  Name = 
REMARK  9 active torsions:
REMARK  status: ('A' for Active; 'I' for Inactive)
REMARK    1  A    between atoms: C_1  and  C_2
REMARK    2  A    between atoms: C_2  and  C_3
REMARK    3  A    between atoms: C_2  and  C_10
REMARK    4  A    between atoms: C_3  and  C_4
REMARK    5  A    between atoms: N_8  and  C_9
REMARK    6  A    between atoms: C_14  and  N_15
REMARK    7  A    between atoms: C_16  and  C_18
REMARK    8  A    between atoms: C_20  and  C_21
REMARK    9  A    between atoms: C_26  and  O_27
REMARK                            x       y       z     vdW  Elec       q    Type
REMARK                         _______ _______ _______ _____ _____    ______ ____
ROOT
ATOM      1  C   UNL     1       0.274  10.235  20.949  0.00  0.00    -0.042 A 
ATOM      2  C   UNL     1       0.043  10.918  19.749  0.00  0.00    -0.058 A 
ATOM      3  C   UNL     1       0.540  10.422  18.544  0.00  0.00    -0.060 A 
ATOM      4  C   UNL     1       1.284   9.242  18.526  0.00  0.00    -0.040 A 
ATOM      5  C   UNL     1       1.553   8.552  19.712  0.00  0.00    +0.034 A 
ATOM      6  C   UNL     1       1.041   9.052  20.913  0.00  0.00    -0.037 A 
ATOM      7  H   UNL     1      -0.523  11.848  19.733  0.00  0.00    +0.062 HD
ATOM      8  H   UNL     1       0.344  10.957  17.619  0.00  0.00    +0.062 HD
ATOM      9  H   UNL     1       1.657   8.881  17.571  0.00  0.00    +0.064 HD
ATOM     10  H   UNL     1       1.211   8.525  21.848  0.00  0.00    +0.064 HD
ENDROOT
BRANCH   5  11
ATOM     11  N   UNL     1       2.332   7.380  19.614  0.00  0.00    -0.280 N 
ATOM     12  C   UNL     1       2.047   6.134  20.155  0.00  0.00    +0.267 C 
ATOM     13  O   UNL     1       1.081   5.836  20.846  0.00  0.00    -0.268 OA
ATOM     14  H   UNL     1       3.172   7.462  19.053  0.00  0.00    +0.155 HD
BRANCH  12  15
ATOM     15  C   UNL     1       3.074   5.089  19.855  0.00  0.00    +0.126 A 
ATOM     16  C   UNL     1       4.190   5.410  19.102  0.00  0.00    -0.019 A 
ATOM     17  C   UNL     1       5.111   4.394  18.857  0.00  0.00    +0.040 A 
ATOM     18  C   UNL     1       4.882   3.103  19.329  0.00  0.00    -0.031 A 
ATOM     19  C   UNL     1       3.740   2.887  20.078  0.00  0.00    +0.029 A 
ATOM     20  N   UNL     1       2.838   3.850  20.356  0.00  0.00    -0.250 NA
ATOM     21  H   UNL     1       4.357   6.414  18.726  0.00  0.00    +0.065 HD
ATOM     22  H   UNL     1       5.558   2.286  19.107  0.00  0.00    +0.064 HD
ATOM     23  H   UNL     1       3.506   1.903  20.478  0.00  0.00    +0.083 HD
BRANCH  17  24
ATOM     24  C   UNL     1       6.283   4.707  18.016  0.00  0.00    +0.247 C 
ATOM     25  O   UNL     1       7.360   4.869  18.582  0.00  0.00    -0.270 OA
ATOM     26  N   UNL     1       6.123   4.783  16.648  0.00  0.00    -0.295 N 
ATOM     27  C   UNL     1       4.978   4.345  15.857  0.00  0.00    +0.017 C 
ATOM     28  C   UNL     1       5.546   4.100  14.467  0.00  0.00    -0.010 C 
ATOM     29  C   UNL     1       6.689   5.106  14.376  0.00  0.00    +0.072 C 
ATOM     30  C   UNL     1       7.262   5.075  15.793  0.00  0.00    +0.041 C 
ATOM     31  H   UNL     1       4.250   5.162  15.838  0.00  0.00    +0.047 HD
ATOM     32  H   UNL     1       4.516   3.452  16.285  0.00  0.00    +0.047 HD
ATOM     33  H   UNL     1       5.932   3.076  14.381  0.00  0.00    +0.031 HD
ATOM     34  H   UNL     1       4.802   4.232  13.676  0.00  0.00    +0.031 HD
ATOM     35  H   UNL     1       6.302   6.101  14.131  0.00  0.00    +0.061 HD
ATOM     36  H   UNL     1       8.012   4.284  15.915  0.00  0.00    +0.049 HD
ATOM     37  H   UNL     1       7.720   6.026  16.080  0.00  0.00    +0.049 HD
BRANCH  29  38
ATOM     38  O   UNL     1       7.620   4.703  13.389  0.00  0.00    -0.390 OA
ATOM     39  H   UNL     1       8.414   5.260  13.483  0.00  0.00    +0.210 HD
ENDBRANCH  29  38
ENDBRANCH  17  24
ENDBRANCH  12  15
ENDBRANCH   5  11
BRANCH   1  40
ATOM     40  C   UNL     1      -0.247  10.731  22.292  0.00  0.00    -0.012 C 
ATOM     41  H   UNL     1       0.504  11.445  22.663  0.00  0.00    +0.035 HD
BRANCH  40  42
ATOM     42  C   UNL     1      -0.330   9.658  23.387  0.00  0.00    -0.058 C 
ATOM     43  H   UNL     1       0.518   9.748  24.075  0.00  0.00    +0.024 HD
ATOM     44  H   UNL     1      -1.245   9.729  23.982  0.00  0.00    +0.024 HD
ATOM     45  H   UNL     1      -0.295   8.654  22.948  0.00  0.00    +0.024 HD
ENDBRANCH  40  42
BRANCH  40  46
ATOM     46  C   UNL     1      -1.564  11.526  22.153  0.00  0.00    +0.014 C 
ATOM     47  H   UNL     1      -1.744  11.728  21.090  0.00  0.00    +0.035 HD
ATOM     48  H   UNL     1      -2.407  10.906  22.477  0.00  0.00    +0.035 HD
BRANCH  46  49
ATOM     49  C   UNL     1      -1.571  12.832  22.875  0.00  0.00    +0.134 A 
ATOM     50  N   UNL     1      -0.623  13.749  22.815  0.00  0.00    -0.135 NA
ATOM     51  N   UNL     1      -0.986  14.800  23.621  0.00  0.00    -0.138 NA
ATOM     52  C   UNL     1      -2.152  14.511  24.147  0.00  0.00    +0.120 A 
ATOM     53  N   UNL     1      -2.564  13.292  23.702  0.00  0.00    -0.320 N 
ATOM     54  H   UNL     1      -2.715  15.132  24.828  0.00  0.00    +0.105 HD
BRANCH  53  55
ATOM     55  C   UNL     1      -3.804  12.659  24.060  0.00  0.00    +0.014 C 
ATOM     56  H   UNL     1      -4.623  13.340  23.819  0.00  0.00    +0.046 HD
ATOM     57  H   UNL     1      -3.913  11.737  23.482  0.00  0.00    +0.046 HD
ATOM     58  H   UNL     1      -3.809  12.411  25.122  0.00  0.00    +0.046 HD
ENDBRANCH  53  55
ENDBRANCH  46  49
ENDBRANCH  40  46
ENDBRANCH   1  40
TORSDOF 9
ENDMDL
MODEL 11
REMARK VINA RESULT:    -7.768      3.070      9.871
REMARK INTER + INTRA:         -11.776
REMARK INTER:                 -11.232
REMARK INTRA:                  -0.544
REMARK UNBOUND:                -0.602
REMARK  Name = 
REMARK  9 active torsions:
REMARK  status: ('A' for Active; 'I' for Inactive)
REMARK    1  A    between atoms: C_1  and  C_2
REMARK    2  A    between atoms: C_2  and  C_3
REMARK    3  A    between atoms: C_2  and  C_10
REMARK    4  A    between atoms: C_3  and  C_4
REMARK    5  A    between atoms: N_8  and  C_9
REMARK    6  A    between atoms: C_14  and  N_15
REMARK    7  A    between atoms: C_16  and  C_18
REMARK    8  A    between atoms: C_20  and  C_21
REMARK    9  A    between atoms: C_26  and  O_27
REMARK                            x       y       z     vdW  Elec       q    Type
REMARK                         _______ _______ _______ _____ _____    ______ ____
ROOT
ATOM      1  C   UNL     1       3.028   4.506  18.892  0.00  0.00    -0.042 A 
ATOM      2  C   UNL     1       2.643   3.932  20.110  0.00  0.00    -0.058 A 
ATOM      3  C   UNL     1       1.943   4.681  21.056  0.00  0.00    -0.060 A 
ATOM      4  C   UNL     1       1.628   6.015  20.800  0.00  0.00    -0.040 A 
ATOM      5  C   UNL     1       2.021   6.623  19.604  0.00  0.00    +0.034 A 
ATOM      6  C   UNL     1       2.713   5.861  18.658  0.00  0.00    -0.037 A 
ATOM      7  H   UNL     1       2.885   2.898  20.344  0.00  0.00    +0.062 HD
ATOM      8  H   UNL     1       1.641   4.219  21.993  0.00  0.00    +0.062 HD
ATOM      9  H   UNL     1       1.080   6.572  21.557  0.00  0.00    +0.064 HD
ATOM     10  H   UNL     1       3.010   6.297  17.708  0.00  0.00    +0.064 HD
ENDROOT
BRANCH   5  11
ATOM     11  N   UNL     1       1.686   7.981  19.430  0.00  0.00    -0.280 N 
ATOM     12  C   UNL     1       2.029   8.803  18.364  0.00  0.00    +0.267 C 
ATOM     13  O   UNL     1       2.718   8.502  17.397  0.00  0.00    -0.268 OA
ATOM     14  H   UNL     1       1.097   8.380  20.152  0.00  0.00    +0.155 HD
BRANCH  12  15
ATOM     15  C   UNL     1       1.502  10.198  18.473  0.00  0.00    +0.126 A 
ATOM     16  C   UNL     1       0.194  10.415  18.869  0.00  0.00    -0.019 A 
ATOM     17  C   UNL     1      -0.239  11.736  18.951  0.00  0.00    +0.040 A 
ATOM     18  C   UNL     1       0.615  12.783  18.610  0.00  0.00    -0.031 A 
ATOM     19  C   UNL     1       1.905  12.461  18.233  0.00  0.00    +0.029 A 
ATOM     20  N   UNL     1       2.368  11.196  18.164  0.00  0.00    -0.250 NA
ATOM     21  H   UNL     1      -0.472   9.596  19.122  0.00  0.00    +0.065 HD
ATOM     22  H   UNL     1       0.284  13.815  18.616  0.00  0.00    +0.064 HD
ATOM     23  H   UNL     1       2.622  13.231  17.959  0.00  0.00    +0.083 HD
BRANCH  17  24
ATOM     24  C   UNL     1      -1.645  11.984  19.326  0.00  0.00    +0.247 C 
ATOM     25  O   UNL     1      -2.487  11.941  18.434  0.00  0.00    -0.270 OA
ATOM     26  N   UNL     1      -1.951  12.231  20.649  0.00  0.00    -0.295 N 
ATOM     27  C   UNL     1      -1.096  12.035  21.815  0.00  0.00    +0.017 C 
ATOM     28  C   UNL     1      -2.064  11.872  22.976  0.00  0.00    -0.010 C 
ATOM     29  C   UNL     1      -3.258  12.724  22.555  0.00  0.00    +0.072 C 
ATOM     30  C   UNL     1      -3.328  12.463  21.051  0.00  0.00    +0.041 C 
ATOM     31  H   UNL     1      -0.488  12.937  21.941  0.00  0.00    +0.047 HD
ATOM     32  H   UNL     1      -0.442  11.168  21.689  0.00  0.00    +0.047 HD
ATOM     33  H   UNL     1      -2.365  10.823  23.085  0.00  0.00    +0.031 HD
ATOM     34  H   UNL     1      -1.636  12.187  23.932  0.00  0.00    +0.031 HD
ATOM     35  H   UNL     1      -3.061  13.782  22.762  0.00  0.00    +0.061 HD
ATOM     36  H   UNL     1      -3.924  11.573  20.817  0.00  0.00    +0.049 HD
ATOM     37  H   UNL     1      -3.749  13.309  20.499  0.00  0.00    +0.049 HD
BRANCH  29  38
ATOM     38  O   UNL     1      -4.422  12.314  23.249  0.00  0.00    -0.390 OA
ATOM     39  H   UNL     1      -4.415  11.342  23.293  0.00  0.00    +0.210 HD
ENDBRANCH  29  38
ENDBRANCH  17  24
ENDBRANCH  12  15
ENDBRANCH   5  11
BRANCH   1  40
ATOM     40  C   UNL     1       3.792   3.734  17.823  0.00  0.00    -0.012 C 
ATOM     41  H   UNL     1       3.429   4.117  16.858  0.00  0.00    +0.035 HD
BRANCH  40  42
ATOM     42  C   UNL     1       3.490   2.230  17.778  0.00  0.00    -0.058 C 
ATOM     43  H   UNL     1       2.412   2.053  17.873  0.00  0.00    +0.024 HD
ATOM     44  H   UNL     1       3.819   1.760  16.846  0.00  0.00    +0.024 HD
ATOM     45  H   UNL     1       3.985   1.709  18.606  0.00  0.00    +0.024 HD
ENDBRANCH  40  42
BRANCH  40  46
ATOM     46  C   UNL     1       5.308   4.025  17.861  0.00  0.00    +0.014 C 
ATOM     47  H   UNL     1       5.479   4.927  18.462  0.00  0.00    +0.035 HD
ATOM     48  H   UNL     1       5.827   3.220  18.392  0.00  0.00    +0.035 HD
BRANCH  46  49
ATOM     49  C   UNL     1       5.922   4.245  16.519  0.00  0.00    +0.134 A 
ATOM     50  N   UNL     1       5.745   3.481  15.457  0.00  0.00    -0.135 NA
ATOM     51  N   UNL     1       6.480   4.004  14.420  0.00  0.00    -0.138 NA
ATOM     52  C   UNL     1       7.081   5.080  14.865  0.00  0.00    +0.120 A 
ATOM     53  N   UNL     1       6.755   5.279  16.172  0.00  0.00    -0.320 N 
ATOM     54  H   UNL     1       7.735   5.725  14.297  0.00  0.00    +0.105 HD
BRANCH  53  55
ATOM     55  C   UNL     1       7.220   6.373  16.981  0.00  0.00    +0.014 C 
ATOM     56  H   UNL     1       7.293   7.263  16.353  0.00  0.00    +0.046 HD
ATOM     57  H   UNL     1       6.501   6.550  17.786  0.00  0.00    +0.046 HD
ATOM     58  H   UNL     1       8.188   6.131  17.422  0.00  0.00    +0.046 HD
ENDBRANCH  53  55
ENDBRANCH  46  49
ENDBRANCH  40  46
ENDBRANCH   1  40
TORSDOF 9
ENDMDL
MODEL 12
REMARK VINA RESULT:    -7.723      2.687      3.821
REMARK INTER + INTRA:         -11.712
REMARK INTER:                 -10.815
REMARK INTRA:                  -0.897
REMARK UNBOUND:                -0.602
REMARK  Name = 
REMARK  9 active torsions:
REMARK  status: ('A' for Active; 'I' for Inactive)
REMARK    1  A    between atoms: C_1  and  C_2
REMARK    2  A    between atoms: C_2  and  C_3
REMARK    3  A    between atoms: C_2  and  C_10
REMARK    4  A    between atoms: C_3  and  C_4
REMARK    5  A    between atoms: N_8  and  C_9
REMARK    6  A    between atoms: C_14  and  N_15
REMARK    7  A    between atoms: C_16  and  C_18
REMARK    8  A    between atoms: C_20  and  C_21
REMARK    9  A    between atoms: C_26  and  O_27
REMARK                            x       y       z     vdW  Elec       q    Type
REMARK                         _______ _______ _______ _____ _____    ______ ____
ROOT
ATOM      1  C   UNL     1      -0.785  11.475  19.225  0.00  0.00    -0.042 A 
ATOM      2  C   UNL     1       0.144  12.434  18.805  0.00  0.00    -0.058 A 
ATOM      3  C   UNL     1       1.451  12.063  18.489  0.00  0.00    -0.060 A 
ATOM      4  C   UNL     1       1.847  10.730  18.600  0.00  0.00    -0.040 A 
ATOM      5  C   UNL     1       0.948   9.755  19.042  0.00  0.00    +0.034 A 
ATOM      6  C   UNL     1      -0.362  10.135  19.345  0.00  0.00    -0.037 A 
ATOM      7  H   UNL     1      -0.131  13.483  18.721  0.00  0.00    +0.062 HD
ATOM      8  H   UNL     1       2.159  12.816  18.154  0.00  0.00    +0.062 HD
ATOM      9  H   UNL     1       2.873  10.472  18.345  0.00  0.00    +0.064 HD
ATOM     10  H   UNL     1      -1.091   9.396  19.667  0.00  0.00    +0.064 HD
ENDROOT
BRANCH   5  11
ATOM     11  N   UNL     1       1.431   8.434  19.150  0.00  0.00    -0.280 N 
ATOM     12  C   UNL     1       1.626   7.702  20.314  0.00  0.00    +0.267 C 
ATOM     13  O   UNL     1       1.446   8.088  21.463  0.00  0.00    -0.268 OA
ATOM     14  H   UNL     1       1.618   7.965  18.271  0.00  0.00    +0.155 HD
BRANCH  12  15
ATOM     15  C   UNL     1       2.139   6.316  20.086  0.00  0.00    +0.126 A 
ATOM     16  C   UNL     1       2.738   5.988  18.882  0.00  0.00    -0.019 A 
ATOM     17  C   UNL     1       3.195   4.681  18.729  0.00  0.00    +0.040 A 
ATOM     18  C   UNL     1       3.014   3.745  19.746  0.00  0.00    -0.031 A 
ATOM     19  C   UNL     1       2.410   4.175  20.913  0.00  0.00    +0.029 A 
ATOM     20  N   UNL     1       1.976   5.437  21.107  0.00  0.00    -0.250 NA
ATOM     21  H   UNL     1       2.866   6.717  18.089  0.00  0.00    +0.065 HD
ATOM     22  H   UNL     1       3.314   2.711  19.629  0.00  0.00    +0.064 HD
ATOM     23  H   UNL     1       2.243   3.495  21.745  0.00  0.00    +0.083 HD
BRANCH  17  24
ATOM     24  C   UNL     1       3.795   4.302  17.435  0.00  0.00    +0.247 C 
ATOM     25  O   UNL     1       3.088   3.690  16.640  0.00  0.00    -0.270 OA
ATOM     26  N   UNL     1       5.099   4.665  17.170  0.00  0.00    -0.295 N 
ATOM     27  C   UNL     1       5.929   5.614  17.905  0.00  0.00    +0.017 C 
ATOM     28  C   UNL     1       6.970   6.073  16.897  0.00  0.00    -0.010 C 
ATOM     29  C   UNL     1       7.140   4.854  15.994  0.00  0.00    +0.072 C 
ATOM     30  C   UNL     1       5.711   4.320  15.898  0.00  0.00    +0.041 C 
ATOM     31  H   UNL     1       6.403   5.076  18.733  0.00  0.00    +0.047 HD
ATOM     32  H   UNL     1       5.334   6.442  18.300  0.00  0.00    +0.047 HD
ATOM     33  H   UNL     1       6.598   6.926  16.316  0.00  0.00    +0.031 HD
ATOM     34  H   UNL     1       7.907   6.385  17.367  0.00  0.00    +0.031 HD
ATOM     35  H   UNL     1       7.803   4.121  16.467  0.00  0.00    +0.061 HD
ATOM     36  H   UNL     1       5.148   4.798  15.089  0.00  0.00    +0.049 HD
ATOM     37  H   UNL     1       5.680   3.237  15.742  0.00  0.00    +0.049 HD
BRANCH  29  38
ATOM     38  O   UNL     1       7.677   5.241  14.743  0.00  0.00    -0.390 OA
ATOM     39  H   UNL     1       6.993   5.746  14.269  0.00  0.00    +0.210 HD
ENDBRANCH  29  38
ENDBRANCH  17  24
ENDBRANCH  12  15
ENDBRANCH   5  11
BRANCH   1  40
ATOM     40  C   UNL     1      -2.225  11.825  19.581  0.00  0.00    -0.012 C 
ATOM     41  H   UNL     1      -2.591  10.997  20.207  0.00  0.00    +0.035 HD
BRANCH  40  42
ATOM     42  C   UNL     1      -3.191  11.860  18.388  0.00  0.00    -0.058 C 
ATOM     43  H   UNL     1      -3.401  10.844  18.035  0.00  0.00    +0.024 HD
ATOM     44  H   UNL     1      -4.150  12.327  18.634  0.00  0.00    +0.024 HD
ATOM     45  H   UNL     1      -2.755  12.418  17.551  0.00  0.00    +0.024 HD
ENDBRANCH  40  42
BRANCH  40  46
ATOM     46  C   UNL     1      -2.322  13.098  20.449  0.00  0.00    +0.014 C 
ATOM     47  H   UNL     1      -1.308  13.455  20.667  0.00  0.00    +0.035 HD
ATOM     48  H   UNL     1      -2.796  13.903  19.876  0.00  0.00    +0.035 HD
BRANCH  46  49
ATOM     49  C   UNL     1      -3.027  12.900  21.749  0.00  0.00    +0.134 A 
ATOM     50  N   UNL     1      -4.240  13.332  22.041  0.00  0.00    -0.135 NA
ATOM     51  N   UNL     1      -4.533  12.962  23.331  0.00  0.00    -0.138 NA
ATOM     52  C   UNL     1      -3.501  12.303  23.797  0.00  0.00    +0.120 A 
ATOM     53  N   UNL     1      -2.536  12.228  22.840  0.00  0.00    -0.320 N 
ATOM     54  H   UNL     1      -3.413  11.874  24.785  0.00  0.00    +0.105 HD
BRANCH  53  55
ATOM     55  C   UNL     1      -1.269  11.565  22.995  0.00  0.00    +0.014 C 
ATOM     56  H   UNL     1      -0.603  11.899  22.197  0.00  0.00    +0.046 HD
ATOM     57  H   UNL     1      -0.843  11.835  23.965  0.00  0.00    +0.046 HD
ATOM     58  H   UNL     1      -1.403  10.483  22.959  0.00  0.00    +0.046 HD
ENDBRANCH  53  55
ENDBRANCH  46  49
ENDBRANCH  40  46
ENDBRANCH   1  40
TORSDOF 9
ENDMDL
MODEL 13
REMARK VINA RESULT:    -7.700      2.559      9.032
REMARK INTER + INTRA:         -11.678
REMARK INTER:                 -11.152
REMARK INTRA:                  -0.526
REMARK UNBOUND:                -0.602
REMARK  Name = 
REMARK  9 active torsions:
REMARK  status: ('A' for Active; 'I' for Inactive)
REMARK    1  A    between atoms: C_1  and  C_2
REMARK    2  A    between atoms: C_2  and  C_3
REMARK    3  A    between atoms: C_2  and  C_10
REMARK    4  A    between atoms: C_3  and  C_4
REMARK    5  A    between atoms: N_8  and  C_9
REMARK    6  A    between atoms: C_14  and  N_15
REMARK    7  A    between atoms: C_16  and  C_18
REMARK    8  A    between atoms: C_20  and  C_21
REMARK    9  A    between atoms: C_26  and  O_27
REMARK                            x       y       z     vdW  Elec       q    Type
REMARK                         _______ _______ _______ _____ _____    ______ ____
ROOT
ATOM      1  C   UNL     1       5.602   4.752  18.868  0.00  0.00    -0.042 A 
ATOM      2  C   UNL     1       5.017   3.491  18.706  0.00  0.00    -0.058 A 
ATOM      3  C   UNL     1       3.662   3.299  18.973  0.00  0.00    -0.060 A 
ATOM      4  C   UNL     1       2.877   4.364  19.416  0.00  0.00    -0.040 A 
ATOM      5  C   UNL     1       3.440   5.629  19.612  0.00  0.00    +0.034 A 
ATOM      6  C   UNL     1       4.796   5.813  19.330  0.00  0.00    -0.037 A 
ATOM      7  H   UNL     1       5.606   2.637  18.374  0.00  0.00    +0.062 HD
ATOM      8  H   UNL     1       3.218   2.316  18.833  0.00  0.00    +0.062 HD
ATOM      9  H   UNL     1       1.824   4.183  19.616  0.00  0.00    +0.064 HD
ATOM     10  H   UNL     1       5.257   6.790  19.448  0.00  0.00    +0.064 HD
ENDROOT
BRANCH   5  11
ATOM     11  N   UNL     1       2.587   6.648  20.084  0.00  0.00    -0.280 N 
ATOM     12  C   UNL     1       2.205   7.803  19.414  0.00  0.00    +0.267 C 
ATOM     13  O   UNL     1       2.570   8.161  18.301  0.00  0.00    -0.268 OA
ATOM     14  H   UNL     1       2.185   6.490  21.001  0.00  0.00    +0.155 HD
BRANCH  12  15
ATOM     15  C   UNL     1       1.272   8.679  20.188  0.00  0.00    +0.126 A 
ATOM     16  C   UNL     1       0.442   9.564  19.524  0.00  0.00    -0.019 A 
ATOM     17  C   UNL     1      -0.404  10.353  20.300  0.00  0.00    +0.040 A 
ATOM     18  C   UNL     1      -0.375  10.267  21.690  0.00  0.00    -0.031 A 
ATOM     19  C   UNL     1       0.486   9.345  22.257  0.00  0.00    +0.029 A 
ATOM     20  N   UNL     1       1.303   8.547  21.539  0.00  0.00    -0.250 NA
ATOM     21  H   UNL     1       0.431   9.637  18.441  0.00  0.00    +0.065 HD
ATOM     22  H   UNL     1      -0.986  10.907  22.315  0.00  0.00    +0.064 HD
ATOM     23  H   UNL     1       0.554   9.226  23.335  0.00  0.00    +0.083 HD
BRANCH  17  24
ATOM     24  C   UNL     1      -1.263  11.336  19.610  0.00  0.00    +0.247 C 
ATOM     25  O   UNL     1      -1.270  12.485  20.041  0.00  0.00    -0.270 OA
ATOM     26  N   UNL     1      -1.996  10.930  18.514  0.00  0.00    -0.295 N 
ATOM     27  C   UNL     1      -1.859   9.691  17.757  0.00  0.00    +0.017 C 
ATOM     28  C   UNL     1      -2.433  10.015  16.386  0.00  0.00    -0.010 C 
ATOM     29  C   UNL     1      -3.499  11.062  16.695  0.00  0.00    +0.072 C 
ATOM     30  C   UNL     1      -2.839  11.879  17.805  0.00  0.00    +0.041 C 
ATOM     31  H   UNL     1      -2.459   8.923  18.256  0.00  0.00    +0.047 HD
ATOM     32  H   UNL     1      -0.816   9.366  17.709  0.00  0.00    +0.047 HD
ATOM     33  H   UNL     1      -1.661  10.439  15.733  0.00  0.00    +0.031 HD
ATOM     34  H   UNL     1      -2.839   9.135  15.878  0.00  0.00    +0.031 HD
ATOM     35  H   UNL     1      -4.414  10.579  17.054  0.00  0.00    +0.061 HD
ATOM     36  H   UNL     1      -2.212  12.684  17.405  0.00  0.00    +0.049 HD
ATOM     37  H   UNL     1      -3.570  12.324  18.488  0.00  0.00    +0.049 HD
BRANCH  29  38
ATOM     38  O   UNL     1      -3.789  11.824  15.537  0.00  0.00    -0.390 OA
ATOM     39  H   UNL     1      -3.692  12.765  15.769  0.00  0.00    +0.210 HD
ENDBRANCH  29  38
ENDBRANCH  17  24
ENDBRANCH  12  15
ENDBRANCH   5  11
BRANCH   1  40
ATOM     40  C   UNL     1       7.077   5.018  18.588  0.00  0.00    -0.012 C 
ATOM     41  H   UNL     1       7.527   4.034  18.385  0.00  0.00    +0.035 HD
BRANCH  40  42
ATOM     42  C   UNL     1       7.870   5.563  19.784  0.00  0.00    -0.058 C 
ATOM     43  H   UNL     1       8.389   4.749  20.302  0.00  0.00    +0.024 HD
ATOM     44  H   UNL     1       8.624   6.300  19.491  0.00  0.00    +0.024 HD
ATOM     45  H   UNL     1       7.200   6.043  20.507  0.00  0.00    +0.024 HD
ENDBRANCH  40  42
BRANCH  40  46
ATOM     46  C   UNL     1       7.289   5.861  17.312  0.00  0.00    +0.014 C 
ATOM     47  H   UNL     1       6.827   6.845  17.459  0.00  0.00    +0.035 HD
ATOM     48  H   UNL     1       8.357   6.061  17.173  0.00  0.00    +0.035 HD
BRANCH  46  49
ATOM     49  C   UNL     1       6.706   5.260  16.077  0.00  0.00    +0.134 A 
ATOM     50  N   UNL     1       7.175   4.203  15.440  0.00  0.00    -0.135 NA
ATOM     51  N   UNL     1       6.375   3.964  14.350  0.00  0.00    -0.138 NA
ATOM     52  C   UNL     1       5.428   4.870  14.348  0.00  0.00    +0.120 A 
ATOM     53  N   UNL     1       5.587   5.699  15.416  0.00  0.00    -0.320 N 
ATOM     54  H   UNL     1       4.635   4.960  13.621  0.00  0.00    +0.105 HD
BRANCH  53  55
ATOM     55  C   UNL     1       4.723   6.802  15.740  0.00  0.00    +0.014 C 
ATOM     56  H   UNL     1       4.174   6.556  16.652  0.00  0.00    +0.046 HD
ATOM     57  H   UNL     1       5.333   7.694  15.909  0.00  0.00    +0.046 HD
ATOM     58  H   UNL     1       4.035   6.997  14.916  0.00  0.00    +0.046 HD
ENDBRANCH  53  55
ENDBRANCH  46  49
ENDBRANCH  40  46
ENDBRANCH   1  40
TORSDOF 9
ENDMDL
MODEL 14
REMARK VINA RESULT:    -7.655      3.246      9.970
REMARK INTER + INTRA:         -11.613
REMARK INTER:                 -11.343
REMARK INTRA:                  -0.270
REMARK UNBOUND:                -0.602
REMARK  Name = 
REMARK  9 active torsions:
REMARK  status: ('A' for Active; 'I' for Inactive)
REMARK    1  A    between atoms: C_1  and  C_2
REMARK    2  A    between atoms: C_2  and  C_3
REMARK    3  A    between atoms: C_2  and  C_10
REMARK    4  A    between atoms: C_3  and  C_4
REMARK    5  A    between atoms: N_8  and  C_9
REMARK    6  A    between atoms: C_14  and  N_15
REMARK    7  A    between atoms: C_16  and  C_18
REMARK    8  A    between atoms: C_20  and  C_21
REMARK    9  A    between atoms: C_26  and  O_27
REMARK                            x       y       z     vdW  Elec       q    Type
REMARK                         _______ _______ _______ _____ _____    ______ ____
ROOT
ATOM      1  C   UNL     1       3.260   5.056  18.913  0.00  0.00    -0.042 A 
ATOM      2  C   UNL     1       2.841   4.360  20.053  0.00  0.00    -0.058 A 
ATOM      3  C   UNL     1       2.020   4.976  20.997  0.00  0.00    -0.060 A 
ATOM      4  C   UNL     1       1.616   6.299  20.818  0.00  0.00    -0.040 A 
ATOM      5  C   UNL     1       2.040   7.027  19.702  0.00  0.00    +0.034 A 
ATOM      6  C   UNL     1       2.854   6.397  18.757  0.00  0.00    -0.037 A 
ATOM      7  H   UNL     1       3.150   3.331  20.227  0.00  0.00    +0.062 HD
ATOM      8  H   UNL     1       1.694   4.420  21.872  0.00  0.00    +0.062 HD
ATOM      9  H   UNL     1       0.975   6.751  21.571  0.00  0.00    +0.064 HD
ATOM     10  H   UNL     1       3.179   6.929  17.866  0.00  0.00    +0.064 HD
ENDROOT
BRANCH   5  11
ATOM     11  N   UNL     1       1.609   8.367  19.605  0.00  0.00    -0.280 N 
ATOM     12  C   UNL     1       1.627   9.176  18.477  0.00  0.00    +0.267 C 
ATOM     13  O   UNL     1       2.056   8.882  17.368  0.00  0.00    -0.268 OA
ATOM     14  H   UNL     1       1.208   8.758  20.450  0.00  0.00    +0.155 HD
BRANCH  12  15
ATOM     15  C   UNL     1       1.082  10.551  18.702  0.00  0.00    +0.126 A 
ATOM     16  C   UNL     1      -0.222  10.716  19.134  0.00  0.00    -0.019 A 
ATOM     17  C   UNL     1      -0.672  12.021  19.325  0.00  0.00    +0.040 A 
ATOM     18  C   UNL     1       0.161  13.104  19.052  0.00  0.00    -0.031 A 
ATOM     19  C   UNL     1       1.450  12.831  18.632  0.00  0.00    +0.029 A 
ATOM     20  N   UNL     1       1.929  11.583  18.458  0.00  0.00    -0.250 NA
ATOM     21  H   UNL     1      -0.871   9.870  19.333  0.00  0.00    +0.065 HD
ATOM     22  H   UNL     1      -0.184  14.127  19.144  0.00  0.00    +0.064 HD
ATOM     23  H   UNL     1       2.150  13.632  18.406  0.00  0.00    +0.083 HD
BRANCH  17  24
ATOM     24  C   UNL     1      -2.075  12.217  19.740  0.00  0.00    +0.247 C 
ATOM     25  O   UNL     1      -2.934  12.195  18.864  0.00  0.00    -0.270 OA
ATOM     26  N   UNL     1      -2.357  12.394  21.079  0.00  0.00    -0.295 N 
ATOM     27  C   UNL     1      -1.472  12.165  22.216  0.00  0.00    +0.017 C 
ATOM     28  C   UNL     1      -2.411  11.925  23.389  0.00  0.00    -0.010 C 
ATOM     29  C   UNL     1      -3.633  12.766  23.033  0.00  0.00    +0.072 C 
ATOM     30  C   UNL     1      -3.730  12.574  21.520  0.00  0.00    +0.041 C 
ATOM     31  H   UNL     1      -0.883  13.074  22.373  0.00  0.00    +0.047 HD
ATOM     32  H   UNL     1      -0.802  11.321  22.036  0.00  0.00    +0.047 HD
ATOM     33  H   UNL     1      -2.686  10.864  23.454  0.00  0.00    +0.031 HD
ATOM     34  H   UNL     1      -1.970  12.204  24.350  0.00  0.00    +0.031 HD
ATOM     35  H   UNL     1      -3.457  13.818  23.285  0.00  0.00    +0.061 HD
ATOM     36  H   UNL     1      -4.311  11.682  21.256  0.00  0.00    +0.049 HD
ATOM     37  H   UNL     1      -4.182  13.435  21.018  0.00  0.00    +0.049 HD
BRANCH  29  38
ATOM     38  O   UNL     1      -4.772  12.297  23.731  0.00  0.00    -0.390 OA
ATOM     39  H   UNL     1      -5.126  11.532  23.243  0.00  0.00    +0.210 HD
ENDBRANCH  29  38
ENDBRANCH  17  24
ENDBRANCH  12  15
ENDBRANCH   5  11
BRANCH   1  40
ATOM     40  C   UNL     1       4.155   4.431  17.849  0.00  0.00    -0.012 C 
ATOM     41  H   UNL     1       4.187   5.153  17.020  0.00  0.00    +0.035 HD
BRANCH  40  42
ATOM     42  C   UNL     1       3.603   3.145  17.219  0.00  0.00    -0.058 C 
ATOM     43  H   UNL     1       4.202   2.280  17.527  0.00  0.00    +0.024 HD
ATOM     44  H   UNL     1       2.566   2.945  17.505  0.00  0.00    +0.024 HD
ATOM     45  H   UNL     1       3.641   3.202  16.125  0.00  0.00    +0.024 HD
ENDBRANCH  40  42
BRANCH  40  46
ATOM     46  C   UNL     1       5.612   4.266  18.333  0.00  0.00    +0.014 C 
ATOM     47  H   UNL     1       5.604   4.026  19.404  0.00  0.00    +0.035 HD
ATOM     48  H   UNL     1       6.069   3.397  17.845  0.00  0.00    +0.035 HD
BRANCH  46  49
ATOM     49  C   UNL     1       6.463   5.477  18.140  0.00  0.00    +0.134 A 
ATOM     50  N   UNL     1       7.432   5.872  18.944  0.00  0.00    -0.135 NA
ATOM     51  N   UNL     1       7.972   7.028  18.437  0.00  0.00    -0.138 NA
ATOM     52  C   UNL     1       7.331   7.310  17.329  0.00  0.00    +0.120 A 
ATOM     53  N   UNL     1       6.382   6.362  17.095  0.00  0.00    -0.320 N 
ATOM     54  H   UNL     1       7.515   8.158  16.685  0.00  0.00    +0.105 HD
BRANCH  53  55
ATOM     55  C   UNL     1       5.498   6.341  15.962  0.00  0.00    +0.014 C 
ATOM     56  H   UNL     1       5.468   7.343  15.527  0.00  0.00    +0.046 HD
ATOM     57  H   UNL     1       5.883   5.633  15.224  0.00  0.00    +0.046 HD
ATOM     58  H   UNL     1       4.500   6.023  16.268  0.00  0.00    +0.046 HD
ENDBRANCH  53  55
ENDBRANCH  46  49
ENDBRANCH  40  46
ENDBRANCH   1  40
TORSDOF 9
ENDMDL
MODEL 15
REMARK VINA RESULT:    -7.624      3.361     10.135
REMARK INTER + INTRA:         -11.569
REMARK INTER:                 -10.944
REMARK INTRA:                  -0.625
REMARK UNBOUND:                -0.602
REMARK  Name = 
REMARK  9 active torsions:
REMARK  status: ('A' for Active; 'I' for Inactive)
REMARK    1  A    between atoms: C_1  and  C_2
REMARK    2  A    between atoms: C_2  and  C_3
REMARK    3  A    between atoms: C_2  and  C_10
REMARK    4  A    between atoms: C_3  and  C_4
REMARK    5  A    between atoms: N_8  and  C_9
REMARK    6  A    between atoms: C_14  and  N_15
REMARK    7  A    between atoms: C_16  and  C_18
REMARK    8  A    between atoms: C_20  and  C_21
REMARK    9  A    between atoms: C_26  and  O_27
REMARK                            x       y       z     vdW  Elec       q    Type
REMARK                         _______ _______ _______ _____ _____    ______ ____
ROOT
ATOM      1  C   UNL     1       4.851   4.779  17.105  0.00  0.00    -0.042 A 
ATOM      2  C   UNL     1       3.978   3.726  17.405  0.00  0.00    -0.058 A 
ATOM      3  C   UNL     1       2.672   3.985  17.819  0.00  0.00    -0.060 A 
ATOM      4  C   UNL     1       2.226   5.300  17.950  0.00  0.00    -0.040 A 
ATOM      5  C   UNL     1       3.083   6.372  17.683  0.00  0.00    +0.034 A 
ATOM      6  C   UNL     1       4.386   6.101  17.257  0.00  0.00    -0.037 A 
ATOM      7  H   UNL     1       4.300   2.690  17.325  0.00  0.00    +0.062 HD
ATOM      8  H   UNL     1       2.001   3.158  18.038  0.00  0.00    +0.062 HD
ATOM      9  H   UNL     1       1.202   5.469  18.274  0.00  0.00    +0.064 HD
ATOM     10  H   UNL     1       5.069   6.913  17.017  0.00  0.00    +0.064 HD
ENDROOT
BRANCH   5  11
ATOM     11  N   UNL     1       2.565   7.672  17.860  0.00  0.00    -0.280 N 
ATOM     12  C   UNL     1       2.019   8.209  19.019  0.00  0.00    +0.267 C 
ATOM     13  O   UNL     1       1.857   7.635  20.089  0.00  0.00    -0.268 OA
ATOM     14  H   UNL     1       2.639   8.284  17.056  0.00  0.00    +0.155 HD
BRANCH  12  15
ATOM     15  C   UNL     1       1.572   9.629  18.882  0.00  0.00    +0.126 A 
ATOM     16  C   UNL     1       0.316  10.006  19.326  0.00  0.00    -0.019 A 
ATOM     17  C   UNL     1      -0.043  11.342  19.172  0.00  0.00    +0.040 A 
ATOM     18  C   UNL     1       0.827  12.243  18.560  0.00  0.00    -0.031 A 
ATOM     19  C   UNL     1       2.061  11.768  18.157  0.00  0.00    +0.029 A 
ATOM     20  N   UNL     1       2.454  10.487  18.311  0.00  0.00    -0.250 NA
ATOM     21  H   UNL     1      -0.363   9.298  19.792  0.00  0.00    +0.065 HD
ATOM     22  H   UNL     1       0.548  13.274  18.382  0.00  0.00    +0.064 HD
ATOM     23  H   UNL     1       2.786  12.420  17.677  0.00  0.00    +0.083 HD
BRANCH  17  24
ATOM     24  C   UNL     1      -1.396  11.751  19.598  0.00  0.00    +0.247 C 
ATOM     25  O   UNL     1      -2.253  11.870  18.727  0.00  0.00    -0.270 OA
ATOM     26  N   UNL     1      -1.641  11.960  20.940  0.00  0.00    -0.295 N 
ATOM     27  C   UNL     1      -0.796  11.588  22.070  0.00  0.00    +0.017 C 
ATOM     28  C   UNL     1      -1.755  11.488  23.246  0.00  0.00    -0.010 C 
ATOM     29  C   UNL     1      -2.833  12.511  22.904  0.00  0.00    +0.072 C 
ATOM     30  C   UNL     1      -2.967  12.348  21.390  0.00  0.00    +0.041 C 
ATOM     31  H   UNL     1      -0.072  12.394  22.228  0.00  0.00    +0.047 HD
ATOM     32  H   UNL     1      -0.266  10.651  21.880  0.00  0.00    +0.047 HD
ATOM     33  H   UNL     1      -2.190  10.483  23.306  0.00  0.00    +0.031 HD
ATOM     34  H   UNL     1      -1.270  11.688  24.206  0.00  0.00    +0.031 HD
ATOM     35  H   UNL     1      -2.494  13.521  23.162  0.00  0.00    +0.061 HD
ATOM     36  H   UNL     1      -3.680  11.559  21.124  0.00  0.00    +0.049 HD
ATOM     37  H   UNL     1      -3.282  13.272  20.896  0.00  0.00    +0.049 HD
BRANCH  29  38
ATOM     38  O   UNL     1      -4.028  12.220  23.605  0.00  0.00    -0.390 OA
ATOM     39  H   UNL     1      -3.867  11.429  24.150  0.00  0.00    +0.210 HD
ENDBRANCH  29  38
ENDBRANCH  17  24
ENDBRANCH  12  15
ENDBRANCH   5  11
BRANCH   1  40
ATOM     40  C   UNL     1       6.286   4.552  16.647  0.00  0.00    -0.012 C 
ATOM     41  H   UNL     1       6.339   3.500  16.329  0.00  0.00    +0.035 HD
BRANCH  40  42
ATOM     42  C   UNL     1       7.342   4.672  17.755  0.00  0.00    -0.058 C 
ATOM     43  H   UNL     1       8.065   5.459  17.511  0.00  0.00    +0.024 HD
ATOM     44  H   UNL     1       6.907   4.917  18.729  0.00  0.00    +0.024 HD
ATOM     45  H   UNL     1       7.898   3.734  17.865  0.00  0.00    +0.024 HD
ENDBRANCH  40  42
BRANCH  40  46
ATOM     46  C   UNL     1       6.645   5.396  15.404  0.00  0.00    +0.014 C 
ATOM     47  H   UNL     1       5.957   6.249  15.346  0.00  0.00    +0.035 HD
ATOM     48  H   UNL     1       7.641   5.835  15.529  0.00  0.00    +0.035 HD
BRANCH  46  49
ATOM     49  C   UNL     1       6.562   4.651  14.114  0.00  0.00    +0.134 A 
ATOM     50  N   UNL     1       5.686   3.706  13.826  0.00  0.00    -0.135 NA
ATOM     51  N   UNL     1       5.935   3.259  12.551  0.00  0.00    -0.138 NA
ATOM     52  C   UNL     1       6.948   3.946  12.082  0.00  0.00    +0.120 A 
ATOM     53  N   UNL     1       7.369   4.838  13.020  0.00  0.00    -0.320 N 
ATOM     54  H   UNL     1       7.392   3.838  11.103  0.00  0.00    +0.105 HD
BRANCH  53  55
ATOM     55  C   UNL     1       8.452   5.768  12.848  0.00  0.00    +0.014 C 
ATOM     56  H   UNL     1       8.666   6.234  13.812  0.00  0.00    +0.046 HD
ATOM     57  H   UNL     1       9.335   5.225  12.499  0.00  0.00    +0.046 HD
ATOM     58  H   UNL     1       8.187   6.522  12.105  0.00  0.00    +0.046 HD
ENDBRANCH  53  55
ENDBRANCH  46  49
ENDBRANCH  40  46
ENDBRANCH   1  40
TORSDOF 9
ENDMDL
MODEL 16
REMARK VINA RESULT:    -7.356      3.362      9.931
REMARK INTER + INTRA:         -11.184
REMARK INTER:                 -10.872
REMARK INTRA:                  -0.313
REMARK UNBOUND:                -0.602
REMARK  Name = 
REMARK  9 active torsions:
REMARK  status: ('A' for Active; 'I' for Inactive)
REMARK    1  A    between atoms: C_1  and  C_2
REMARK    2  A    between atoms: C_2  and  C_3
REMARK    3  A    between atoms: C_2  and  C_10
REMARK    4  A    between atoms: C_3  and  C_4
REMARK    5  A    between atoms: N_8  and  C_9
REMARK    6  A    between atoms: C_14  and  N_15
REMARK    7  A    between atoms: C_16  and  C_18
REMARK    8  A    between atoms: C_20  and  C_21
REMARK    9  A    between atoms: C_26  and  O_27
REMARK                            x       y       z     vdW  Elec       q    Type
REMARK                         _______ _______ _______ _____ _____    ______ ____
ROOT
ATOM      1  C   UNL     1       4.762   4.379  17.067  0.00  0.00    -0.042 A 
ATOM      2  C   UNL     1       3.932   3.264  16.899  0.00  0.00    -0.058 A 
ATOM      3  C   UNL     1       2.631   3.267  17.400  0.00  0.00    -0.060 A 
ATOM      4  C   UNL     1       2.147   4.381  18.087  0.00  0.00    -0.040 A 
ATOM      5  C   UNL     1       2.961   5.499  18.293  0.00  0.00    +0.034 A 
ATOM      6  C   UNL     1       4.260   5.490  17.776  0.00  0.00    -0.037 A 
ATOM      7  H   UNL     1       4.285   2.376  16.379  0.00  0.00    +0.062 HD
ATOM      8  H   UNL     1       1.994   2.399  17.253  0.00  0.00    +0.062 HD
ATOM      9  H   UNL     1       1.128   4.354  18.465  0.00  0.00    +0.064 HD
ATOM     10  H   UNL     1       4.909   6.353  17.898  0.00  0.00    +0.064 HD
ENDROOT
BRANCH   5  11
ATOM     11  N   UNL     1       2.408   6.576  19.016  0.00  0.00    -0.280 N 
ATOM     12  C   UNL     1       2.225   7.880  18.575  0.00  0.00    +0.267 C 
ATOM     13  O   UNL     1       2.546   8.339  17.486  0.00  0.00    -0.268 OA
ATOM     14  H   UNL     1       2.076   6.350  19.947  0.00  0.00    +0.155 HD
BRANCH  12  15
ATOM     15  C   UNL     1       1.593   8.784  19.585  0.00  0.00    +0.126 A 
ATOM     16  C   UNL     1       1.188  10.055  19.219  0.00  0.00    -0.019 A 
ATOM     17  C   UNL     1       0.606  10.850  20.204  0.00  0.00    +0.040 A 
ATOM     18  C   UNL     1       0.480  10.380  21.510  0.00  0.00    -0.031 A 
ATOM     19  C   UNL     1       0.910   9.092  21.771  0.00  0.00    +0.029 A 
ATOM     20  N   UNL     1       1.455   8.284  20.839  0.00  0.00    -0.250 NA
ATOM     21  H   UNL     1       1.300  10.422  18.204  0.00  0.00    +0.065 HD
ATOM     22  H   UNL     1       0.079  10.999  22.303  0.00  0.00    +0.064 HD
ATOM     23  H   UNL     1       0.835   8.664  22.768  0.00  0.00    +0.083 HD
BRANCH  17  24
ATOM     24  C   UNL     1       0.211  12.226  19.843  0.00  0.00    +0.247 C 
ATOM     25  O   UNL     1       0.892  12.810  19.006  0.00  0.00    -0.270 OA
ATOM     26  N   UNL     1      -0.904  12.779  20.438  0.00  0.00    -0.295 N 
ATOM     27  C   UNL     1      -1.930  12.098  21.219  0.00  0.00    +0.017 C 
ATOM     28  C   UNL     1      -3.155  12.992  21.105  0.00  0.00    -0.010 C 
ATOM     29  C   UNL     1      -2.554  14.387  20.964  0.00  0.00    +0.072 C 
ATOM     30  C   UNL     1      -1.327  14.125  20.091  0.00  0.00    +0.041 C 
ATOM     31  H   UNL     1      -1.585  12.046  22.257  0.00  0.00    +0.047 HD
ATOM     32  H   UNL     1      -2.113  11.087  20.844  0.00  0.00    +0.047 HD
ATOM     33  H   UNL     1      -3.738  12.738  20.211  0.00  0.00    +0.031 HD
ATOM     34  H   UNL     1      -3.825  12.906  21.965  0.00  0.00    +0.031 HD
ATOM     35  H   UNL     1      -2.261  14.776  21.946  0.00  0.00    +0.061 HD
ATOM     36  H   UNL     1      -1.570  14.159  19.022  0.00  0.00    +0.049 HD
ATOM     37  H   UNL     1      -0.519  14.840  20.279  0.00  0.00    +0.049 HD
BRANCH  29  38
ATOM     38  O   UNL     1      -3.488  15.267  20.366  0.00  0.00    -0.390 OA
ATOM     39  H   UNL     1      -3.287  15.313  19.415  0.00  0.00    +0.210 HD
ENDBRANCH  29  38
ENDBRANCH  17  24
ENDBRANCH  12  15
ENDBRANCH   5  11
BRANCH   1  40
ATOM     40  C   UNL     1       6.190   4.430  16.537  0.00  0.00    -0.012 C 
ATOM     41  H   UNL     1       6.431   3.404  16.221  0.00  0.00    +0.035 HD
BRANCH  40  42
ATOM     42  C   UNL     1       7.255   4.767  17.591  0.00  0.00    -0.058 C 
ATOM     43  H   UNL     1       8.007   5.444  17.171  0.00  0.00    +0.024 HD
ATOM     44  H   UNL     1       6.835   5.251  18.477  0.00  0.00    +0.024 HD
ATOM     45  H   UNL     1       7.774   3.860  17.921  0.00  0.00    +0.024 HD
ENDBRANCH  40  42
BRANCH  40  46
ATOM     46  C   UNL     1       6.317   5.311  15.276  0.00  0.00    +0.014 C 
ATOM     47  H   UNL     1       5.472   6.011  15.248  0.00  0.00    +0.035 HD
ATOM     48  H   UNL     1       7.211   5.940  15.351  0.00  0.00    +0.035 HD
BRANCH  46  49
ATOM     49  C   UNL     1       6.323   4.548  13.994  0.00  0.00    +0.134 A 
ATOM     50  N   UNL     1       5.434   3.641  13.634  0.00  0.00    -0.135 NA
ATOM     51  N   UNL     1       5.783   3.159  12.396  0.00  0.00    -0.138 NA
ATOM     52  C   UNL     1       6.869   3.789  12.019  0.00  0.00    +0.120 A 
ATOM     53  N   UNL     1       7.241   4.677  12.982  0.00  0.00    -0.320 N 
ATOM     54  H   UNL     1       7.400   3.641  11.090  0.00  0.00    +0.105 HD
BRANCH  53  55
ATOM     55  C   UNL     1       8.379   5.551  12.903  0.00  0.00    +0.014 C 
ATOM     56  H   UNL     1       8.134   6.486  13.411  0.00  0.00    +0.046 HD
ATOM     57  H   UNL     1       9.228   5.075  13.402  0.00  0.00    +0.046 HD
ATOM     58  H   UNL     1       8.642   5.735  11.860  0.00  0.00    +0.046 HD
ENDBRANCH  53  55
ENDBRANCH  46  49
ENDBRANCH  40  46
ENDBRANCH   1  40
TORSDOF 9
ENDMDL
MODEL 17
REMARK VINA RESULT:    -7.313      2.737      3.493
REMARK INTER + INTRA:         -11.121
REMARK INTER:                 -10.775
REMARK INTRA:                  -0.346
REMARK UNBOUND:                -0.602
REMARK  Name = 
REMARK  9 active torsions:
REMARK  status: ('A' for Active; 'I' for Inactive)
REMARK    1  A    between atoms: C_1  and  C_2
REMARK    2  A    between atoms: C_2  and  C_3
REMARK    3  A    between atoms: C_2  and  C_10
REMARK    4  A    between atoms: C_3  and  C_4
REMARK    5  A    between atoms: N_8  and  C_9
REMARK    6  A    between atoms: C_14  and  N_15
REMARK    7  A    between atoms: C_16  and  C_18
REMARK    8  A    between atoms: C_20  and  C_21
REMARK    9  A    between atoms: C_26  and  O_27
REMARK                            x       y       z     vdW  Elec       q    Type
REMARK                         _______ _______ _______ _____ _____    ______ ____
ROOT
ATOM      1  C   UNL     1      -0.865  11.210  21.116  0.00  0.00    -0.042 A 
ATOM      2  C   UNL     1      -1.078  11.362  22.491  0.00  0.00    -0.058 A 
ATOM      3  C   UNL     1      -0.654  10.379  23.386  0.00  0.00    -0.060 A 
ATOM      4  C   UNL     1      -0.023   9.227  22.915  0.00  0.00    -0.040 A 
ATOM      5  C   UNL     1       0.179   9.037  21.544  0.00  0.00    +0.034 A 
ATOM      6  C   UNL     1      -0.239  10.033  20.657  0.00  0.00    -0.037 A 
ATOM      7  H   UNL     1      -1.578  12.243  22.888  0.00  0.00    +0.062 HD
ATOM      8  H   UNL     1      -0.816  10.515  24.452  0.00  0.00    +0.062 HD
ATOM      9  H   UNL     1       0.296   8.480  23.637  0.00  0.00    +0.064 HD
ATOM     10  H   UNL     1      -0.074   9.926  19.589  0.00  0.00    +0.064 HD
ENDROOT
BRANCH   5  11
ATOM     11  N   UNL     1       0.802   7.836  21.145  0.00  0.00    -0.280 N 
ATOM     12  C   UNL     1       1.664   7.652  20.072  0.00  0.00    +0.267 C 
ATOM     13  O   UNL     1       2.011   8.497  19.255  0.00  0.00    -0.268 OA
ATOM     14  H   UNL     1       0.622   7.034  21.738  0.00  0.00    +0.155 HD
BRANCH  12  15
ATOM     15  C   UNL     1       2.169   6.252  19.927  0.00  0.00    +0.126 A 
ATOM     16  C   UNL     1       2.825   5.869  18.770  0.00  0.00    -0.019 A 
ATOM     17  C   UNL     1       3.272   4.552  18.694  0.00  0.00    +0.040 A 
ATOM     18  C   UNL     1       3.028   3.661  19.736  0.00  0.00    -0.031 A 
ATOM     19  C   UNL     1       2.370   4.144  20.852  0.00  0.00    +0.029 A 
ATOM     20  N   UNL     1       1.943   5.418  20.973  0.00  0.00    -0.250 NA
ATOM     21  H   UNL     1       3.002   6.564  17.955  0.00  0.00    +0.065 HD
ATOM     22  H   UNL     1       3.320   2.619  19.677  0.00  0.00    +0.064 HD
ATOM     23  H   UNL     1       2.153   3.501  21.701  0.00  0.00    +0.083 HD
BRANCH  17  24
ATOM     24  C   UNL     1       3.931   4.114  17.448  0.00  0.00    +0.247 C 
ATOM     25  O   UNL     1       3.304   3.361  16.708  0.00  0.00    -0.270 OA
ATOM     26  N   UNL     1       5.199   4.579  17.163  0.00  0.00    -0.295 N 
ATOM     27  C   UNL     1       5.917   5.670  17.812  0.00  0.00    +0.017 C 
ATOM     28  C   UNL     1       6.928   6.133  16.775  0.00  0.00    -0.010 C 
ATOM     29  C   UNL     1       7.234   4.858  15.996  0.00  0.00    +0.072 C 
ATOM     30  C   UNL     1       5.867   4.177  15.937  0.00  0.00    +0.041 C 
ATOM     31  H   UNL     1       6.425   5.263  18.693  0.00  0.00    +0.047 HD
ATOM     32  H   UNL     1       5.236   6.468  18.120  0.00  0.00    +0.047 HD
ATOM     33  H   UNL     1       6.485   6.886  16.112  0.00  0.00    +0.031 HD
ATOM     34  H   UNL     1       7.820   6.580  17.222  0.00  0.00    +0.031 HD
ATOM     35  H   UNL     1       7.957   4.242  16.544  0.00  0.00    +0.061 HD
ATOM     36  H   UNL     1       5.276   4.518  15.079  0.00  0.00    +0.049 HD
ATOM     37  H   UNL     1       5.945   3.086  15.885  0.00  0.00    +0.049 HD
BRANCH  29  38
ATOM     38  O   UNL     1       7.756   5.175  14.719  0.00  0.00    -0.390 OA
ATOM     39  H   UNL     1       7.337   6.004  14.424  0.00  0.00    +0.210 HD
ENDBRANCH  29  38
ENDBRANCH  17  24
ENDBRANCH  12  15
ENDBRANCH   5  11
BRANCH   1  40
ATOM     40  C   UNL     1      -1.305  12.253  20.095  0.00  0.00    -0.012 C 
ATOM     41  H   UNL     1      -2.278  11.909  19.713  0.00  0.00    +0.035 HD
BRANCH  40  42
ATOM     42  C   UNL     1      -0.415  12.349  18.848  0.00  0.00    -0.058 C 
ATOM     43  H   UNL     1      -0.067  11.353  18.550  0.00  0.00    +0.024 HD
ATOM     44  H   UNL     1      -0.934  12.786  17.990  0.00  0.00    +0.024 HD
ATOM     45  H   UNL     1       0.471  12.962  19.050  0.00  0.00    +0.024 HD
ENDBRANCH  40  42
BRANCH  40  46
ATOM     46  C   UNL     1      -1.558  13.633  20.739  0.00  0.00    +0.014 C 
ATOM     47  H   UNL     1      -0.904  13.741  21.613  0.00  0.00    +0.035 HD
ATOM     48  H   UNL     1      -1.252  14.427  20.049  0.00  0.00    +0.035 HD
BRANCH  46  49
ATOM     49  C   UNL     1      -2.964  13.850  21.191  0.00  0.00    +0.134 A 
ATOM     50  N   UNL     1      -4.047  13.614  20.474  0.00  0.00    -0.135 NA
ATOM     51  N   UNL     1      -5.147  13.944  21.228  0.00  0.00    -0.138 NA
ATOM     52  C   UNL     1      -4.715  14.365  22.392  0.00  0.00    +0.120 A 
ATOM     53  N   UNL     1      -3.355  14.315  22.421  0.00  0.00    -0.320 N 
ATOM     54  H   UNL     1      -5.329  14.701  23.216  0.00  0.00    +0.105 HD
BRANCH  53  55
ATOM     55  C   UNL     1      -2.539  14.688  23.544  0.00  0.00    +0.014 C 
ATOM     56  H   UNL     1      -1.628  14.085  23.527  0.00  0.00    +0.046 HD
ATOM     57  H   UNL     1      -2.278  15.747  23.459  0.00  0.00    +0.046 HD
ATOM     58  H   UNL     1      -3.086  14.534  24.476  0.00  0.00    +0.046 HD
ENDBRANCH  53  55
ENDBRANCH  46  49
ENDBRANCH  40  46
ENDBRANCH   1  40
TORSDOF 9
ENDMDL
MODEL 18
REMARK VINA RESULT:    -7.265      3.367      9.932
REMARK INTER + INTRA:         -11.052
REMARK INTER:                 -10.327
REMARK INTRA:                  -0.725
REMARK UNBOUND:                -0.602
REMARK  Name = 
REMARK  9 active torsions:
REMARK  status: ('A' for Active; 'I' for Inactive)
REMARK    1  A    between atoms: C_1  and  C_2
REMARK    2  A    between atoms: C_2  and  C_3
REMARK    3  A    between atoms: C_2  and  C_10
REMARK    4  A    between atoms: C_3  and  C_4
REMARK    5  A    between atoms: N_8  and  C_9
REMARK    6  A    between atoms: C_14  and  N_15
REMARK    7  A    between atoms: C_16  and  C_18
REMARK    8  A    between atoms: C_20  and  C_21
REMARK    9  A    between atoms: C_26  and  O_27
REMARK                            x       y       z     vdW  Elec       q    Type
REMARK                         _______ _______ _______ _____ _____    ______ ____
ROOT
ATOM      1  C   UNL     1       4.322   4.736  17.019  0.00  0.00    -0.042 A 
ATOM      2  C   UNL     1       3.543   3.575  16.946  0.00  0.00    -0.058 A 
ATOM      3  C   UNL     1       2.318   3.501  17.607  0.00  0.00    -0.060 A 
ATOM      4  C   UNL     1       1.862   4.583  18.361  0.00  0.00    -0.040 A 
ATOM      5  C   UNL     1       2.630   5.746  18.474  0.00  0.00    +0.034 A 
ATOM      6  C   UNL     1       3.851   5.814  17.797  0.00  0.00    -0.037 A 
ATOM      7  H   UNL     1       3.878   2.710  16.377  0.00  0.00    +0.062 HD
ATOM      8  H   UNL     1       1.718   2.597  17.533  0.00  0.00    +0.062 HD
ATOM      9  H   UNL     1       0.902   4.495  18.864  0.00  0.00    +0.064 HD
ATOM     10  H   UNL     1       4.459   6.713  17.845  0.00  0.00    +0.064 HD
ENDROOT
BRANCH   5  11
ATOM     11  N   UNL     1       2.111   6.786  19.272  0.00  0.00    -0.280 N 
ATOM     12  C   UNL     1       1.782   8.073  18.867  0.00  0.00    +0.267 C 
ATOM     13  O   UNL     1       1.917   8.548  17.746  0.00  0.00    -0.268 OA
ATOM     14  H   UNL     1       1.928   6.543  20.239  0.00  0.00    +0.155 HD
BRANCH  12  15
ATOM     15  C   UNL     1       1.238   8.937  19.959  0.00  0.00    +0.126 A 
ATOM     16  C   UNL     1       0.861  10.241  19.688  0.00  0.00    -0.019 A 
ATOM     17  C   UNL     1       0.361  10.996  20.746  0.00  0.00    +0.040 A 
ATOM     18  C   UNL     1       0.285  10.455  22.028  0.00  0.00    -0.031 A 
ATOM     19  C   UNL     1       0.681   9.140  22.193  0.00  0.00    +0.029 A 
ATOM     20  N   UNL     1       1.147   8.370  21.189  0.00  0.00    -0.250 NA
ATOM     21  H   UNL     1       0.933  10.662  18.691  0.00  0.00    +0.065 HD
ATOM     22  H   UNL     1      -0.051  11.040  22.876  0.00  0.00    +0.064 HD
ATOM     23  H   UNL     1       0.642   8.658  23.167  0.00  0.00    +0.083 HD
BRANCH  17  24
ATOM     24  C   UNL     1      -0.002  12.403  20.485  0.00  0.00    +0.247 C 
ATOM     25  O   UNL     1       0.843  13.118  19.955  0.00  0.00    -0.270 OA
ATOM     26  N   UNL     1      -1.266  12.841  20.824  0.00  0.00    -0.295 N 
ATOM     27  C   UNL     1      -2.422  12.033  21.193  0.00  0.00    +0.017 C 
ATOM     28  C   UNL     1      -3.621  12.913  20.874  0.00  0.00    -0.010 C 
ATOM     29  C   UNL     1      -3.086  14.324  21.098  0.00  0.00    +0.072 C 
ATOM     30  C   UNL     1      -1.657  14.217  20.565  0.00  0.00    +0.041 C 
ATOM     31  H   UNL     1      -2.365  11.833  22.268  0.00  0.00    +0.047 HD
ATOM     32  H   UNL     1      -2.439  11.087  20.646  0.00  0.00    +0.047 HD
ATOM     33  H   UNL     1      -3.929  12.784  19.829  0.00  0.00    +0.031 HD
ATOM     34  H   UNL     1      -4.491  12.687  21.497  0.00  0.00    +0.031 HD
ATOM     35  H   UNL     1      -3.089  14.567  22.166  0.00  0.00    +0.061 HD
ATOM     36  H   UNL     1      -1.607  14.405  19.486  0.00  0.00    +0.049 HD
ATOM     37  H   UNL     1      -0.972  14.909  21.064  0.00  0.00    +0.049 HD
BRANCH  29  38
ATOM     38  O   UNL     1      -3.875  15.266  20.395  0.00  0.00    -0.390 OA
ATOM     39  H   UNL     1      -4.762  15.268  20.795  0.00  0.00    +0.210 HD
ENDBRANCH  29  38
ENDBRANCH  17  24
ENDBRANCH  12  15
ENDBRANCH   5  11
BRANCH   1  40
ATOM     40  C   UNL     1       5.666   4.872  16.314  0.00  0.00    -0.012 C 
ATOM     41  H   UNL     1       5.686   5.889  15.895  0.00  0.00    +0.035 HD
BRANCH  40  42
ATOM     42  C   UNL     1       5.850   3.952  15.099  0.00  0.00    -0.058 C 
ATOM     43  H   UNL     1       6.791   3.395  15.180  0.00  0.00    +0.024 HD
ATOM     44  H   UNL     1       5.044   3.220  14.996  0.00  0.00    +0.024 HD
ATOM     45  H   UNL     1       5.890   4.536  14.173  0.00  0.00    +0.024 HD
ENDBRANCH  40  42
BRANCH  40  46
ATOM     46  C   UNL     1       6.855   4.787  17.296  0.00  0.00    +0.014 C 
ATOM     47  H   UNL     1       6.529   4.258  18.201  0.00  0.00    +0.035 HD
ATOM     48  H   UNL     1       7.648   4.165  16.867  0.00  0.00    +0.035 HD
BRANCH  46  49
ATOM     49  C   UNL     1       7.401   6.112  17.713  0.00  0.00    +0.134 A 
ATOM     50  N   UNL     1       7.370   7.218  16.992  0.00  0.00    -0.135 NA
ATOM     51  N   UNL     1       7.976   8.220  17.710  0.00  0.00    -0.138 NA
ATOM     52  C   UNL     1       8.354   7.711  18.857  0.00  0.00    +0.120 A 
ATOM     53  N   UNL     1       8.007   6.395  18.911  0.00  0.00    -0.320 N 
ATOM     54  H   UNL     1       8.862   8.238  19.652  0.00  0.00    +0.105 HD
BRANCH  53  55
ATOM     55  C   UNL     1       8.252   5.521  20.026  0.00  0.00    +0.014 C 
ATOM     56  H   UNL     1       7.327   5.421  20.597  0.00  0.00    +0.046 HD
ATOM     57  H   UNL     1       8.558   4.542  19.649  0.00  0.00    +0.046 HD
ATOM     58  H   UNL     1       9.051   5.923  20.651  0.00  0.00    +0.046 HD
ENDBRANCH  53  55
ENDBRANCH  46  49
ENDBRANCH  40  46
ENDBRANCH   1  40
TORSDOF 9
ENDMDL
MODEL 19
REMARK VINA RESULT:    -7.222      3.452      5.097
REMARK INTER + INTRA:         -10.991
REMARK INTER:                 -10.134
REMARK INTRA:                  -0.856
REMARK UNBOUND:                -0.602
REMARK  Name = 
REMARK  9 active torsions:
REMARK  status: ('A' for Active; 'I' for Inactive)
REMARK    1  A    between atoms: C_1  and  C_2
REMARK    2  A    between atoms: C_2  and  C_3
REMARK    3  A    between atoms: C_2  and  C_10
REMARK    4  A    between atoms: C_3  and  C_4
REMARK    5  A    between atoms: N_8  and  C_9
REMARK    6  A    between atoms: C_14  and  N_15
REMARK    7  A    between atoms: C_16  and  C_18
REMARK    8  A    between atoms: C_20  and  C_21
REMARK    9  A    between atoms: C_26  and  O_27
REMARK                            x       y       z     vdW  Elec       q    Type
REMARK                         _______ _______ _______ _____ _____    ______ ____
ROOT
ATOM      1  C   UNL     1       0.577  12.460  19.011  0.00  0.00    -0.042 A 
ATOM      2  C   UNL     1      -0.709  12.510  18.459  0.00  0.00    -0.058 A 
ATOM      3  C   UNL     1      -1.388  11.336  18.136  0.00  0.00    -0.060 A 
ATOM      4  C   UNL     1      -0.784  10.096  18.351  0.00  0.00    -0.040 A 
ATOM      5  C   UNL     1       0.509  10.016  18.877  0.00  0.00    +0.034 A 
ATOM      6  C   UNL     1       1.175  11.199  19.207  0.00  0.00    -0.037 A 
ATOM      7  H   UNL     1      -1.201  13.462  18.268  0.00  0.00    +0.062 HD
ATOM      8  H   UNL     1      -2.390  11.389  17.718  0.00  0.00    +0.062 HD
ATOM      9  H   UNL     1      -1.339   9.199  18.090  0.00  0.00    +0.064 HD
ATOM     10  H   UNL     1       2.171  11.169  19.641  0.00  0.00    +0.064 HD
ENDROOT
BRANCH   5  11
ATOM     11  N   UNL     1       1.059   8.728  19.042  0.00  0.00    -0.280 N 
ATOM     12  C   UNL     1       1.473   8.136  20.228  0.00  0.00    +0.267 C 
ATOM     13  O   UNL     1       1.467   8.643  21.343  0.00  0.00    -0.268 OA
ATOM     14  H   UNL     1       1.118   8.168  18.199  0.00  0.00    +0.155 HD
BRANCH  12  15
ATOM     15  C   UNL     1       1.999   6.746  20.066  0.00  0.00    +0.126 A 
ATOM     16  C   UNL     1       2.602   6.367  18.879  0.00  0.00    -0.019 A 
ATOM     17  C   UNL     1       3.072   5.059  18.789  0.00  0.00    +0.040 A 
ATOM     18  C   UNL     1       2.901   4.171  19.849  0.00  0.00    -0.031 A 
ATOM     19  C   UNL     1       2.292   4.649  20.994  0.00  0.00    +0.029 A 
ATOM     20  N   UNL     1       1.845   5.915  21.128  0.00  0.00    -0.250 NA
ATOM     21  H   UNL     1       2.722   7.059  18.052  0.00  0.00    +0.065 HD
ATOM     22  H   UNL     1       3.212   3.135  19.782  0.00  0.00    +0.064 HD
ATOM     23  H   UNL     1       2.133   4.008  21.858  0.00  0.00    +0.083 HD
BRANCH  17  24
ATOM     24  C   UNL     1       3.676   4.625  17.514  0.00  0.00    +0.247 C 
ATOM     25  O   UNL     1       2.958   4.021  16.723  0.00  0.00    -0.270 OA
ATOM     26  N   UNL     1       4.998   4.930  17.262  0.00  0.00    -0.295 N 
ATOM     27  C   UNL     1       5.853   5.863  17.987  0.00  0.00    +0.017 C 
ATOM     28  C   UNL     1       6.927   6.255  16.984  0.00  0.00    -0.010 C 
ATOM     29  C   UNL     1       7.062   5.009  16.114  0.00  0.00    +0.072 C 
ATOM     30  C   UNL     1       5.615   4.529  16.008  0.00  0.00    +0.041 C 
ATOM     31  H   UNL     1       6.293   5.327  18.835  0.00  0.00    +0.047 HD
ATOM     32  H   UNL     1       5.286   6.723  18.352  0.00  0.00    +0.047 HD
ATOM     33  H   UNL     1       6.598   7.108  16.378  0.00  0.00    +0.031 HD
ATOM     34  H   UNL     1       7.868   6.542  17.461  0.00  0.00    +0.031 HD
ATOM     35  H   UNL     1       7.689   4.262  16.615  0.00  0.00    +0.061 HD
ATOM     36  H   UNL     1       5.083   5.009  15.178  0.00  0.00    +0.049 HD
ATOM     37  H   UNL     1       5.543   3.445  15.877  0.00  0.00    +0.049 HD
BRANCH  29  38
ATOM     38  O   UNL     1       7.633   5.343  14.863  0.00  0.00    -0.390 OA
ATOM     39  H   UNL     1       7.839   6.295  14.874  0.00  0.00    +0.210 HD
ENDBRANCH  29  38
ENDBRANCH  17  24
ENDBRANCH  12  15
ENDBRANCH   5  11
BRANCH   1  40
ATOM     40  C   UNL     1       1.361  13.712  19.384  0.00  0.00    -0.012 C 
ATOM     41  H   UNL     1       1.559  13.633  20.464  0.00  0.00    +0.035 HD
BRANCH  40  42
ATOM     42  C   UNL     1       0.584  15.027  19.231  0.00  0.00    -0.058 C 
ATOM     43  H   UNL     1       0.768  15.682  20.091  0.00  0.00    +0.024 HD
ATOM     44  H   UNL     1       0.864  15.582  18.331  0.00  0.00    +0.024 HD
ATOM     45  H   UNL     1      -0.494  14.838  19.184  0.00  0.00    +0.024 HD
ENDBRANCH  40  42
BRANCH  40  46
ATOM     46  C   UNL     1       2.742  13.766  18.695  0.00  0.00    +0.014 C 
ATOM     47  H   UNL     1       3.035  12.747  18.413  0.00  0.00    +0.035 HD
ATOM     48  H   UNL     1       2.665  14.317  17.752  0.00  0.00    +0.035 HD
BRANCH  46  49
ATOM     49  C   UNL     1       3.828  14.337  19.545  0.00  0.00    +0.134 A 
ATOM     50  N   UNL     1       3.799  14.448  20.860  0.00  0.00    -0.135 NA
ATOM     51  N   UNL     1       4.974  15.026  21.272  0.00  0.00    -0.138 NA
ATOM     52  C   UNL     1       5.702  15.247  20.205  0.00  0.00    +0.120 A 
ATOM     53  N   UNL     1       5.031  14.822  19.098  0.00  0.00    -0.320 N 
ATOM     54  H   UNL     1       6.686  15.693  20.185  0.00  0.00    +0.105 HD
BRANCH  53  55
ATOM     55  C   UNL     1       5.531  14.893  17.752  0.00  0.00    +0.014 C 
ATOM     56  H   UNL     1       4.872  15.542  17.172  0.00  0.00    +0.046 HD
ATOM     57  H   UNL     1       6.539  15.316  17.769  0.00  0.00    +0.046 HD
ATOM     58  H   UNL     1       5.575  13.896  17.313  0.00  0.00    +0.046 HD
ENDBRANCH  53  55
ENDBRANCH  46  49
ENDBRANCH  40  46
ENDBRANCH   1  40
TORSDOF 9
ENDMDL
MODEL 20
REMARK VINA RESULT:    -7.209      2.983      4.219
REMARK INTER + INTRA:         -10.973
REMARK INTER:                  -9.949
REMARK INTRA:                  -1.024
REMARK UNBOUND:                -0.602
REMARK  Name = 
REMARK  9 active torsions:
REMARK  status: ('A' for Active; 'I' for Inactive)
REMARK    1  A    between atoms: C_1  and  C_2
REMARK    2  A    between atoms: C_2  and  C_3
REMARK    3  A    between atoms: C_2  and  C_10
REMARK    4  A    between atoms: C_3  and  C_4
REMARK    5  A    between atoms: N_8  and  C_9
REMARK    6  A    between atoms: C_14  and  N_15
REMARK    7  A    between atoms: C_16  and  C_18
REMARK    8  A    between atoms: C_20  and  C_21
REMARK    9  A    between atoms: C_26  and  O_27
REMARK                            x       y       z     vdW  Elec       q    Type
REMARK                         _______ _______ _______ _____ _____    ______ ____
ROOT
ATOM      1  C   UNL     1       0.593  12.381  19.106  0.00  0.00    -0.042 A 
ATOM      2  C   UNL     1      -0.643  12.443  18.452  0.00  0.00    -0.058 A 
ATOM      3  C   UNL     1      -1.280  11.277  18.028  0.00  0.00    -0.060 A 
ATOM      4  C   UNL     1      -0.682  10.035  18.241  0.00  0.00    -0.040 A 
ATOM      5  C   UNL     1       0.564   9.943  18.868  0.00  0.00    +0.034 A 
ATOM      6  C   UNL     1       1.188  11.117  19.300  0.00  0.00    -0.037 A 
ATOM      7  H   UNL     1      -1.129  13.398  18.260  0.00  0.00    +0.062 HD
ATOM      8  H   UNL     1      -2.245  11.340  17.531  0.00  0.00    +0.062 HD
ATOM      9  H   UNL     1      -1.203   9.145  17.899  0.00  0.00    +0.064 HD
ATOM     10  H   UNL     1       2.146  11.077  19.813  0.00  0.00    +0.064 HD
ENDROOT
BRANCH   5  11
ATOM     11  N   UNL     1       1.113   8.654  19.026  0.00  0.00    -0.280 N 
ATOM     12  C   UNL     1       1.465   8.029  20.215  0.00  0.00    +0.267 C 
ATOM     13  O   UNL     1       1.393   8.502  21.343  0.00  0.00    -0.268 OA
ATOM     14  H   UNL     1       1.224   8.120  18.172  0.00  0.00    +0.155 HD
BRANCH  12  15
ATOM     15  C   UNL     1       2.009   6.647  20.042  0.00  0.00    +0.126 A 
ATOM     16  C   UNL     1       2.610   6.284  18.850  0.00  0.00    -0.019 A 
ATOM     17  C   UNL     1       3.098   4.983  18.749  0.00  0.00    +0.040 A 
ATOM     18  C   UNL     1       2.946   4.087  19.805  0.00  0.00    -0.031 A 
ATOM     19  C   UNL     1       2.337   4.550  20.957  0.00  0.00    +0.029 A 
ATOM     20  N   UNL     1       1.874   5.809  21.101  0.00  0.00    -0.250 NA
ATOM     21  H   UNL     1       2.715   6.982  18.025  0.00  0.00    +0.065 HD
ATOM     22  H   UNL     1       3.270   3.056  19.730  0.00  0.00    +0.064 HD
ATOM     23  H   UNL     1       2.192   3.902  21.818  0.00  0.00    +0.083 HD
BRANCH  17  24
ATOM     24  C   UNL     1       3.699   4.564  17.467  0.00  0.00    +0.247 C 
ATOM     25  O   UNL     1       2.985   3.953  16.679  0.00  0.00    -0.270 OA
ATOM     26  N   UNL     1       5.014   4.892  17.208  0.00  0.00    -0.295 N 
ATOM     27  C   UNL     1       5.860   5.835  17.931  0.00  0.00    +0.017 C 
ATOM     28  C   UNL     1       6.920   6.249  16.923  0.00  0.00    -0.010 C 
ATOM     29  C   UNL     1       7.069   5.009  16.046  0.00  0.00    +0.072 C 
ATOM     30  C   UNL     1       5.629   4.506  15.948  0.00  0.00    +0.041 C 
ATOM     31  H   UNL     1       6.314   5.302  18.773  0.00  0.00    +0.047 HD
ATOM     32  H   UNL     1       5.281   6.684  18.304  0.00  0.00    +0.047 HD
ATOM     33  H   UNL     1       6.573   7.099  16.323  0.00  0.00    +0.031 HD
ATOM     34  H   UNL     1       7.860   6.548  17.395  0.00  0.00    +0.031 HD
ATOM     35  H   UNL     1       7.711   4.270  16.539  0.00  0.00    +0.061 HD
ATOM     36  H   UNL     1       5.084   4.982  15.124  0.00  0.00    +0.049 HD
ATOM     37  H   UNL     1       5.573   3.422  15.812  0.00  0.00    +0.049 HD
BRANCH  29  38
ATOM     38  O   UNL     1       7.626   5.358  14.792  0.00  0.00    -0.390 OA
ATOM     39  H   UNL     1       8.579   5.162  14.825  0.00  0.00    +0.210 HD
ENDBRANCH  29  38
ENDBRANCH  17  24
ENDBRANCH  12  15
ENDBRANCH   5  11
BRANCH   1  40
ATOM     40  C   UNL     1       1.331  13.622  19.593  0.00  0.00    -0.012 C 
ATOM     41  H   UNL     1       0.675  14.474  19.357  0.00  0.00    +0.035 HD
BRANCH  40  42
ATOM     42  C   UNL     1       2.638  13.927  18.849  0.00  0.00    -0.058 C 
ATOM     43  H   UNL     1       2.939  13.068  18.238  0.00  0.00    +0.024 HD
ATOM     44  H   UNL     1       2.555  14.791  18.183  0.00  0.00    +0.024 HD
ATOM     45  H   UNL     1       3.450  14.130  19.557  0.00  0.00    +0.024 HD
ENDBRANCH  40  42
BRANCH  40  46
ATOM     46  C   UNL     1       1.515  13.632  21.126  0.00  0.00    +0.014 C 
ATOM     47  H   UNL     1       1.827  12.631  21.450  0.00  0.00    +0.035 HD
ATOM     48  H   UNL     1       2.344  14.295  21.396  0.00  0.00    +0.035 HD
BRANCH  46  49
ATOM     49  C   UNL     1       0.285  13.998  21.888  0.00  0.00    +0.134 A 
ATOM     50  N   UNL     1      -0.124  15.226  22.145  0.00  0.00    -0.135 NA
ATOM     51  N   UNL     1      -1.285  15.153  22.874  0.00  0.00    -0.138 NA
ATOM     52  C   UNL     1      -1.569  13.884  23.039  0.00  0.00    +0.120 A 
ATOM     53  N   UNL     1      -0.620  13.120  22.431  0.00  0.00    -0.320 N 
ATOM     54  H   UNL     1      -2.421  13.485  23.570  0.00  0.00    +0.105 HD
BRANCH  53  55
ATOM     55  C   UNL     1      -0.615  11.683  22.394  0.00  0.00    +0.014 C 
ATOM     56  H   UNL     1      -1.646  11.335  22.310  0.00  0.00    +0.046 HD
ATOM     57  H   UNL     1      -0.044  11.351  21.523  0.00  0.00    +0.046 HD
ATOM     58  H   UNL     1      -0.145  11.285  23.295  0.00  0.00    +0.046 HD
ENDBRANCH  53  55
ENDBRANCH  46  49
ENDBRANCH  40  46
ENDBRANCH   1  40
TORSDOF 9
ENDMDL
MODEL 21
REMARK VINA RESULT:    -7.148      3.256      9.627
REMARK INTER + INTRA:         -10.885
REMARK INTER:                 -10.234
REMARK INTRA:                  -0.651
REMARK UNBOUND:                -0.602
REMARK  Name = 
REMARK  9 active torsions:
REMARK  status: ('A' for Active; 'I' for Inactive)
REMARK    1  A    between atoms: C_1  and  C_2
REMARK    2  A    between atoms: C_2  and  C_3
REMARK    3  A    between atoms: C_2  and  C_10
REMARK    4  A    between atoms: C_3  and  C_4
REMARK    5  A    between atoms: N_8  and  C_9
REMARK    6  A    between atoms: C_14  and  N_15
REMARK    7  A    between atoms: C_16  and  C_18
REMARK    8  A    between atoms: C_20  and  C_21
REMARK    9  A    between atoms: C_26  and  O_27
REMARK                            x       y       z     vdW  Elec       q    Type
REMARK                         _______ _______ _______ _____ _____    ______ ____
ROOT
ATOM      1  C   UNL     1       4.453   4.640  17.305  0.00  0.00    -0.042 A 
ATOM      2  C   UNL     1       5.261   4.674  16.163  0.00  0.00    -0.058 A 
ATOM      3  C   UNL     1       5.457   5.868  15.469  0.00  0.00    -0.060 A 
ATOM      4  C   UNL     1       4.838   7.041  15.903  0.00  0.00    -0.040 A 
ATOM      5  C   UNL     1       4.005   7.032  17.025  0.00  0.00    +0.034 A 
ATOM      6  C   UNL     1       3.824   5.832  17.720  0.00  0.00    -0.037 A 
ATOM      7  H   UNL     1       5.747   3.774  15.792  0.00  0.00    +0.062 HD
ATOM      8  H   UNL     1       6.096   5.882  14.589  0.00  0.00    +0.062 HD
ATOM      9  H   UNL     1       5.011   7.955  15.341  0.00  0.00    +0.064 HD
ATOM     10  H   UNL     1       3.203   5.798  18.611  0.00  0.00    +0.064 HD
ENDROOT
BRANCH   5  11
ATOM     11  N   UNL     1       3.397   8.252  17.387  0.00  0.00    -0.280 N 
ATOM     12  C   UNL     1       2.066   8.461  17.725  0.00  0.00    +0.267 C 
ATOM     13  O   UNL     1       1.171   7.626  17.735  0.00  0.00    -0.268 OA
ATOM     14  H   UNL     1       4.020   9.050  17.439  0.00  0.00    +0.155 HD
BRANCH  12  15
ATOM     15  C   UNL     1       1.741   9.878  18.076  0.00  0.00    +0.126 A 
ATOM     16  C   UNL     1       0.506  10.191  18.618  0.00  0.00    -0.019 A 
ATOM     17  C   UNL     1       0.262  11.527  18.924  0.00  0.00    +0.040 A 
ATOM     18  C   UNL     1       1.220  12.502  18.654  0.00  0.00    -0.031 A 
ATOM     19  C   UNL     1       2.424  12.085  18.117  0.00  0.00    +0.029 A 
ATOM     20  N   UNL     1       2.707  10.798  17.830  0.00  0.00    -0.250 NA
ATOM     21  H   UNL     1      -0.242   9.430  18.816  0.00  0.00    +0.065 HD
ATOM     22  H   UNL     1       1.032  13.553  18.835  0.00  0.00    +0.064 HD
ATOM     23  H   UNL     1       3.215  12.795  17.887  0.00  0.00    +0.083 HD
BRANCH  17  24
ATOM     24  C   UNL     1      -1.067  11.885  19.460  0.00  0.00    +0.247 C 
ATOM     25  O   UNL     1      -1.966  12.098  18.652  0.00  0.00    -0.270 OA
ATOM     26  N   UNL     1      -1.242  11.944  20.828  0.00  0.00    -0.295 N 
ATOM     27  C   UNL     1      -0.344  11.450  21.866  0.00  0.00    +0.017 C 
ATOM     28  C   UNL     1      -1.242  11.220  23.071  0.00  0.00    -0.010 C 
ATOM     29  C   UNL     1      -2.331  12.274  22.899  0.00  0.00    +0.072 C 
ATOM     30  C   UNL     1      -2.542  12.278  21.385  0.00  0.00    +0.041 C 
ATOM     31  H   UNL     1       0.391  12.234  22.075  0.00  0.00    +0.047 HD
ATOM     32  H   UNL     1       0.173  10.541  21.547  0.00  0.00    +0.047 HD
ATOM     33  H   UNL     1      -1.678  10.214  23.042  0.00  0.00    +0.031 HD
ATOM     34  H   UNL     1      -0.709  11.314  24.021  0.00  0.00    +0.031 HD
ATOM     35  H   UNL     1      -1.976  13.249  23.249  0.00  0.00    +0.061 HD
ATOM     36  H   UNL     1      -3.271  11.522  21.070  0.00  0.00    +0.049 HD
ATOM     37  H   UNL     1      -2.878  13.251  21.012  0.00  0.00    +0.049 HD
BRANCH  29  38
ATOM     38  O   UNL     1      -3.491  11.905  23.623  0.00  0.00    -0.390 OA
ATOM     39  H   UNL     1      -3.277  11.109  24.141  0.00  0.00    +0.210 HD
ENDBRANCH  29  38
ENDBRANCH  17  24
ENDBRANCH  12  15
ENDBRANCH   5  11
BRANCH   1  40
ATOM     40  C   UNL     1       4.207   3.364  18.102  0.00  0.00    -0.012 C 
ATOM     41  H   UNL     1       4.989   2.657  17.787  0.00  0.00    +0.035 HD
BRANCH  40  42
ATOM     42  C   UNL     1       2.888   2.648  17.777  0.00  0.00    -0.058 C 
ATOM     43  H   UNL     1       3.013   1.562  17.857  0.00  0.00    +0.024 HD
ATOM     44  H   UNL     1       2.075   2.935  18.450  0.00  0.00    +0.024 HD
ATOM     45  H   UNL     1       2.567   2.871  16.753  0.00  0.00    +0.024 HD
ENDBRANCH  40  42
BRANCH  40  46
ATOM     46  C   UNL     1       4.400   3.574  19.619  0.00  0.00    +0.014 C 
ATOM     47  H   UNL     1       5.234   2.947  19.959  0.00  0.00    +0.035 HD
ATOM     48  H   UNL     1       4.715   4.605  19.815  0.00  0.00    +0.035 HD
BRANCH  46  49
ATOM     49  C   UNL     1       3.204   3.230  20.442  0.00  0.00    +0.134 A 
ATOM     50  N   UNL     1       2.969   2.060  21.006  0.00  0.00    -0.135 NA
ATOM     51  N   UNL     1       1.768   2.132  21.670  0.00  0.00    -0.138 NA
ATOM     52  C   UNL     1       1.300   3.346  21.508  0.00  0.00    +0.120 A 
ATOM     53  N   UNL     1       2.169   4.075  20.755  0.00  0.00    -0.320 N 
ATOM     54  H   UNL     1       0.372   3.728  21.906  0.00  0.00    +0.105 HD
BRANCH  53  55
ATOM     55  C   UNL     1       1.988   5.453  20.388  0.00  0.00    +0.014 C 
ATOM     56  H   UNL     1       2.971   5.917  20.289  0.00  0.00    +0.046 HD
ATOM     57  H   UNL     1       1.463   5.500  19.430  0.00  0.00    +0.046 HD
ATOM     58  H   UNL     1       1.392   5.969  21.142  0.00  0.00    +0.046 HD
ENDBRANCH  53  55
ENDBRANCH  46  49
ENDBRANCH  40  46
ENDBRANCH   1  40
TORSDOF 9
ENDMDL
MODEL 22
REMARK VINA RESULT:    -7.147      2.888      9.132
REMARK INTER + INTRA:         -10.883
REMARK INTER:                 -10.175
REMARK INTRA:                  -0.709
REMARK UNBOUND:                -0.602
REMARK  Name = 
REMARK  9 active torsions:
REMARK  status: ('A' for Active; 'I' for Inactive)
REMARK    1  A    between atoms: C_1  and  C_2
REMARK    2  A    between atoms: C_2  and  C_3
REMARK    3  A    between atoms: C_2  and  C_10
REMARK    4  A    between atoms: C_3  and  C_4
REMARK    5  A    between atoms: N_8  and  C_9
REMARK    6  A    between atoms: C_14  and  N_15
REMARK    7  A    between atoms: C_16  and  C_18
REMARK    8  A    between atoms: C_20  and  C_21
REMARK    9  A    between atoms: C_26  and  O_27
REMARK                            x       y       z     vdW  Elec       q    Type
REMARK                         _______ _______ _______ _____ _____    ______ ____
ROOT
ATOM      1  C   UNL     1       3.387   5.131  18.857  0.00  0.00    -0.042 A 
ATOM      2  C   UNL     1       3.238   4.192  19.884  0.00  0.00    -0.058 A 
ATOM      3  C   UNL     1       2.384   4.445  20.958  0.00  0.00    -0.060 A 
ATOM      4  C   UNL     1       1.679   5.647  21.023  0.00  0.00    -0.040 A 
ATOM      5  C   UNL     1       1.828   6.615  20.026  0.00  0.00    +0.034 A 
ATOM      6  C   UNL     1       2.677   6.346  18.948  0.00  0.00    -0.037 A 
ATOM      7  H   UNL     1       3.784   3.251  19.868  0.00  0.00    +0.062 HD
ATOM      8  H   UNL     1       2.270   3.702  21.743  0.00  0.00    +0.062 HD
ATOM      9  H   UNL     1       1.021   5.815  21.873  0.00  0.00    +0.064 HD
ATOM     10  H   UNL     1       2.795   7.068  18.144  0.00  0.00    +0.064 HD
ENDROOT
BRANCH   5  11
ATOM     11  N   UNL     1       1.099   7.813  20.175  0.00  0.00    -0.280 N 
ATOM     12  C   UNL     1       1.172   8.716  21.227  0.00  0.00    +0.267 C 
ATOM     13  O   UNL     1       1.861   8.616  22.236  0.00  0.00    -0.268 OA
ATOM     14  H   UNL     1       0.484   8.048  19.405  0.00  0.00    +0.155 HD
BRANCH  12  15
ATOM     15  C   UNL     1       0.275   9.903  21.078  0.00  0.00    +0.126 A 
ATOM     16  C   UNL     1      -0.064  10.361  19.816  0.00  0.00    -0.019 A 
ATOM     17  C   UNL     1      -0.903  11.470  19.742  0.00  0.00    +0.040 A 
ATOM     18  C   UNL     1      -1.345  12.103  20.902  0.00  0.00    -0.031 A 
ATOM     19  C   UNL     1      -0.954  11.563  22.114  0.00  0.00    +0.029 A 
ATOM     20  N   UNL     1      -0.163  10.477  22.227  0.00  0.00    -0.250 NA
ATOM     21  H   UNL     1       0.291   9.872  18.915  0.00  0.00    +0.065 HD
ATOM     22  H   UNL     1      -1.955  12.997  20.868  0.00  0.00    +0.064 HD
ATOM     23  H   UNL     1      -1.268  12.007  23.056  0.00  0.00    +0.083 HD
BRANCH  17  24
ATOM     24  C   UNL     1      -1.237  11.999  18.405  0.00  0.00    +0.247 C 
ATOM     25  O   UNL     1      -0.738  13.072  18.079  0.00  0.00    -0.270 OA
ATOM     26  N   UNL     1      -2.068  11.265  17.584  0.00  0.00    -0.295 N 
ATOM     27  C   UNL     1      -2.488   9.878  17.748  0.00  0.00    +0.017 C 
ATOM     28  C   UNL     1      -2.853   9.420  16.344  0.00  0.00    -0.010 C 
ATOM     29  C   UNL     1      -3.349  10.701  15.680  0.00  0.00    +0.072 C 
ATOM     30  C   UNL     1      -2.403  11.753  16.256  0.00  0.00    +0.041 C 
ATOM     31  H   UNL     1      -3.368   9.867  18.399  0.00  0.00    +0.047 HD
ATOM     32  H   UNL     1      -1.695   9.271  18.193  0.00  0.00    +0.047 HD
ATOM     33  H   UNL     1      -1.969   9.037  15.819  0.00  0.00    +0.031 HD
ATOM     34  H   UNL     1      -3.603   8.623  16.339  0.00  0.00    +0.031 HD
ATOM     35  H   UNL     1      -4.386  10.903  15.971  0.00  0.00    +0.061 HD
ATOM     36  H   UNL     1      -1.482  11.844  15.666  0.00  0.00    +0.049 HD
ATOM     37  H   UNL     1      -2.866  12.743  16.319  0.00  0.00    +0.049 HD
BRANCH  29  38
ATOM     38  O   UNL     1      -3.267  10.587  14.271  0.00  0.00    -0.390 OA
ATOM     39  H   UNL     1      -3.867   9.872  13.995  0.00  0.00    +0.210 HD
ENDBRANCH  29  38
ENDBRANCH  17  24
ENDBRANCH  12  15
ENDBRANCH   5  11
BRANCH   1  40
ATOM     40  C   UNL     1       4.303   4.904  17.660  0.00  0.00    -0.012 C 
ATOM     41  H   UNL     1       4.277   5.838  17.079  0.00  0.00    +0.035 HD
BRANCH  40  42
ATOM     42  C   UNL     1       3.822   3.827  16.678  0.00  0.00    -0.058 C 
ATOM     43  H   UNL     1       4.548   3.007  16.624  0.00  0.00    +0.024 HD
ATOM     44  H   UNL     1       2.858   3.395  16.963  0.00  0.00    +0.024 HD
ATOM     45  H   UNL     1       3.716   4.242  15.669  0.00  0.00    +0.024 HD
ENDBRANCH  40  42
BRANCH  40  46
ATOM     46  C   UNL     1       5.775   4.698  18.079  0.00  0.00    +0.014 C 
ATOM     47  H   UNL     1       5.800   4.340  19.116  0.00  0.00    +0.035 HD
ATOM     48  H   UNL     1       6.221   3.893  17.485  0.00  0.00    +0.035 HD
BRANCH  46  49
ATOM     49  C   UNL     1       6.613   5.930  18.000  0.00  0.00    +0.134 A 
ATOM     50  N   UNL     1       6.449   6.917  17.139  0.00  0.00    -0.135 NA
ATOM     51  N   UNL     1       7.417   7.863  17.375  0.00  0.00    -0.138 NA
ATOM     52  C   UNL     1       8.145   7.441  18.381  0.00  0.00    +0.120 A 
ATOM     53  N   UNL     1       7.674   6.238  18.813  0.00  0.00    -0.320 N 
ATOM     54  H   UNL     1       8.990   7.954  18.815  0.00  0.00    +0.105 HD
BRANCH  53  55
ATOM     55  C   UNL     1       8.219   5.485  19.909  0.00  0.00    +0.014 C 
ATOM     56  H   UNL     1       7.458   5.409  20.689  0.00  0.00    +0.046 HD
ATOM     57  H   UNL     1       8.483   4.484  19.556  0.00  0.00    +0.046 HD
ATOM     58  H   UNL     1       9.117   5.971  20.292  0.00  0.00    +0.046 HD
ENDBRANCH  53  55
ENDBRANCH  46  49
ENDBRANCH  40  46
ENDBRANCH   1  40
TORSDOF 9
ENDMDL
MODEL 23
REMARK VINA RESULT:    -7.129      3.622     10.276
REMARK INTER + INTRA:         -10.857
REMARK INTER:                 -10.753
REMARK INTRA:                  -0.103
REMARK UNBOUND:                -0.602
REMARK  Name = 
REMARK  9 active torsions:
REMARK  status: ('A' for Active; 'I' for Inactive)
REMARK    1  A    between atoms: C_1  and  C_2
REMARK    2  A    between atoms: C_2  and  C_3
REMARK    3  A    between atoms: C_2  and  C_10
REMARK    4  A    between atoms: C_3  and  C_4
REMARK    5  A    between atoms: N_8  and  C_9
REMARK    6  A    between atoms: C_14  and  N_15
REMARK    7  A    between atoms: C_16  and  C_18
REMARK    8  A    between atoms: C_20  and  C_21
REMARK    9  A    between atoms: C_26  and  O_27
REMARK                            x       y       z     vdW  Elec       q    Type
REMARK                         _______ _______ _______ _____ _____    ______ ____
ROOT
ATOM      1  C   UNL     1       3.492   5.016  18.986  0.00  0.00    -0.042 A 
ATOM      2  C   UNL     1       3.088   4.181  20.034  0.00  0.00    -0.058 A 
ATOM      3  C   UNL     1       2.139   4.615  20.960  0.00  0.00    -0.060 A 
ATOM      4  C   UNL     1       1.592   5.894  20.855  0.00  0.00    -0.040 A 
ATOM      5  C   UNL     1       1.995   6.759  19.834  0.00  0.00    +0.034 A 
ATOM      6  C   UNL     1       2.938   6.311  18.905  0.00  0.00    -0.037 A 
ATOM      7  H   UNL     1       3.506   3.183  20.150  0.00  0.00    +0.062 HD
ATOM      8  H   UNL     1       1.826   3.952  21.763  0.00  0.00    +0.062 HD
ATOM      9  H   UNL     1       0.854   6.202  21.592  0.00  0.00    +0.064 HD
ATOM     10  H   UNL     1       3.254   6.950  18.086  0.00  0.00    +0.064 HD
ENDROOT
BRANCH   5  11
ATOM     11  N   UNL     1       1.413   8.044  19.810  0.00  0.00    -0.280 N 
ATOM     12  C   UNL     1       1.181   8.883  20.892  0.00  0.00    +0.267 C 
ATOM     13  O   UNL     1       1.410   8.642  22.071  0.00  0.00    -0.268 OA
ATOM     14  H   UNL     1       1.177   8.397  18.890  0.00  0.00    +0.155 HD
BRANCH  12  15
ATOM     15  C   UNL     1       0.559  10.193  20.527  0.00  0.00    +0.126 A 
ATOM     16  C   UNL     1       0.321  11.143  21.505  0.00  0.00    -0.019 A 
ATOM     17  C   UNL     1      -0.260  12.343  21.103  0.00  0.00    +0.040 A 
ATOM     18  C   UNL     1      -0.614  12.547  19.771  0.00  0.00    -0.031 A 
ATOM     19  C   UNL     1      -0.328  11.538  18.870  0.00  0.00    +0.029 A 
ATOM     20  N   UNL     1       0.255  10.372  19.216  0.00  0.00    -0.250 NA
ATOM     21  H   UNL     1       0.588  10.975  22.543  0.00  0.00    +0.065 HD
ATOM     22  H   UNL     1      -1.115  13.451  19.445  0.00  0.00    +0.064 HD
ATOM     23  H   UNL     1      -0.576  11.636  17.816  0.00  0.00    +0.083 HD
BRANCH  17  24
ATOM     24  C   UNL     1      -0.564  13.349  22.140  0.00  0.00    +0.247 C 
ATOM     25  O   UNL     1       0.238  14.265  22.294  0.00  0.00    -0.270 OA
ATOM     26  N   UNL     1      -1.730  13.228  22.867  0.00  0.00    -0.295 N 
ATOM     27  C   UNL     1      -2.870  12.361  22.590  0.00  0.00    +0.017 C 
ATOM     28  C   UNL     1      -4.041  13.035  23.288  0.00  0.00    -0.010 C 
ATOM     29  C   UNL     1      -3.385  13.727  24.479  0.00  0.00    +0.072 C 
ATOM     30  C   UNL     1      -2.063  14.212  23.884  0.00  0.00    +0.041 C 
ATOM     31  H   UNL     1      -2.665  11.383  23.037  0.00  0.00    +0.047 HD
ATOM     32  H   UNL     1      -3.031  12.246  21.515  0.00  0.00    +0.047 HD
ATOM     33  H   UNL     1      -4.510  13.776  22.628  0.00  0.00    +0.031 HD
ATOM     34  H   UNL     1      -4.821  12.328  23.585  0.00  0.00    +0.031 HD
ATOM     35  H   UNL     1      -3.213  13.008  25.288  0.00  0.00    +0.061 HD
ATOM     36  H   UNL     1      -2.163  15.196  23.411  0.00  0.00    +0.049 HD
ATOM     37  H   UNL     1      -1.266  14.272  24.632  0.00  0.00    +0.049 HD
BRANCH  29  38
ATOM     38  O   UNL     1      -4.206  14.780  24.948  0.00  0.00    -0.390 OA
ATOM     39  H   UNL     1      -4.644  15.183  24.177  0.00  0.00    +0.210 HD
ENDBRANCH  29  38
ENDBRANCH  17  24
ENDBRANCH  12  15
ENDBRANCH   5  11
BRANCH   1  40
ATOM     40  C   UNL     1       4.523   4.592  17.946  0.00  0.00    -0.012 C 
ATOM     41  H   UNL     1       4.551   5.402  17.202  0.00  0.00    +0.035 HD
BRANCH  40  42
ATOM     42  C   UNL     1       4.144   3.342  17.139  0.00  0.00    -0.058 C 
ATOM     43  H   UNL     1       5.020   2.699  16.997  0.00  0.00    +0.024 HD
ATOM     44  H   UNL     1       3.372   2.741  17.627  0.00  0.00    +0.024 HD
ATOM     45  H   UNL     1       3.773   3.619  16.146  0.00  0.00    +0.024 HD
ENDBRANCH  40  42
BRANCH  40  46
ATOM     46  C   UNL     1       5.946   4.498  18.536  0.00  0.00    +0.014 C 
ATOM     47  H   UNL     1       5.870   4.306  19.614  0.00  0.00    +0.035 HD
ATOM     48  H   UNL     1       6.462   3.624  18.123  0.00  0.00    +0.035 HD
BRANCH  46  49
ATOM     49  C   UNL     1       6.770   5.727  18.346  0.00  0.00    +0.134 A 
ATOM     50  N   UNL     1       7.781   6.102  19.109  0.00  0.00    -0.135 NA
ATOM     51  N   UNL     1       8.277   7.285  18.620  0.00  0.00    -0.138 NA
ATOM     52  C   UNL     1       7.570   7.605  17.564  0.00  0.00    +0.120 A 
ATOM     53  N   UNL     1       6.619   6.654  17.346  0.00  0.00    -0.320 N 
ATOM     54  H   UNL     1       7.706   8.481  16.947  0.00  0.00    +0.105 HD
BRANCH  53  55
ATOM     55  C   UNL     1       5.671   6.668  16.266  0.00  0.00    +0.014 C 
ATOM     56  H   UNL     1       5.530   5.644  15.915  0.00  0.00    +0.046 HD
ATOM     57  H   UNL     1       4.720   7.064  16.633  0.00  0.00    +0.046 HD
ATOM     58  H   UNL     1       6.029   7.308  15.457  0.00  0.00    +0.046 HD
ENDBRANCH  53  55
ENDBRANCH  46  49
ENDBRANCH  40  46
ENDBRANCH   1  40
TORSDOF 9
ENDMDL
MODEL 24
REMARK VINA RESULT:    -7.044      2.577      3.554
REMARK INTER + INTRA:         -10.735
REMARK INTER:                  -9.976
REMARK INTRA:                  -0.759
REMARK UNBOUND:                -0.602
REMARK  Name = 
REMARK  9 active torsions:
REMARK  status: ('A' for Active; 'I' for Inactive)
REMARK    1  A    between atoms: C_1  and  C_2
REMARK    2  A    between atoms: C_2  and  C_3
REMARK    3  A    between atoms: C_2  and  C_10
REMARK    4  A    between atoms: C_3  and  C_4
REMARK    5  A    between atoms: N_8  and  C_9
REMARK    6  A    between atoms: C_14  and  N_15
REMARK    7  A    between atoms: C_16  and  C_18
REMARK    8  A    between atoms: C_20  and  C_21
REMARK    9  A    between atoms: C_26  and  O_27
REMARK                            x       y       z     vdW  Elec       q    Type
REMARK                         _______ _______ _______ _____ _____    ______ ____
ROOT
ATOM      1  C   UNL     1       0.451  10.495  20.409  0.00  0.00    -0.042 A 
ATOM      2  C   UNL     1      -0.135  10.858  19.191  0.00  0.00    -0.058 A 
ATOM      3  C   UNL     1       0.060  10.078  18.051  0.00  0.00    -0.060 A 
ATOM      4  C   UNL     1       0.853   8.932  18.114  0.00  0.00    -0.040 A 
ATOM      5  C   UNL     1       1.473   8.560  19.310  0.00  0.00    +0.034 A 
ATOM      6  C   UNL     1       1.262   9.342  20.449  0.00  0.00    -0.037 A 
ATOM      7  H   UNL     1      -0.749  11.752  19.107  0.00  0.00    +0.062 HD
ATOM      8  H   UNL     1      -0.411  10.365  17.114  0.00  0.00    +0.062 HD
ATOM      9  H   UNL     1       0.985   8.344  17.208  0.00  0.00    +0.064 HD
ATOM     10  H   UNL     1       1.709   9.065  21.400  0.00  0.00    +0.064 HD
ENDROOT
BRANCH   5  11
ATOM     11  N   UNL     1       2.278   7.402  19.287  0.00  0.00    -0.280 N 
ATOM     12  C   UNL     1       2.091   6.232  20.011  0.00  0.00    +0.267 C 
ATOM     13  O   UNL     1       1.208   6.009  20.831  0.00  0.00    -0.268 OA
ATOM     14  H   UNL     1       3.056   7.426  18.637  0.00  0.00    +0.155 HD
BRANCH  12  15
ATOM     15  C   UNL     1       3.119   5.179  19.748  0.00  0.00    +0.126 A 
ATOM     16  C   UNL     1       4.227   5.471  18.972  0.00  0.00    -0.019 A 
ATOM     17  C   UNL     1       5.149   4.449  18.762  0.00  0.00    +0.040 A 
ATOM     18  C   UNL     1       4.930   3.178  19.290  0.00  0.00    -0.031 A 
ATOM     19  C   UNL     1       3.795   2.991  20.057  0.00  0.00    +0.029 A 
ATOM     20  N   UNL     1       2.891   3.962  20.303  0.00  0.00    -0.250 NA
ATOM     21  H   UNL     1       4.388   6.459  18.552  0.00  0.00    +0.065 HD
ATOM     22  H   UNL     1       5.606   2.355  19.097  0.00  0.00    +0.064 HD
ATOM     23  H   UNL     1       3.568   2.025  20.501  0.00  0.00    +0.083 HD
BRANCH  17  24
ATOM     24  C   UNL     1       6.313   4.730  17.898  0.00  0.00    +0.247 C 
ATOM     25  O   UNL     1       7.403   4.871  18.444  0.00  0.00    -0.270 OA
ATOM     26  N   UNL     1       6.130   4.800  16.532  0.00  0.00    -0.295 N 
ATOM     27  C   UNL     1       4.962   4.383  15.765  0.00  0.00    +0.017 C 
ATOM     28  C   UNL     1       5.499   4.115  14.367  0.00  0.00    -0.010 C 
ATOM     29  C   UNL     1       6.663   5.094  14.249  0.00  0.00    +0.072 C 
ATOM     30  C   UNL     1       7.260   5.060  15.655  0.00  0.00    +0.041 C 
ATOM     31  H   UNL     1       4.252   5.215  15.753  0.00  0.00    +0.047 HD
ATOM     32  H   UNL     1       4.488   3.503  16.207  0.00  0.00    +0.047 HD
ATOM     33  H   UNL     1       5.861   3.083  14.282  0.00  0.00    +0.031 HD
ATOM     34  H   UNL     1       4.745   4.259  13.588  0.00  0.00    +0.031 HD
ATOM     35  H   UNL     1       6.294   6.096  14.003  0.00  0.00    +0.061 HD
ATOM     36  H   UNL     1       7.994   4.254  15.770  0.00  0.00    +0.049 HD
ATOM     37  H   UNL     1       7.745   6.003  15.927  0.00  0.00    +0.049 HD
BRANCH  29  38
ATOM     38  O   UNL     1       7.567   4.664  13.248  0.00  0.00    -0.390 OA
ATOM     39  H   UNL     1       7.575   3.691  13.252  0.00  0.00    +0.210 HD
ENDBRANCH  29  38
ENDBRANCH  17  24
ENDBRANCH  12  15
ENDBRANCH   5  11
BRANCH   1  40
ATOM     40  C   UNL     1       0.269  11.310  21.685  0.00  0.00    -0.012 C 
ATOM     41  H   UNL     1       1.227  11.247  22.222  0.00  0.00    +0.035 HD
BRANCH  40  42
ATOM     42  C   UNL     1      -0.762  10.740  22.669  0.00  0.00    -0.058 C 
ATOM     43  H   UNL     1      -1.412  11.538  23.046  0.00  0.00    +0.024 HD
ATOM     44  H   UNL     1      -1.404   9.979  22.216  0.00  0.00    +0.024 HD
ATOM     45  H   UNL     1      -0.263  10.284  23.532  0.00  0.00    +0.024 HD
ENDBRANCH  40  42
BRANCH  40  46
ATOM     46  C   UNL     1       0.035  12.808  21.395  0.00  0.00    +0.014 C 
ATOM     47  H   UNL     1      -0.870  12.912  20.784  0.00  0.00    +0.035 HD
ATOM     48  H   UNL     1      -0.184  13.337  22.330  0.00  0.00    +0.035 HD
BRANCH  46  49
ATOM     49  C   UNL     1       1.156  13.475  20.671  0.00  0.00    +0.134 A 
ATOM     50  N   UNL     1       2.439  13.347  20.955  0.00  0.00    -0.135 NA
ATOM     51  N   UNL     1       3.157  14.118  20.073  0.00  0.00    -0.138 NA
ATOM     52  C   UNL     1       2.301  14.692  19.263  0.00  0.00    +0.120 A 
ATOM     53  N   UNL     1       1.035  14.312  19.591  0.00  0.00    -0.320 N 
ATOM     54  H   UNL     1       2.544  15.364  18.452  0.00  0.00    +0.105 HD
BRANCH  53  55
ATOM     55  C   UNL     1      -0.156  14.735  18.907  0.00  0.00    +0.014 C 
ATOM     56  H   UNL     1       0.070  14.830  17.843  0.00  0.00    +0.046 HD
ATOM     57  H   UNL     1      -0.935  13.980  19.049  0.00  0.00    +0.046 HD
ATOM     58  H   UNL     1      -0.508  15.684  19.314  0.00  0.00    +0.046 HD
ENDBRANCH  53  55
ENDBRANCH  46  49
ENDBRANCH  40  46
ENDBRANCH   1  40
TORSDOF 9
ENDMDL
MODEL 25
REMARK VINA RESULT:    -7.037      2.693      8.912
REMARK INTER + INTRA:         -10.725
REMARK INTER:                 -11.089
REMARK INTRA:                   0.364
REMARK UNBOUND:                -0.602
REMARK  Name = 
REMARK  9 active torsions:
REMARK  status: ('A' for Active; 'I' for Inactive)
REMARK    1  A    between atoms: C_1  and  C_2
REMARK    2  A    between atoms: C_2  and  C_3
REMARK    3  A    between atoms: C_2  and  C_10
REMARK    4  A    between atoms: C_3  and  C_4
REMARK    5  A    between atoms: N_8  and  C_9
REMARK    6  A    between atoms: C_14  and  N_15
REMARK    7  A    between atoms: C_16  and  C_18
REMARK    8  A    between atoms: C_20  and  C_21
REMARK    9  A    between atoms: C_26  and  O_27
REMARK                            x       y       z     vdW  Elec       q    Type
REMARK                         _______ _______ _______ _____ _____    ______ ____
ROOT
ATOM      1  C   UNL     1       4.016   4.905  17.449  0.00  0.00    -0.042 A 
ATOM      2  C   UNL     1       4.826   5.582  16.529  0.00  0.00    -0.058 A 
ATOM      3  C   UNL     1       4.802   6.974  16.453  0.00  0.00    -0.060 A 
ATOM      4  C   UNL     1       3.959   7.707  17.289  0.00  0.00    -0.040 A 
ATOM      5  C   UNL     1       3.121   7.058  18.200  0.00  0.00    +0.034 A 
ATOM      6  C   UNL     1       3.161   5.663  18.276  0.00  0.00    -0.037 A 
ATOM      7  H   UNL     1       5.484   5.037  15.854  0.00  0.00    +0.062 HD
ATOM      8  H   UNL     1       5.444   7.487  15.741  0.00  0.00    +0.062 HD
ATOM      9  H   UNL     1       3.964   8.791  17.207  0.00  0.00    +0.064 HD
ATOM     10  H   UNL     1       2.540   5.130  18.991  0.00  0.00    +0.064 HD
ENDROOT
BRANCH   5  11
ATOM     11  N   UNL     1       2.281   7.867  18.994  0.00  0.00    -0.280 N 
ATOM     12  C   UNL     1       1.798   7.585  20.264  0.00  0.00    +0.267 C 
ATOM     13  O   UNL     1       1.986   6.562  20.912  0.00  0.00    -0.268 OA
ATOM     14  H   UNL     1       2.042   8.768  18.596  0.00  0.00    +0.155 HD
BRANCH  12  15
ATOM     15  C   UNL     1       0.939   8.663  20.845  0.00  0.00    +0.126 A 
ATOM     16  C   UNL     1       0.268   9.539  20.009  0.00  0.00    -0.019 A 
ATOM     17  C   UNL     1      -0.517  10.521  20.609  0.00  0.00    +0.040 A 
ATOM     18  C   UNL     1      -0.582  10.625  21.997  0.00  0.00    -0.031 A 
ATOM     19  C   UNL     1       0.120   9.697  22.743  0.00  0.00    +0.029 A 
ATOM     20  N   UNL     1       0.871   8.717  22.199  0.00  0.00    -0.250 NA
ATOM     21  H   UNL     1       0.331   9.462  18.928  0.00  0.00    +0.065 HD
ATOM     22  H   UNL     1      -1.144  11.413  22.484  0.00  0.00    +0.064 HD
ATOM     23  H   UNL     1       0.107   9.720  23.829  0.00  0.00    +0.083 HD
BRANCH  17  24
ATOM     24  C   UNL     1      -1.202  11.493  19.733  0.00  0.00    +0.247 C 
ATOM     25  O   UNL     1      -1.095  12.683  20.014  0.00  0.00    -0.270 OA
ATOM     26  N   UNL     1      -1.905  11.029  18.641  0.00  0.00    -0.295 N 
ATOM     27  C   UNL     1      -1.872   9.691  18.060  0.00  0.00    +0.017 C 
ATOM     28  C   UNL     1      -2.311   9.890  16.618  0.00  0.00    -0.010 C 
ATOM     29  C   UNL     1      -3.258  11.083  16.704  0.00  0.00    +0.072 C 
ATOM     30  C   UNL     1      -2.577  11.962  17.753  0.00  0.00    +0.041 C 
ATOM     31  H   UNL     1      -2.593   9.070  18.602  0.00  0.00    +0.047 HD
ATOM     32  H   UNL     1      -0.876   9.247  18.138  0.00  0.00    +0.047 HD
ATOM     33  H   UNL     1      -1.451  10.133  15.981  0.00  0.00    +0.031 HD
ATOM     34  H   UNL     1      -2.788   9.002  16.193  0.00  0.00    +0.031 HD
ATOM     35  H   UNL     1      -4.248  10.759  17.046  0.00  0.00    +0.061 HD
ATOM     36  H   UNL     1      -1.831  12.630  17.306  0.00  0.00    +0.049 HD
ATOM     37  H   UNL     1      -3.291  12.575  18.312  0.00  0.00    +0.049 HD
BRANCH  29  38
ATOM     38  O   UNL     1      -3.376  11.710  15.440  0.00  0.00    -0.390 OA
ATOM     39  H   UNL     1      -3.021  12.613  15.522  0.00  0.00    +0.210 HD
ENDBRANCH  29  38
ENDBRANCH  17  24
ENDBRANCH  12  15
ENDBRANCH   5  11
BRANCH   1  40
ATOM     40  C   UNL     1       4.005   3.387  17.576  0.00  0.00    -0.012 C 
ATOM     41  H   UNL     1       4.629   3.153  18.451  0.00  0.00    +0.035 HD
BRANCH  40  42
ATOM     42  C   UNL     1       4.677   2.640  16.415  0.00  0.00    -0.058 C 
ATOM     43  H   UNL     1       4.239   1.643  16.296  0.00  0.00    +0.024 HD
ATOM     44  H   UNL     1       4.571   3.161  15.459  0.00  0.00    +0.024 HD
ATOM     45  H   UNL     1       5.749   2.510  16.606  0.00  0.00    +0.024 HD
ENDBRANCH  40  42
BRANCH  40  46
ATOM     46  C   UNL     1       2.598   2.834  17.888  0.00  0.00    +0.014 C 
ATOM     47  H   UNL     1       1.854   3.444  17.360  0.00  0.00    +0.035 HD
ATOM     48  H   UNL     1       2.494   1.826  17.472  0.00  0.00    +0.035 HD
BRANCH  46  49
ATOM     49  C   UNL     1       2.247   2.838  19.339  0.00  0.00    +0.134 A 
ATOM     50  N   UNL     1       1.060   3.121  19.842  0.00  0.00    -0.135 NA
ATOM     51  N   UNL     1       1.136   3.026  21.211  0.00  0.00    -0.138 NA
ATOM     52  C   UNL     1       2.362   2.675  21.515  0.00  0.00    +0.120 A 
ATOM     53  N   UNL     1       3.094   2.536  20.375  0.00  0.00    -0.320 N 
ATOM     54  H   UNL     1       2.750   2.515  22.510  0.00  0.00    +0.105 HD
BRANCH  53  55
ATOM     55  C   UNL     1       4.477   2.147  20.325  0.00  0.00    +0.014 C 
ATOM     56  H   UNL     1       4.649   1.599  19.396  0.00  0.00    +0.046 HD
ATOM     57  H   UNL     1       5.100   3.045  20.342  0.00  0.00    +0.046 HD
ATOM     58  H   UNL     1       4.727   1.529  21.189  0.00  0.00    +0.046 HD
ENDBRANCH  53  55
ENDBRANCH  46  49
ENDBRANCH  40  46
ENDBRANCH   1  40
TORSDOF 9
ENDMDL
MODEL 26
REMARK VINA RESULT:    -6.949      3.108      9.872
REMARK INTER + INTRA:         -10.599
REMARK INTER:                 -10.547
REMARK INTRA:                  -0.051
REMARK UNBOUND:                -0.602
REMARK  Name = 
REMARK  9 active torsions:
REMARK  status: ('A' for Active; 'I' for Inactive)
REMARK    1  A    between atoms: C_1  and  C_2
REMARK    2  A    between atoms: C_2  and  C_3
REMARK    3  A    between atoms: C_2  and  C_10
REMARK    4  A    between atoms: C_3  and  C_4
REMARK    5  A    between atoms: N_8  and  C_9
REMARK    6  A    between atoms: C_14  and  N_15
REMARK    7  A    between atoms: C_16  and  C_18
REMARK    8  A    between atoms: C_20  and  C_21
REMARK    9  A    between atoms: C_26  and  O_27
REMARK                            x       y       z     vdW  Elec       q    Type
REMARK                         _______ _______ _______ _____ _____    ______ ____
ROOT
ATOM      1  C   UNL     1       2.814   3.518  18.996  0.00  0.00    -0.042 A 
ATOM      2  C   UNL     1       2.988   2.566  20.007  0.00  0.00    -0.058 A 
ATOM      3  C   UNL     1       2.621   2.853  21.321  0.00  0.00    -0.060 A 
ATOM      4  C   UNL     1       2.086   4.101  21.643  0.00  0.00    -0.040 A 
ATOM      5  C   UNL     1       1.925   5.081  20.659  0.00  0.00    +0.034 A 
ATOM      6  C   UNL     1       2.285   4.779  19.343  0.00  0.00    -0.037 A 
ATOM      7  H   UNL     1       3.414   1.588  19.790  0.00  0.00    +0.062 HD
ATOM      8  H   UNL     1       2.751   2.100  22.095  0.00  0.00    +0.062 HD
ATOM      9  H   UNL     1       1.809   4.294  22.676  0.00  0.00    +0.064 HD
ATOM     10  H   UNL     1       2.149   5.510  18.551  0.00  0.00    +0.064 HD
ENDROOT
BRANCH   5  11
ATOM     11  N   UNL     1       1.400   6.324  21.067  0.00  0.00    -0.280 N 
ATOM     12  C   UNL     1       1.566   7.553  20.444  0.00  0.00    +0.267 C 
ATOM     13  O   UNL     1       2.232   7.785  19.442  0.00  0.00    -0.268 OA
ATOM     14  H   UNL     1       0.805   6.297  21.888  0.00  0.00    +0.155 HD
BRANCH  12  15
ATOM     15  C   UNL     1       0.863   8.684  21.124  0.00  0.00    +0.126 A 
ATOM     16  C   UNL     1       0.320   9.713  20.374  0.00  0.00    -0.019 A 
ATOM     17  C   UNL     1      -0.322  10.739  21.064  0.00  0.00    +0.040 A 
ATOM     18  C   UNL     1      -0.375  10.729  22.457  0.00  0.00    -0.031 A 
ATOM     19  C   UNL     1       0.192   9.652  23.112  0.00  0.00    +0.029 A 
ATOM     20  N   UNL     1       0.802   8.629  22.478  0.00  0.00    -0.250 NA
ATOM     21  H   UNL     1       0.374   9.723  19.290  0.00  0.00    +0.065 HD
ATOM     22  H   UNL     1      -0.823  11.541  23.016  0.00  0.00    +0.064 HD
ATOM     23  H   UNL     1       0.181   9.583  24.197  0.00  0.00    +0.083 HD
BRANCH  17  24
ATOM     24  C   UNL     1      -0.866  11.867  20.283  0.00  0.00    +0.247 C 
ATOM     25  O   UNL     1      -0.365  12.091  19.186  0.00  0.00    -0.270 OA
ATOM     26  N   UNL     1      -1.914  12.598  20.805  0.00  0.00    -0.295 N 
ATOM     27  C   UNL     1      -2.757  12.261  21.947  0.00  0.00    +0.017 C 
ATOM     28  C   UNL     1      -4.045  13.034  21.712  0.00  0.00    -0.010 C 
ATOM     29  C   UNL     1      -3.574  14.273  20.957  0.00  0.00    +0.072 C 
ATOM     30  C   UNL     1      -2.480  13.705  20.053  0.00  0.00    +0.041 C 
ATOM     31  H   UNL     1      -2.254  12.613  22.853  0.00  0.00    +0.047 HD
ATOM     32  H   UNL     1      -2.921  11.182  22.016  0.00  0.00    +0.047 HD
ATOM     33  H   UNL     1      -4.739  12.452  21.093  0.00  0.00    +0.031 HD
ATOM     34  H   UNL     1      -4.568  13.278  22.641  0.00  0.00    +0.031 HD
ATOM     35  H   UNL     1      -3.163  15.011  21.655  0.00  0.00    +0.061 HD
ATOM     36  H   UNL     1      -2.885  13.325  19.108  0.00  0.00    +0.049 HD
ATOM     37  H   UNL     1      -1.706  14.443  19.819  0.00  0.00    +0.049 HD
BRANCH  29  38
ATOM     38  O   UNL     1      -4.649  14.848  20.238  0.00  0.00    -0.390 OA
ATOM     39  H   UNL     1      -4.279  15.299  19.458  0.00  0.00    +0.210 HD
ENDBRANCH  29  38
ENDBRANCH  17  24
ENDBRANCH  12  15
ENDBRANCH   5  11
BRANCH   1  40
ATOM     40  C   UNL     1       3.195   3.256  17.544  0.00  0.00    -0.012 C 
ATOM     41  H   UNL     1       2.247   3.120  17.003  0.00  0.00    +0.035 HD
BRANCH  40  42
ATOM     42  C   UNL     1       3.964   1.948  17.307  0.00  0.00    -0.058 C 
ATOM     43  H   UNL     1       3.323   1.214  16.805  0.00  0.00    +0.024 HD
ATOM     44  H   UNL     1       4.853   2.087  16.686  0.00  0.00    +0.024 HD
ATOM     45  H   UNL     1       4.287   1.511  18.259  0.00  0.00    +0.024 HD
ENDBRANCH  40  42
BRANCH  40  46
ATOM     46  C   UNL     1       3.892   4.470  16.892  0.00  0.00    +0.014 C 
ATOM     47  H   UNL     1       3.730   4.430  15.807  0.00  0.00    +0.035 HD
ATOM     48  H   UNL     1       3.411   5.396  17.223  0.00  0.00    +0.035 HD
BRANCH  46  49
ATOM     49  C   UNL     1       5.364   4.533  17.133  0.00  0.00    +0.134 A 
ATOM     50  N   UNL     1       5.943   4.794  18.290  0.00  0.00    -0.135 NA
ATOM     51  N   UNL     1       7.304   4.771  18.108  0.00  0.00    -0.138 NA
ATOM     52  C   UNL     1       7.530   4.486  16.849  0.00  0.00    +0.120 A 
ATOM     53  N   UNL     1       6.345   4.318  16.199  0.00  0.00    -0.320 N 
ATOM     54  H   UNL     1       8.499   4.392  16.381  0.00  0.00    +0.105 HD
BRANCH  53  55
ATOM     55  C   UNL     1       6.207   3.983  14.808  0.00  0.00    +0.014 C 
ATOM     56  H   UNL     1       7.064   3.374  14.511  0.00  0.00    +0.046 HD
ATOM     57  H   UNL     1       5.286   3.410  14.669  0.00  0.00    +0.046 HD
ATOM     58  H   UNL     1       6.151   4.890  14.205  0.00  0.00    +0.046 HD
ENDBRANCH  53  55
ENDBRANCH  46  49
ENDBRANCH  40  46
ENDBRANCH   1  40
TORSDOF 9
ENDMDL
MODEL 27
REMARK VINA RESULT:    -6.896      3.409      9.902
REMARK INTER + INTRA:         -10.523
REMARK INTER:                 -10.810
REMARK INTRA:                   0.287
REMARK UNBOUND:                -0.602
REMARK  Name = 
REMARK  9 active torsions:
REMARK  status: ('A' for Active; 'I' for Inactive)
REMARK    1  A    between atoms: C_1  and  C_2
REMARK    2  A    between atoms: C_2  and  C_3
REMARK    3  A    between atoms: C_2  and  C_10
REMARK    4  A    between atoms: C_3  and  C_4
REMARK    5  A    between atoms: N_8  and  C_9
REMARK    6  A    between atoms: C_14  and  N_15
REMARK    7  A    between atoms: C_16  and  C_18
REMARK    8  A    between atoms: C_20  and  C_21
REMARK    9  A    between atoms: C_26  and  O_27
REMARK                            x       y       z     vdW  Elec       q    Type
REMARK                         _______ _______ _______ _____ _____    ______ ____
ROOT
ATOM      1  C   UNL     1       3.336   5.670  18.942  0.00  0.00    -0.042 A 
ATOM      2  C   UNL     1       3.013   4.937  20.090  0.00  0.00    -0.058 A 
ATOM      3  C   UNL     1       2.164   5.473  21.057  0.00  0.00    -0.060 A 
ATOM      4  C   UNL     1       1.636   6.754  20.894  0.00  0.00    -0.040 A 
ATOM      5  C   UNL     1       1.962   7.520  19.770  0.00  0.00    +0.034 A 
ATOM      6  C   UNL     1       2.805   6.969  18.801  0.00  0.00    -0.037 A 
ATOM      7  H   UNL     1       3.419   3.940  20.252  0.00  0.00    +0.062 HD
ATOM      8  H   UNL     1       1.913   4.889  21.939  0.00  0.00    +0.062 HD
ATOM      9  H   UNL     1       0.976   7.144  21.665  0.00  0.00    +0.064 HD
ATOM     10  H   UNL     1       3.056   7.529  17.905  0.00  0.00    +0.064 HD
ENDROOT
BRANCH   5  11
ATOM     11  N   UNL     1       1.407   8.814  19.689  0.00  0.00    -0.280 N 
ATOM     12  C   UNL     1       1.241   9.588  18.548  0.00  0.00    +0.267 C 
ATOM     13  O   UNL     1       1.581   9.298  17.408  0.00  0.00    -0.268 OA
ATOM     14  H   UNL     1       1.060   9.195  20.562  0.00  0.00    +0.155 HD
BRANCH  12  15
ATOM     15  C   UNL     1       0.603  10.917  18.799  0.00  0.00    +0.126 A 
ATOM     16  C   UNL     1      -0.691  10.984  19.285  0.00  0.00    -0.019 A 
ATOM     17  C   UNL     1      -1.231  12.250  19.498  0.00  0.00    +0.040 A 
ATOM     18  C   UNL     1      -0.495  13.393  19.193  0.00  0.00    -0.031 A 
ATOM     19  C   UNL     1       0.792  13.219  18.718  0.00  0.00    +0.029 A 
ATOM     20  N   UNL     1       1.358  12.011  18.522  0.00  0.00    -0.250 NA
ATOM     21  H   UNL     1      -1.265  10.090  19.509  0.00  0.00    +0.065 HD
ATOM     22  H   UNL     1      -0.913  14.387  19.301  0.00  0.00    +0.064 HD
ATOM     23  H   UNL     1       1.420  14.070  18.466  0.00  0.00    +0.083 HD
BRANCH  17  24
ATOM     24  C   UNL     1      -2.626  12.339  19.971  0.00  0.00    +0.247 C 
ATOM     25  O   UNL     1      -3.517  12.223  19.136  0.00  0.00    -0.270 OA
ATOM     26  N   UNL     1      -2.864  12.527  21.317  0.00  0.00    -0.295 N 
ATOM     27  C   UNL     1      -1.915  12.403  22.418  0.00  0.00    +0.017 C 
ATOM     28  C   UNL     1      -2.779  12.116  23.637  0.00  0.00    -0.010 C 
ATOM     29  C   UNL     1      -4.082  12.842  23.318  0.00  0.00    +0.072 C 
ATOM     30  C   UNL     1      -4.228  12.603  21.816  0.00  0.00    +0.041 C 
ATOM     31  H   UNL     1      -1.399  13.362  22.528  0.00  0.00    +0.047 HD
ATOM     32  H   UNL     1      -1.184  11.613  22.227  0.00  0.00    +0.047 HD
ATOM     33  H   UNL     1      -2.960  11.038  23.738  0.00  0.00    +0.031 HD
ATOM     34  H   UNL     1      -2.322  12.456  24.570  0.00  0.00    +0.031 HD
ATOM     35  H   UNL     1      -3.984  13.911  23.538  0.00  0.00    +0.061 HD
ATOM     36  H   UNL     1      -4.741  11.659  21.598  0.00  0.00    +0.049 HD
ATOM     37  H   UNL     1      -4.772  13.410  21.315  0.00  0.00    +0.049 HD
BRANCH  29  38
ATOM     38  O   UNL     1      -5.146  12.298  24.076  0.00  0.00    -0.390 OA
ATOM     39  H   UNL     1      -5.198  11.347  23.876  0.00  0.00    +0.210 HD
ENDBRANCH  29  38
ENDBRANCH  17  24
ENDBRANCH  12  15
ENDBRANCH   5  11
BRANCH   1  40
ATOM     40  C   UNL     1       4.257   5.132  17.853  0.00  0.00    -0.012 C 
ATOM     41  H   UNL     1       5.084   4.631  18.378  0.00  0.00    +0.035 HD
BRANCH  40  42
ATOM     42  C   UNL     1       4.940   6.208  16.998  0.00  0.00    -0.058 C 
ATOM     43  H   UNL     1       4.194   6.893  16.578  0.00  0.00    +0.024 HD
ATOM     44  H   UNL     1       5.655   6.809  17.567  0.00  0.00    +0.024 HD
ATOM     45  H   UNL     1       5.480   5.753  16.160  0.00  0.00    +0.024 HD
ENDBRANCH  40  42
BRANCH  40  46
ATOM     46  C   UNL     1       3.574   4.047  16.992  0.00  0.00    +0.014 C 
ATOM     47  H   UNL     1       3.110   4.528  16.121  0.00  0.00    +0.035 HD
ATOM     48  H   UNL     1       4.331   3.370  16.579  0.00  0.00    +0.035 HD
BRANCH  46  49
ATOM     49  C   UNL     1       2.517   3.273  17.706  0.00  0.00    +0.134 A 
ATOM     50  N   UNL     1       1.245   3.613  17.798  0.00  0.00    -0.135 NA
ATOM     51  N   UNL     1       0.594   2.656  18.538  0.00  0.00    -0.138 NA
ATOM     52  C   UNL     1       1.476   1.747  18.873  0.00  0.00    +0.120 A 
ATOM     53  N   UNL     1       2.695   2.084  18.366  0.00  0.00    -0.320 N 
ATOM     54  H   UNL     1       1.286   0.859  19.457  0.00  0.00    +0.105 HD
BRANCH  53  55
ATOM     55  C   UNL     1       3.896   1.310  18.523  0.00  0.00    +0.014 C 
ATOM     56  H   UNL     1       4.722   1.857  18.063  0.00  0.00    +0.046 HD
ATOM     57  H   UNL     1       4.095   1.175  19.590  0.00  0.00    +0.046 HD
ATOM     58  H   UNL     1       3.777   0.329  18.061  0.00  0.00    +0.046 HD
ENDBRANCH  53  55
ENDBRANCH  46  49
ENDBRANCH  40  46
ENDBRANCH   1  40
TORSDOF 9
ENDMDL
MODEL 28
REMARK VINA RESULT:    -6.832      3.577      8.936
REMARK INTER + INTRA:         -10.430
REMARK INTER:                 -10.698
REMARK INTRA:                   0.268
REMARK UNBOUND:                -0.602
REMARK  Name = 
REMARK  9 active torsions:
REMARK  status: ('A' for Active; 'I' for Inactive)
REMARK    1  A    between atoms: C_1  and  C_2
REMARK    2  A    between atoms: C_2  and  C_3
REMARK    3  A    between atoms: C_2  and  C_10
REMARK    4  A    between atoms: C_3  and  C_4
REMARK    5  A    between atoms: N_8  and  C_9
REMARK    6  A    between atoms: C_14  and  N_15
REMARK    7  A    between atoms: C_16  and  C_18
REMARK    8  A    between atoms: C_20  and  C_21
REMARK    9  A    between atoms: C_26  and  O_27
REMARK                            x       y       z     vdW  Elec       q    Type
REMARK                         _______ _______ _______ _____ _____    ______ ____
ROOT
ATOM      1  C   UNL     1       2.758   3.741  18.876  0.00  0.00    -0.042 A 
ATOM      2  C   UNL     1       2.914   2.749  19.852  0.00  0.00    -0.058 A 
ATOM      3  C   UNL     1       2.527   2.987  21.171  0.00  0.00    -0.060 A 
ATOM      4  C   UNL     1       1.992   4.224  21.532  0.00  0.00    -0.040 A 
ATOM      5  C   UNL     1       1.849   5.242  20.584  0.00  0.00    +0.034 A 
ATOM      6  C   UNL     1       2.229   4.989  19.263  0.00  0.00    -0.037 A 
ATOM      7  H   UNL     1       3.340   1.779  19.604  0.00  0.00    +0.062 HD
ATOM      8  H   UNL     1       2.644   2.205  21.916  0.00  0.00    +0.062 HD
ATOM      9  H   UNL     1       1.700   4.378  22.568  0.00  0.00    +0.064 HD
ATOM     10  H   UNL     1       2.107   5.751  18.498  0.00  0.00    +0.064 HD
ENDROOT
BRANCH   5  11
ATOM     11  N   UNL     1       1.322   6.471  21.032  0.00  0.00    -0.280 N 
ATOM     12  C   UNL     1       1.494   7.721  20.453  0.00  0.00    +0.267 C 
ATOM     13  O   UNL     1       2.167   7.986  19.465  0.00  0.00    -0.268 OA
ATOM     14  H   UNL     1       0.722   6.416  21.847  0.00  0.00    +0.155 HD
BRANCH  12  15
ATOM     15  C   UNL     1       0.787   8.828  21.167  0.00  0.00    +0.126 A 
ATOM     16  C   UNL     1       0.979  10.141  20.773  0.00  0.00    -0.019 A 
ATOM     17  C   UNL     1       0.293  11.127  21.477  0.00  0.00    +0.040 A 
ATOM     18  C   UNL     1      -0.522  10.790  22.556  0.00  0.00    -0.031 A 
ATOM     19  C   UNL     1      -0.653   9.449  22.865  0.00  0.00    +0.029 A 
ATOM     20  N   UNL     1      -0.024   8.463  22.193  0.00  0.00    -0.250 NA
ATOM     21  H   UNL     1       1.625  10.400  19.940  0.00  0.00    +0.065 HD
ATOM     22  H   UNL     1      -1.024  11.544  23.150  0.00  0.00    +0.064 HD
ATOM     23  H   UNL     1      -1.277   9.120  23.692  0.00  0.00    +0.083 HD
BRANCH  17  24
ATOM     24  C   UNL     1       0.523  12.536  21.100  0.00  0.00    +0.247 C 
ATOM     25  O   UNL     1       0.206  13.400  21.913  0.00  0.00    -0.270 OA
ATOM     26  N   UNL     1       1.095  12.816  19.876  0.00  0.00    -0.295 N 
ATOM     27  C   UNL     1       1.754  11.887  18.965  0.00  0.00    +0.017 C 
ATOM     28  C   UNL     1       2.681  12.760  18.134  0.00  0.00    -0.010 C 
ATOM     29  C   UNL     1       1.945  14.095  18.080  0.00  0.00    +0.072 C 
ATOM     30  C   UNL     1       1.347  14.192  19.484  0.00  0.00    +0.041 C 
ATOM     31  H   UNL     1       0.985  11.430  18.335  0.00  0.00    +0.047 HD
ATOM     32  H   UNL     1       2.291  11.106  19.511  0.00  0.00    +0.047 HD
ATOM     33  H   UNL     1       3.651  12.880  18.632  0.00  0.00    +0.031 HD
ATOM     34  H   UNL     1       2.877  12.345  17.141  0.00  0.00    +0.031 HD
ATOM     35  H   UNL     1       1.158  14.066  17.319  0.00  0.00    +0.061 HD
ATOM     36  H   UNL     1       2.046  14.645  20.197  0.00  0.00    +0.049 HD
ATOM     37  H   UNL     1       0.419  14.771  19.504  0.00  0.00    +0.049 HD
BRANCH  29  38
ATOM     38  O   UNL     1       2.850  15.144  17.785  0.00  0.00    -0.390 OA
ATOM     39  H   UNL     1       2.481  15.967  18.150  0.00  0.00    +0.210 HD
ENDBRANCH  29  38
ENDBRANCH  17  24
ENDBRANCH  12  15
ENDBRANCH   5  11
BRANCH   1  40
ATOM     40  C   UNL     1       3.161   3.533  17.421  0.00  0.00    -0.012 C 
ATOM     41  H   UNL     1       2.221   3.492  16.851  0.00  0.00    +0.035 HD
BRANCH  40  42
ATOM     42  C   UNL     1       3.846   2.190  17.128  0.00  0.00    -0.058 C 
ATOM     43  H   UNL     1       4.007   2.070  16.051  0.00  0.00    +0.024 HD
ATOM     44  H   UNL     1       4.819   2.097  17.619  0.00  0.00    +0.024 HD
ATOM     45  H   UNL     1       3.221   1.355  17.466  0.00  0.00    +0.024 HD
ENDBRANCH  40  42
BRANCH  40  46
ATOM     46  C   UNL     1       3.956   4.730  16.856  0.00  0.00    +0.014 C 
ATOM     47  H   UNL     1       3.831   4.753  15.766  0.00  0.00    +0.035 HD
ATOM     48  H   UNL     1       3.522   5.668  17.217  0.00  0.00    +0.035 HD
BRANCH  46  49
ATOM     49  C   UNL     1       5.419   4.686  17.148  0.00  0.00    +0.134 A 
ATOM     50  N   UNL     1       5.975   4.907  18.325  0.00  0.00    -0.135 NA
ATOM     51  N   UNL     1       7.336   4.785  18.191  0.00  0.00    -0.138 NA
ATOM     52  C   UNL     1       7.584   4.481  16.941  0.00  0.00    +0.120 A 
ATOM     53  N   UNL     1       6.414   4.398  16.249  0.00  0.00    -0.320 N 
ATOM     54  H   UNL     1       8.560   4.315  16.507  0.00  0.00    +0.105 HD
BRANCH  53  55
ATOM     55  C   UNL     1       6.301   4.070  14.854  0.00  0.00    +0.014 C 
ATOM     56  H   UNL     1       5.871   3.070  14.767  0.00  0.00    +0.046 HD
ATOM     57  H   UNL     1       5.642   4.796  14.370  0.00  0.00    +0.046 HD
ATOM     58  H   UNL     1       7.281   4.111  14.376  0.00  0.00    +0.046 HD
ENDBRANCH  53  55
ENDBRANCH  46  49
ENDBRANCH  40  46
ENDBRANCH   1  40
TORSDOF 9
ENDMDL
MODEL 29
REMARK VINA RESULT:    -6.798      3.691      5.781
REMARK INTER + INTRA:         -10.382
REMARK INTER:                  -9.780
REMARK INTRA:                  -0.601
REMARK UNBOUND:                -0.602
REMARK  Name = 
REMARK  9 active torsions:
REMARK  status: ('A' for Active; 'I' for Inactive)
REMARK    1  A    between atoms: C_1  and  C_2
REMARK    2  A    between atoms: C_2  and  C_3
REMARK    3  A    between atoms: C_2  and  C_10
REMARK    4  A    between atoms: C_3  and  C_4
REMARK    5  A    between atoms: N_8  and  C_9
REMARK    6  A    between atoms: C_14  and  N_15
REMARK    7  A    between atoms: C_16  and  C_18
REMARK    8  A    between atoms: C_20  and  C_21
REMARK    9  A    between atoms: C_26  and  O_27
REMARK                            x       y       z     vdW  Elec       q    Type
REMARK                         _______ _______ _______ _____ _____    ______ ____
ROOT
ATOM      1  C   UNL     1      -0.960  11.558  20.500  0.00  0.00    -0.042 A 
ATOM      2  C   UNL     1      -1.912  11.930  19.544  0.00  0.00    -0.058 A 
ATOM      3  C   UNL     1      -1.956  11.295  18.303  0.00  0.00    -0.060 A 
ATOM      4  C   UNL     1      -1.039  10.287  17.999  0.00  0.00    -0.040 A 
ATOM      5  C   UNL     1      -0.061   9.913  18.924  0.00  0.00    +0.034 A 
ATOM      6  C   UNL     1      -0.033  10.548  20.169  0.00  0.00    -0.037 A 
ATOM      7  H   UNL     1      -2.632  12.721  19.747  0.00  0.00    +0.062 HD
ATOM      8  H   UNL     1      -2.707  11.586  17.574  0.00  0.00    +0.062 HD
ATOM      9  H   UNL     1      -1.099   9.811  17.024  0.00  0.00    +0.064 HD
ATOM     10  H   UNL     1       0.699  10.262  20.919  0.00  0.00    +0.064 HD
ENDROOT
BRANCH   5  11
ATOM     11  N   UNL     1       0.844   8.904  18.534  0.00  0.00    -0.280 N 
ATOM     12  C   UNL     1       2.104   9.073  17.976  0.00  0.00    +0.267 C 
ATOM     13  O   UNL     1       2.644  10.134  17.690  0.00  0.00    -0.268 OA
ATOM     14  H   UNL     1       0.543   7.954  18.721  0.00  0.00    +0.155 HD
BRANCH  12  15
ATOM     15  C   UNL     1       2.822   7.793  17.688  0.00  0.00    +0.126 A 
ATOM     16  C   UNL     1       2.267   6.585  18.074  0.00  0.00    -0.019 A 
ATOM     17  C   UNL     1       2.983   5.428  17.777  0.00  0.00    +0.040 A 
ATOM     18  C   UNL     1       4.224   5.505  17.148  0.00  0.00    -0.031 A 
ATOM     19  C   UNL     1       4.687   6.760  16.797  0.00  0.00    +0.029 A 
ATOM     20  N   UNL     1       4.013   7.901  17.046  0.00  0.00    -0.250 NA
ATOM     21  H   UNL     1       1.305   6.531  18.574  0.00  0.00    +0.065 HD
ATOM     22  H   UNL     1       4.822   4.623  16.955  0.00  0.00    +0.064 HD
ATOM     23  H   UNL     1       5.646   6.888  16.301  0.00  0.00    +0.083 HD
BRANCH  17  24
ATOM     24  C   UNL     1       2.428   4.135  18.224  0.00  0.00    +0.247 C 
ATOM     25  O   UNL     1       2.295   3.253  17.380  0.00  0.00    -0.270 OA
ATOM     26  N   UNL     1       2.107   3.969  19.555  0.00  0.00    -0.295 N 
ATOM     27  C   UNL     1       2.473   4.828  20.676  0.00  0.00    +0.017 C 
ATOM     28  C   UNL     1       2.408   3.917  21.893  0.00  0.00    -0.010 C 
ATOM     29  C   UNL     1       1.319   2.916  21.519  0.00  0.00    +0.072 C 
ATOM     30  C   UNL     1       1.574   2.702  20.027  0.00  0.00    +0.041 C 
ATOM     31  H   UNL     1       1.726   5.624  20.748  0.00  0.00    +0.047 HD
ATOM     32  H   UNL     1       3.464   5.268  20.534  0.00  0.00    +0.047 HD
ATOM     33  H   UNL     1       3.364   3.401  22.042  0.00  0.00    +0.031 HD
ATOM     34  H   UNL     1       2.185   4.459  22.816  0.00  0.00    +0.031 HD
ATOM     35  H   UNL     1       0.328   3.351  21.690  0.00  0.00    +0.061 HD
ATOM     36  H   UNL     1       2.314   1.913  19.846  0.00  0.00    +0.049 HD
ATOM     37  H   UNL     1       0.661   2.445  19.479  0.00  0.00    +0.049 HD
BRANCH  29  38
ATOM     38  O   UNL     1       1.456   1.733  22.284  0.00  0.00    -0.390 OA
ATOM     39  H   UNL     1       1.330   0.975  21.686  0.00  0.00    +0.210 HD
ENDBRANCH  29  38
ENDBRANCH  17  24
ENDBRANCH  12  15
ENDBRANCH   5  11
BRANCH   1  40
ATOM     40  C   UNL     1      -0.870  12.217  21.872  0.00  0.00    -0.012 C 
ATOM     41  H   UNL     1       0.203  12.370  22.063  0.00  0.00    +0.035 HD
BRANCH  40  42
ATOM     42  C   UNL     1      -1.346  11.340  23.039  0.00  0.00    -0.058 C 
ATOM     43  H   UNL     1      -1.209  10.279  22.801  0.00  0.00    +0.024 HD
ATOM     44  H   UNL     1      -0.805  11.542  23.968  0.00  0.00    +0.024 HD
ATOM     45  H   UNL     1      -2.413  11.500  23.233  0.00  0.00    +0.024 HD
ENDBRANCH  40  42
BRANCH  40  46
ATOM     46  C   UNL     1      -1.516  13.619  21.892  0.00  0.00    +0.014 C 
ATOM     47  H   UNL     1      -0.722  14.372  21.973  0.00  0.00    +0.035 HD
ATOM     48  H   UNL     1      -2.005  13.816  20.932  0.00  0.00    +0.035 HD
BRANCH  46  49
ATOM     49  C   UNL     1      -2.471  13.837  23.018  0.00  0.00    +0.134 A 
ATOM     50  N   UNL     1      -2.174  14.377  24.185  0.00  0.00    -0.135 NA
ATOM     51  N   UNL     1      -3.312  14.398  24.955  0.00  0.00    -0.138 NA
ATOM     52  C   UNL     1      -4.282  13.882  24.240  0.00  0.00    +0.120 A 
ATOM     53  N   UNL     1      -3.807  13.524  23.015  0.00  0.00    -0.320 N 
ATOM     54  H   UNL     1      -5.307  13.755  24.556  0.00  0.00    +0.105 HD
BRANCH  53  55
ATOM     55  C   UNL     1      -4.594  12.939  21.964  0.00  0.00    +0.014 C 
ATOM     56  H   UNL     1      -4.963  13.740  21.320  0.00  0.00    +0.046 HD
ATOM     57  H   UNL     1      -3.962  12.263  21.381  0.00  0.00    +0.046 HD
ATOM     58  H   UNL     1      -5.423  12.369  22.386  0.00  0.00    +0.046 HD
ENDBRANCH  53  55
ENDBRANCH  46  49
ENDBRANCH  40  46
ENDBRANCH   1  40
TORSDOF 9
ENDMDL
MODEL 30
REMARK VINA RESULT:    -6.711      2.260      2.960
REMARK INTER + INTRA:         -10.256
REMARK INTER:                  -9.698
REMARK INTRA:                  -0.558
REMARK UNBOUND:                -0.602
REMARK  Name = 
REMARK  9 active torsions:
REMARK  status: ('A' for Active; 'I' for Inactive)
REMARK    1  A    between atoms: C_1  and  C_2
REMARK    2  A    between atoms: C_2  and  C_3
REMARK    3  A    between atoms: C_2  and  C_10
REMARK    4  A    between atoms: C_3  and  C_4
REMARK    5  A    between atoms: N_8  and  C_9
REMARK    6  A    between atoms: C_14  and  N_15
REMARK    7  A    between atoms: C_16  and  C_18
REMARK    8  A    between atoms: C_20  and  C_21
REMARK    9  A    between atoms: C_26  and  O_27
REMARK                            x       y       z     vdW  Elec       q    Type
REMARK                         _______ _______ _______ _____ _____    ______ ____
ROOT
ATOM      1  C   UNL     1      -0.002  11.730  20.749  0.00  0.00    -0.042 A 
ATOM      2  C   UNL     1       0.236  12.512  19.612  0.00  0.00    -0.058 A 
ATOM      3  C   UNL     1       0.934  11.986  18.525  0.00  0.00    -0.060 A 
ATOM      4  C   UNL     1       1.411  10.676  18.565  0.00  0.00    -0.040 A 
ATOM      5  C   UNL     1       1.211   9.881  19.697  0.00  0.00    +0.034 A 
ATOM      6  C   UNL     1       0.501  10.413  20.777  0.00  0.00    -0.037 A 
ATOM      7  H   UNL     1      -0.112  13.541  19.555  0.00  0.00    +0.062 HD
ATOM      8  H   UNL     1       1.102  12.601  17.644  0.00  0.00    +0.062 HD
ATOM      9  H   UNL     1       1.951  10.296  17.701  0.00  0.00    +0.064 HD
ATOM     10  H   UNL     1       0.308   9.812  21.661  0.00  0.00    +0.064 HD
ENDROOT
BRANCH   5  11
ATOM     11  N   UNL     1       1.745   8.576  19.671  0.00  0.00    -0.280 N 
ATOM     12  C   UNL     1       1.382   7.502  20.474  0.00  0.00    +0.267 C 
ATOM     13  O   UNL     1       0.555   7.507  21.377  0.00  0.00    -0.268 OA
ATOM     14  H   UNL     1       2.444   8.405  18.957  0.00  0.00    +0.155 HD
BRANCH  12  15
ATOM     15  C   UNL     1       2.132   6.241  20.183  0.00  0.00    +0.126 A 
ATOM     16  C   UNL     1       3.422   6.301  19.685  0.00  0.00    -0.019 A 
ATOM     17  C   UNL     1       4.068   5.093  19.435  0.00  0.00    +0.040 A 
ATOM     18  C   UNL     1       3.413   3.882  19.649  0.00  0.00    -0.031 A 
ATOM     19  C   UNL     1       2.127   3.930  20.155  0.00  0.00    +0.029 A 
ATOM     20  N   UNL     1       1.477   5.079  20.433  0.00  0.00    -0.250 NA
ATOM     21  H   UNL     1       3.924   7.247  19.509  0.00  0.00    +0.065 HD
ATOM     22  H   UNL     1       3.876   2.932  19.412  0.00  0.00    +0.064 HD
ATOM     23  H   UNL     1       1.563   3.021  20.348  0.00  0.00    +0.083 HD
BRANCH  17  24
ATOM     24  C   UNL     1       5.427   5.138  18.860  0.00  0.00    +0.247 C 
ATOM     25  O   UNL     1       6.374   5.105  19.639  0.00  0.00    -0.270 OA
ATOM     26  N   UNL     1       5.571   5.195  17.489  0.00  0.00    -0.295 N 
ATOM     27  C   UNL     1       4.550   4.964  16.473  0.00  0.00    +0.017 C 
ATOM     28  C   UNL     1       5.331   4.562  15.231  0.00  0.00    -0.010 C 
ATOM     29  C   UNL     1       6.646   5.318  15.388  0.00  0.00    +0.072 C 
ATOM     30  C   UNL     1       6.896   5.226  16.893  0.00  0.00    +0.041 C 
ATOM     31  H   UNL     1       4.019   5.907  16.307  0.00  0.00    +0.047 HD
ATOM     32  H   UNL     1       3.840   4.195  16.789  0.00  0.00    +0.047 HD
ATOM     33  H   UNL     1       5.513   3.480  15.221  0.00  0.00    +0.031 HD
ATOM     34  H   UNL     1       4.808   4.810  14.303  0.00  0.00    +0.031 HD
ATOM     35  H   UNL     1       6.525   6.361  15.073  0.00  0.00    +0.061 HD
ATOM     36  H   UNL     1       7.431   4.307  17.164  0.00  0.00    +0.049 HD
ATOM     37  H   UNL     1       7.467   6.078  17.275  0.00  0.00    +0.049 HD
BRANCH  29  38
ATOM     38  O   UNL     1       7.661   4.705  14.614  0.00  0.00    -0.390 OA
ATOM     39  H   UNL     1       8.437   4.579  15.188  0.00  0.00    +0.210 HD
ENDBRANCH  29  38
ENDBRANCH  17  24
ENDBRANCH  12  15
ENDBRANCH   5  11
BRANCH   1  40
ATOM     40  C   UNL     1      -0.760  12.253  21.963  0.00  0.00    -0.012 C 
ATOM     41  H   UNL     1      -0.001  12.704  22.621  0.00  0.00    +0.035 HD
BRANCH  40  42
ATOM     42  C   UNL     1      -1.420  11.168  22.826  0.00  0.00    -0.058 C 
ATOM     43  H   UNL     1      -0.660  10.501  23.249  0.00  0.00    +0.024 HD
ATOM     44  H   UNL     1      -1.994  11.582  23.660  0.00  0.00    +0.024 HD
ATOM     45  H   UNL     1      -2.101  10.555  22.224  0.00  0.00    +0.024 HD
ENDBRANCH  40  42
BRANCH  40  46
ATOM     46  C   UNL     1      -1.742  13.387  21.598  0.00  0.00    +0.014 C 
ATOM     47  H   UNL     1      -1.968  13.964  22.503  0.00  0.00    +0.035 HD
ATOM     48  H   UNL     1      -1.256  14.095  20.917  0.00  0.00    +0.035 HD
BRANCH  46  49
ATOM     49  C   UNL     1      -3.035  12.915  21.021  0.00  0.00    +0.134 A 
ATOM     50  N   UNL     1      -3.217  12.492  19.784  0.00  0.00    -0.135 NA
ATOM     51  N   UNL     1      -4.539  12.153  19.632  0.00  0.00    -0.138 NA
ATOM     52  C   UNL     1      -5.136  12.364  20.780  0.00  0.00    +0.120 A 
ATOM     53  N   UNL     1      -4.233  12.832  21.685  0.00  0.00    -0.320 N 
ATOM     54  H   UNL     1      -6.181  12.196  20.995  0.00  0.00    +0.105 HD
BRANCH  53  55
ATOM     55  C   UNL     1      -4.530  13.160  23.053  0.00  0.00    +0.014 C 
ATOM     56  H   UNL     1      -3.591  13.365  23.572  0.00  0.00    +0.046 HD
ATOM     57  H   UNL     1      -5.162  14.051  23.076  0.00  0.00    +0.046 HD
ATOM     58  H   UNL     1      -5.063  12.337  23.531  0.00  0.00    +0.046 HD
ENDBRANCH  53  55
ENDBRANCH  46  49
ENDBRANCH  40  46
ENDBRANCH   1  40
TORSDOF 9
ENDMDL
MODEL 31
REMARK VINA RESULT:    -6.685      2.800      8.926
REMARK INTER + INTRA:         -10.218
REMARK INTER:                  -9.616
REMARK INTRA:                  -0.602
REMARK UNBOUND:                -0.602
REMARK  Name = 
REMARK  9 active torsions:
REMARK  status: ('A' for Active; 'I' for Inactive)
REMARK    1  A    between atoms: C_1  and  C_2
REMARK    2  A    between atoms: C_2  and  C_3
REMARK    3  A    between atoms: C_2  and  C_10
REMARK    4  A    between atoms: C_3  and  C_4
REMARK    5  A    between atoms: N_8  and  C_9
REMARK    6  A    between atoms: C_14  and  N_15
REMARK    7  A    between atoms: C_16  and  C_18
REMARK    8  A    between atoms: C_20  and  C_21
REMARK    9  A    between atoms: C_26  and  O_27
REMARK                            x       y       z     vdW  Elec       q    Type
REMARK                         _______ _______ _______ _____ _____    ______ ____
ROOT
ATOM      1  C   UNL     1       3.930   5.354  19.343  0.00  0.00    -0.042 A 
ATOM      2  C   UNL     1       3.437   4.238  20.031  0.00  0.00    -0.058 A 
ATOM      3  C   UNL     1       2.240   4.317  20.742  0.00  0.00    -0.060 A 
ATOM      4  C   UNL     1       1.527   5.515  20.784  0.00  0.00    -0.040 A 
ATOM      5  C   UNL     1       2.009   6.653  20.129  0.00  0.00    +0.034 A 
ATOM      6  C   UNL     1       3.203   6.560  19.410  0.00  0.00    -0.037 A 
ATOM      7  H   UNL     1       3.976   3.293  20.027  0.00  0.00    +0.062 HD
ATOM      8  H   UNL     1       1.863   3.440  21.262  0.00  0.00    +0.062 HD
ATOM      9  H   UNL     1       0.597   5.545  21.346  0.00  0.00    +0.064 HD
ATOM     10  H   UNL     1       3.591   7.419  18.869  0.00  0.00    +0.064 HD
ENDROOT
BRANCH   5  11
ATOM     11  N   UNL     1       1.243   7.832  20.238  0.00  0.00    -0.280 N 
ATOM     12  C   UNL     1       1.207   8.715  21.308  0.00  0.00    +0.267 C 
ATOM     13  O   UNL     1       1.810   8.609  22.370  0.00  0.00    -0.268 OA
ATOM     14  H   UNL     1       0.691   8.070  19.422  0.00  0.00    +0.155 HD
BRANCH  12  15
ATOM     15  C   UNL     1       0.299   9.886  21.105  0.00  0.00    +0.126 A 
ATOM     16  C   UNL     1      -0.009  10.309  19.823  0.00  0.00    -0.019 A 
ATOM     17  C   UNL     1      -0.860  11.405  19.698  0.00  0.00    +0.040 A 
ATOM     18  C   UNL     1      -1.342  12.059  20.830  0.00  0.00    -0.031 A 
ATOM     19  C   UNL     1      -0.981  11.554  22.065  0.00  0.00    +0.029 A 
ATOM     20  N   UNL     1      -0.179  10.481  22.227  0.00  0.00    -0.250 NA
ATOM     21  H   UNL     1       0.379   9.804  18.945  0.00  0.00    +0.065 HD
ATOM     22  H   UNL     1      -1.962  12.944  20.757  0.00  0.00    +0.064 HD
ATOM     23  H   UNL     1      -1.327  12.016  22.986  0.00  0.00    +0.083 HD
BRANCH  17  24
ATOM     24  C   UNL     1      -1.162  11.898  18.340  0.00  0.00    +0.247 C 
ATOM     25  O   UNL     1      -0.556  12.890  17.949  0.00  0.00    -0.270 OA
ATOM     26  N   UNL     1      -2.085  11.218  17.572  0.00  0.00    -0.295 N 
ATOM     27  C   UNL     1      -2.650   9.895  17.817  0.00  0.00    +0.017 C 
ATOM     28  C   UNL     1      -3.092   9.409  16.445  0.00  0.00    -0.010 C 
ATOM     29  C   UNL     1      -3.459  10.700  15.720  0.00  0.00    +0.072 C 
ATOM     30  C   UNL     1      -2.392  11.670  16.225  0.00  0.00    +0.041 C 
ATOM     31  H   UNL     1      -3.512  10.015  18.481  0.00  0.00    +0.047 HD
ATOM     32  H   UNL     1      -1.919   9.229  18.283  0.00  0.00    +0.047 HD
ATOM     33  H   UNL     1      -2.267   8.904  15.929  0.00  0.00    +0.031 HD
ATOM     34  H   UNL     1      -3.924   8.700  16.495  0.00  0.00    +0.031 HD
ATOM     35  H   UNL     1      -4.462  11.030  16.016  0.00  0.00    +0.061 HD
ATOM     36  H   UNL     1      -1.480  11.628  15.618  0.00  0.00    +0.049 HD
ATOM     37  H   UNL     1      -2.743  12.707  16.241  0.00  0.00    +0.049 HD
BRANCH  29  38
ATOM     38  O   UNL     1      -3.420  10.505  14.319  0.00  0.00    -0.390 OA
ATOM     39  H   UNL     1      -4.298  10.725  13.963  0.00  0.00    +0.210 HD
ENDBRANCH  29  38
ENDBRANCH  17  24
ENDBRANCH  12  15
ENDBRANCH   5  11
BRANCH   1  40
ATOM     40  C   UNL     1       5.231   5.322  18.549  0.00  0.00    -0.012 C 
ATOM     41  H   UNL     1       5.383   4.270  18.263  0.00  0.00    +0.035 HD
BRANCH  40  42
ATOM     42  C   UNL     1       6.486   5.686  19.356  0.00  0.00    -0.058 C 
ATOM     43  H   UNL     1       6.958   6.584  18.942  0.00  0.00    +0.024 HD
ATOM     44  H   UNL     1       6.268   5.885  20.409  0.00  0.00    +0.024 HD
ATOM     45  H   UNL     1       7.222   4.875  19.315  0.00  0.00    +0.024 HD
ENDBRANCH  40  42
BRANCH  40  46
ATOM     46  C   UNL     1       5.132   6.118  17.230  0.00  0.00    +0.014 C 
ATOM     47  H   UNL     1       4.078   6.352  17.037  0.00  0.00    +0.035 HD
ATOM     48  H   UNL     1       5.628   7.089  17.345  0.00  0.00    +0.035 HD
BRANCH  46  49
ATOM     49  C   UNL     1       5.668   5.398  16.038  0.00  0.00    +0.134 A 
ATOM     50  N   UNL     1       6.561   5.872  15.190  0.00  0.00    -0.135 NA
ATOM     51  N   UNL     1       6.791   4.921  14.226  0.00  0.00    -0.138 NA
ATOM     52  C   UNL     1       6.044   3.882  14.510  0.00  0.00    +0.120 A 
ATOM     53  N   UNL     1       5.329   4.129  15.642  0.00  0.00    -0.320 N 
ATOM     54  H   UNL     1       5.992   2.962  13.946  0.00  0.00    +0.105 HD
BRANCH  53  55
ATOM     55  C   UNL     1       4.414   3.207  16.258  0.00  0.00    +0.014 C 
ATOM     56  H   UNL     1       4.093   3.624  17.215  0.00  0.00    +0.046 HD
ATOM     57  H   UNL     1       3.547   3.077  15.605  0.00  0.00    +0.046 HD
ATOM     58  H   UNL     1       4.895   2.238  16.401  0.00  0.00    +0.046 HD
ENDBRANCH  53  55
ENDBRANCH  46  49
ENDBRANCH  40  46
ENDBRANCH   1  40
TORSDOF 9
ENDMDL
MODEL 32
REMARK VINA RESULT:    -6.664      1.936      2.554
REMARK INTER + INTRA:         -10.188
REMARK INTER:                  -9.518
REMARK INTRA:                  -0.670
REMARK UNBOUND:                -0.602
REMARK  Name = 
REMARK  9 active torsions:
REMARK  status: ('A' for Active; 'I' for Inactive)
REMARK    1  A    between atoms: C_1  and  C_2
REMARK    2  A    between atoms: C_2  and  C_3
REMARK    3  A    between atoms: C_2  and  C_10
REMARK    4  A    between atoms: C_3  and  C_4
REMARK    5  A    between atoms: N_8  and  C_9
REMARK    6  A    between atoms: C_14  and  N_15
REMARK    7  A    between atoms: C_16  and  C_18
REMARK    8  A    between atoms: C_20  and  C_21
REMARK    9  A    between atoms: C_26  and  O_27
REMARK                            x       y       z     vdW  Elec       q    Type
REMARK                         _______ _______ _______ _____ _____    ______ ____
ROOT
ATOM      1  C   UNL     1       0.155  11.445  18.835  0.00  0.00    -0.042 A 
ATOM      2  C   UNL     1       1.062  12.481  18.584  0.00  0.00    -0.058 A 
ATOM      3  C   UNL     1       2.339  12.203  18.097  0.00  0.00    -0.060 A 
ATOM      4  C   UNL     1       2.729  10.884  17.866  0.00  0.00    -0.040 A 
ATOM      5  C   UNL     1       1.854   9.826  18.133  0.00  0.00    +0.034 A 
ATOM      6  C   UNL     1       0.572  10.117  18.610  0.00  0.00    -0.037 A 
ATOM      7  H   UNL     1       0.791  13.520  18.766  0.00  0.00    +0.062 HD
ATOM      8  H   UNL     1       3.029  13.019  17.896  0.00  0.00    +0.062 HD
ATOM      9  H   UNL     1       3.730  10.700  17.486  0.00  0.00    +0.064 HD
ATOM     10  H   UNL     1      -0.139   9.318  18.802  0.00  0.00    +0.064 HD
ENDROOT
BRANCH   5  11
ATOM     11  N   UNL     1       2.330   8.520  17.896  0.00  0.00    -0.280 N 
ATOM     12  C   UNL     1       2.357   7.460  18.791  0.00  0.00    +0.267 C 
ATOM     13  O   UNL     1       2.002   7.478  19.964  0.00  0.00    -0.268 OA
ATOM     14  H   UNL     1       2.651   8.338  16.952  0.00  0.00    +0.155 HD
BRANCH  12  15
ATOM     15  C   UNL     1       2.913   6.193  18.223  0.00  0.00    +0.126 A 
ATOM     16  C   UNL     1       4.157   6.194  17.616  0.00  0.00    -0.019 A 
ATOM     17  C   UNL     1       4.621   4.984  17.105  0.00  0.00    +0.040 A 
ATOM     18  C   UNL     1       3.835   3.837  17.180  0.00  0.00    -0.031 A 
ATOM     19  C   UNL     1       2.610   3.939  17.812  0.00  0.00    +0.029 A 
ATOM     20  N   UNL     1       2.136   5.087  18.340  0.00  0.00    -0.250 NA
ATOM     21  H   UNL     1       4.761   7.093  17.549  0.00  0.00    +0.065 HD
ATOM     22  H   UNL     1       4.153   2.897  16.744  0.00  0.00    +0.064 HD
ATOM     23  H   UNL     1       1.950   3.080  17.907  0.00  0.00    +0.083 HD
BRANCH  17  24
ATOM     24  C   UNL     1       5.926   4.977  16.413  0.00  0.00    +0.247 C 
ATOM     25  O   UNL     1       6.933   5.119  17.100  0.00  0.00    -0.270 OA
ATOM     26  N   UNL     1       5.956   4.794  15.046  0.00  0.00    -0.295 N 
ATOM     27  C   UNL     1       4.870   4.346  14.181  0.00  0.00    +0.017 C 
ATOM     28  C   UNL     1       5.569   3.758  12.965  0.00  0.00    -0.010 C 
ATOM     29  C   UNL     1       6.851   4.579  12.870  0.00  0.00    +0.072 C 
ATOM     30  C   UNL     1       7.226   4.767  14.340  0.00  0.00    +0.041 C 
ATOM     31  H   UNL     1       4.279   5.224  13.900  0.00  0.00    +0.047 HD
ATOM     32  H   UNL     1       4.229   3.620  14.688  0.00  0.00    +0.047 HD
ATOM     33  H   UNL     1       5.807   2.699  13.128  0.00  0.00    +0.031 HD
ATOM     34  H   UNL     1       4.961   3.816  12.057  0.00  0.00    +0.031 HD
ATOM     35  H   UNL     1       6.651   5.543  12.389  0.00  0.00    +0.061 HD
ATOM     36  H   UNL     1       7.828   3.933  14.719  0.00  0.00    +0.049 HD
ATOM     37  H   UNL     1       7.780   5.694  14.515  0.00  0.00    +0.049 HD
BRANCH  29  38
ATOM     38  O   UNL     1       7.831   3.876  12.129  0.00  0.00    -0.390 OA
ATOM     39  H   UNL     1       7.379   3.409  11.405  0.00  0.00    +0.210 HD
ENDBRANCH  29  38
ENDBRANCH  17  24
ENDBRANCH  12  15
ENDBRANCH   5  11
BRANCH   1  40
ATOM     40  C   UNL     1      -1.253  11.692  19.365  0.00  0.00    -0.012 C 
ATOM     41  H   UNL     1      -1.589  12.630  18.898  0.00  0.00    +0.035 HD
BRANCH  40  42
ATOM     42  C   UNL     1      -1.333  11.964  20.874  0.00  0.00    -0.058 C 
ATOM     43  H   UNL     1      -1.807  11.120  21.389  0.00  0.00    +0.024 HD
ATOM     44  H   UNL     1      -0.350  12.117  21.329  0.00  0.00    +0.024 HD
ATOM     45  H   UNL     1      -1.937  12.856  21.075  0.00  0.00    +0.024 HD
ENDBRANCH  40  42
BRANCH  40  46
ATOM     46  C   UNL     1      -2.249  10.603  18.913  0.00  0.00    +0.014 C 
ATOM     47  H   UNL     1      -1.699   9.824  18.371  0.00  0.00    +0.035 HD
ATOM     48  H   UNL     1      -2.674  10.102  19.789  0.00  0.00    +0.035 HD
BRANCH  46  49
ATOM     49  C   UNL     1      -3.337  11.101  18.020  0.00  0.00    +0.134 A 
ATOM     50  N   UNL     1      -4.361  11.844  18.396  0.00  0.00    -0.135 NA
ATOM     51  N   UNL     1      -5.145  12.089  17.296  0.00  0.00    -0.138 NA
ATOM     52  C   UNL     1      -4.580  11.503  16.269  0.00  0.00    +0.120 A 
ATOM     53  N   UNL     1      -3.439  10.878  16.670  0.00  0.00    -0.320 N 
ATOM     54  H   UNL     1      -4.947  11.505  15.253  0.00  0.00    +0.105 HD
BRANCH  53  55
ATOM     55  C   UNL     1      -2.553  10.144  15.808  0.00  0.00    +0.014 C 
ATOM     56  H   UNL     1      -3.153   9.499  15.163  0.00  0.00    +0.046 HD
ATOM     57  H   UNL     1      -1.987  10.851  15.195  0.00  0.00    +0.046 HD
ATOM     58  H   UNL     1      -1.853   9.554  16.401  0.00  0.00    +0.046 HD
ENDBRANCH  53  55
ENDBRANCH  46  49
ENDBRANCH  40  46
ENDBRANCH   1  40
TORSDOF 9
ENDMDL
MODEL 33
REMARK VINA RESULT:    -6.635      2.385      3.415
REMARK INTER + INTRA:         -10.146
REMARK INTER:                  -9.317
REMARK INTRA:                  -0.830
REMARK UNBOUND:                -0.602
REMARK  Name = 
REMARK  9 active torsions:
REMARK  status: ('A' for Active; 'I' for Inactive)
REMARK    1  A    between atoms: C_1  and  C_2
REMARK    2  A    between atoms: C_2  and  C_3
REMARK    3  A    between atoms: C_2  and  C_10
REMARK    4  A    between atoms: C_3  and  C_4
REMARK    5  A    between atoms: N_8  and  C_9
REMARK    6  A    between atoms: C_14  and  N_15
REMARK    7  A    between atoms: C_16  and  C_18
REMARK    8  A    between atoms: C_20  and  C_21
REMARK    9  A    between atoms: C_26  and  O_27
REMARK                            x       y       z     vdW  Elec       q    Type
REMARK                         _______ _______ _______ _____ _____    ______ ____
ROOT
ATOM      1  C   UNL     1       0.418  12.159  19.080  0.00  0.00    -0.042 A 
ATOM      2  C   UNL     1      -0.778  12.075  18.358  0.00  0.00    -0.058 A 
ATOM      3  C   UNL     1      -1.231  10.847  17.879  0.00  0.00    -0.060 A 
ATOM      4  C   UNL     1      -0.488   9.689  18.105  0.00  0.00    -0.040 A 
ATOM      5  C   UNL     1       0.724   9.746  18.800  0.00  0.00    +0.034 A 
ATOM      6  C   UNL     1       1.163  10.980  19.287  0.00  0.00    -0.037 A 
ATOM      7  H   UNL     1      -1.374  12.963  18.155  0.00  0.00    +0.062 HD
ATOM      8  H   UNL     1      -2.168  10.795  17.329  0.00  0.00    +0.062 HD
ATOM      9  H   UNL     1      -0.868   8.746  17.719  0.00  0.00    +0.064 HD
ATOM     10  H   UNL     1       2.088  11.053  19.852  0.00  0.00    +0.064 HD
ENDROOT
BRANCH   5  11
ATOM     11  N   UNL     1       1.429   8.536  18.968  0.00  0.00    -0.280 N 
ATOM     12  C   UNL     1       1.555   7.790  20.133  0.00  0.00    +0.267 C 
ATOM     13  O   UNL     1       1.105   8.070  21.237  0.00  0.00    -0.268 OA
ATOM     14  H   UNL     1       1.854   8.160  18.128  0.00  0.00    +0.155 HD
BRANCH  12  15
ATOM     15  C   UNL     1       2.360   6.540  19.974  0.00  0.00    +0.126 A 
ATOM     16  C   UNL     1       3.621   6.595  19.405  0.00  0.00    -0.019 A 
ATOM     17  C   UNL     1       4.322   5.398  19.284  0.00  0.00    +0.040 A 
ATOM     18  C   UNL     1       3.746   4.197  19.692  0.00  0.00    -0.031 A 
ATOM     19  C   UNL     1       2.483   4.249  20.254  0.00  0.00    +0.029 A 
ATOM     20  N   UNL     1       1.783   5.392  20.410  0.00  0.00    -0.250 NA
ATOM     21  H   UNL     1       4.061   7.532  19.078  0.00  0.00    +0.065 HD
ATOM     22  H   UNL     1       4.251   3.247  19.560  0.00  0.00    +0.064 HD
ATOM     23  H   UNL     1       1.980   3.348  20.596  0.00  0.00    +0.083 HD
BRANCH  17  24
ATOM     24  C   UNL     1       5.649   5.432  18.638  0.00  0.00    +0.247 C 
ATOM     25  O   UNL     1       6.632   5.533  19.366  0.00  0.00    -0.270 OA
ATOM     26  N   UNL     1       5.726   5.330  17.264  0.00  0.00    -0.295 N 
ATOM     27  C   UNL     1       4.671   4.934  16.337  0.00  0.00    +0.017 C 
ATOM     28  C   UNL     1       5.411   4.419  15.113  0.00  0.00    -0.010 C 
ATOM     29  C   UNL     1       6.694   5.244  15.110  0.00  0.00    +0.072 C 
ATOM     30  C   UNL     1       7.019   5.344  16.601  0.00  0.00    +0.041 C 
ATOM     31  H   UNL     1       4.088   5.827  16.090  0.00  0.00    +0.047 HD
ATOM     32  H   UNL     1       4.014   4.179  16.779  0.00  0.00    +0.047 HD
ATOM     33  H   UNL     1       5.645   3.353  15.221  0.00  0.00    +0.031 HD
ATOM     34  H   UNL     1       4.834   4.531  14.190  0.00  0.00    +0.031 HD
ATOM     35  H   UNL     1       6.508   6.236  14.681  0.00  0.00    +0.061 HD
ATOM     36  H   UNL     1       7.610   4.489  16.950  0.00  0.00    +0.049 HD
ATOM     37  H   UNL     1       7.565   6.260  16.849  0.00  0.00    +0.049 HD
BRANCH  29  38
ATOM     38  O   UNL     1       7.700   4.586  14.362  0.00  0.00    -0.390 OA
ATOM     39  H   UNL     1       7.888   5.127  13.575  0.00  0.00    +0.210 HD
ENDBRANCH  29  38
ENDBRANCH  17  24
ENDBRANCH  12  15
ENDBRANCH   5  11
BRANCH   1  40
ATOM     40  C   UNL     1       0.958  13.475  19.629  0.00  0.00    -0.012 C 
ATOM     41  H   UNL     1       1.120  14.122  18.754  0.00  0.00    +0.035 HD
BRANCH  40  42
ATOM     42  C   UNL     1       2.338  13.376  20.295  0.00  0.00    -0.058 C 
ATOM     43  H   UNL     1       2.792  12.400  20.091  0.00  0.00    +0.024 HD
ATOM     44  H   UNL     1       3.034  14.142  19.941  0.00  0.00    +0.024 HD
ATOM     45  H   UNL     1       2.252  13.480  21.383  0.00  0.00    +0.024 HD
ENDBRANCH  40  42
BRANCH  40  46
ATOM     46  C   UNL     1      -0.070  14.204  20.521  0.00  0.00    +0.014 C 
ATOM     47  H   UNL     1       0.458  14.946  21.134  0.00  0.00    +0.035 HD
ATOM     48  H   UNL     1      -0.759  14.783  19.896  0.00  0.00    +0.035 HD
BRANCH  46  49
ATOM     49  C   UNL     1      -0.830  13.306  21.440  0.00  0.00    +0.134 A 
ATOM     50  N   UNL     1      -0.299  12.499  22.339  0.00  0.00    -0.135 NA
ATOM     51  N   UNL     1      -1.317  11.835  22.979  0.00  0.00    -0.138 NA
ATOM     52  C   UNL     1      -2.447  12.257  22.467  0.00  0.00    +0.120 A 
ATOM     53  N   UNL     1      -2.195  13.187  21.506  0.00  0.00    -0.320 N 
ATOM     54  H   UNL     1      -3.437  11.931  22.753  0.00  0.00    +0.105 HD
BRANCH  53  55
ATOM     55  C   UNL     1      -3.198  13.876  20.741  0.00  0.00    +0.014 C 
ATOM     56  H   UNL     1      -4.162  13.750  21.239  0.00  0.00    +0.046 HD
ATOM     57  H   UNL     1      -2.945  14.939  20.698  0.00  0.00    +0.046 HD
ATOM     58  H   UNL     1      -3.234  13.482  19.724  0.00  0.00    +0.046 HD
ENDBRANCH  53  55
ENDBRANCH  46  49
ENDBRANCH  40  46
ENDBRANCH   1  40
TORSDOF 9
ENDMDL
