MODEL 1
REMARK VINA RESULT:    -9.935      0.000      0.000
REMARK INTER + INTRA:         -13.777
REMARK INTER:                 -12.622
REMARK INTRA:                  -1.155
REMARK UNBOUND:                 0.514
REMARK  Name = 
REMARK  9 active torsions:
REMARK  status: ('A' for Active; 'I' for Inactive)
REMARK    1  A    between atoms: C_1  and  C_2
REMARK    2  A    between atoms: C_2  and  C_3
REMARK    3  A    between atoms: C_2  and  C_10
REMARK    4  A    between atoms: C_3  and  C_4
REMARK    5  A    between atoms: N_8  and  C_9
REMARK    6  A    between atoms: C_14  and  C_16
REMARK    7  A    between atoms: C_22  and  C_31
REMARK    8  A    between atoms: C_24  and  N_25
REMARK    9  A    between atoms: C_28  and  O_30
REMARK                            x       y       z     vdW  Elec       q    Type
REMARK                         _______ _______ _______ _____ _____    ______ ____
ROOT
ATOM      1  C   UNL     1      -0.623  10.773  20.966  0.00  0.00    -0.044 A 
ATOM      2  C   UNL     1      -0.630  10.332  22.295  0.00  0.00    -0.058 A 
ATOM      3  C   UNL     1       0.171   9.261  22.688  0.00  0.00    -0.061 A 
ATOM      4  C   UNL     1       0.988   8.619  21.756  0.00  0.00    -0.052 A 
ATOM      5  C   UNL     1       1.026   9.040  20.417  0.00  0.00    +0.004 A 
ATOM      6  C   UNL     1       0.214  10.121  20.040  0.00  0.00    -0.049 A 
ATOM      7  H   UNL     1      -1.259  10.820  23.036  0.00  0.00    +0.062 HD
ATOM      8  H   UNL     1       0.161   8.923  23.720  0.00  0.00    +0.062 HD
ATOM      9  H   UNL     1       1.604   7.784  22.083  0.00  0.00    +0.062 HD
ATOM     10  H   UNL     1       0.217  10.465  19.009  0.00  0.00    +0.063 HD
ENDROOT
BRANCH   5  11
ATOM     11  C   UNL     1       1.892   8.349  19.450  0.00  0.00    +0.118 A 
ATOM     12  N   UNL     1       2.394   9.003  18.380  0.00  0.00    -0.171 NA
ATOM     13  N   UNL     1       3.122   8.075  17.736  0.00  0.00    -0.273 N 
ATOM     14  C   UNL     1       3.127   6.848  18.326  0.00  0.00    +0.106 A 
ATOM     15  C   UNL     1       2.333   6.983  19.449  0.00  0.00    +0.118 A 
ATOM     16  N   UNL     1       2.096   5.952  20.299  0.00  0.00    -0.240 NA
ATOM     17  C   UNL     1       2.682   4.770  19.971  0.00  0.00    +0.128 A 
ATOM     18  C   UNL     1       3.496   4.596  18.842  0.00  0.00    -0.010 A 
ATOM     19  C   UNL     1       3.749   5.656  17.967  0.00  0.00    +0.059 A 
ATOM     20  H   UNL     1       3.600   8.332  16.881  0.00  0.00    +0.189 HD
ATOM     21  H   UNL     1       3.941   3.621  18.647  0.00  0.00    +0.066 HD
BRANCH  19  22
ATOM     22  N   UNL     1       4.544   5.580  16.829  0.00  0.00    -0.326 N 
ATOM     23  C   UNL     1       4.387   4.337  16.039  0.00  0.00    +0.015 C 
ATOM     24  C   UNL     1       5.768   3.697  16.000  0.00  0.00    -0.010 C 
ATOM     25  C   UNL     1       6.699   4.894  16.070  0.00  0.00    +0.072 C 
ATOM     26  C   UNL     1       5.985   5.788  17.091  0.00  0.00    +0.038 C 
ATOM     27  H   UNL     1       3.636   3.644  16.434  0.00  0.00    +0.046 HD
ATOM     28  H   UNL     1       4.076   4.619  15.026  0.00  0.00    +0.046 HD
ATOM     29  H   UNL     1       5.925   3.093  15.100  0.00  0.00    +0.031 HD
ATOM     30  H   UNL     1       5.917   3.038  16.865  0.00  0.00    +0.031 HD
ATOM     31  H   UNL     1       6.769   5.387  15.092  0.00  0.00    +0.061 HD
ATOM     32  H   UNL     1       6.254   6.841  16.943  0.00  0.00    +0.049 HD
ATOM     33  H   UNL     1       6.285   5.511  18.110  0.00  0.00    +0.049 HD
BRANCH  25  34
ATOM     34  O   UNL     1       7.991   4.488  16.490  0.00  0.00    -0.390 OA
ATOM     35  H   UNL     1       8.256   5.063  17.230  0.00  0.00    +0.210 HD
ENDBRANCH  25  34
ENDBRANCH  19  22
BRANCH  17  36
ATOM     36  C   UNL     1       2.466   3.585  20.907  0.00  0.00    +0.365 C 
ATOM     37  F   UNL     1       2.414   3.953  22.223  0.00  0.00    -0.181 F 
ATOM     38  F   UNL     1       3.460   2.653  20.836  0.00  0.00    -0.181 F 
ATOM     39 CL   UNL     1       0.916   2.790  20.507  0.00  0.00    -0.041 Cl
ENDBRANCH  17  36
ENDBRANCH   5  11
BRANCH   1  40
ATOM     40  C   UNL     1      -1.524  11.928  20.546  0.00  0.00    -0.012 C 
ATOM     41  H   UNL     1      -2.527  11.740  20.953  0.00  0.00    +0.035 HD
BRANCH  40  42
ATOM     42  C   UNL     1      -1.022  13.242  21.155  0.00  0.00    -0.058 C 
ATOM     43  H   UNL     1      -0.281  13.729  20.510  0.00  0.00    +0.024 HD
ATOM     44  H   UNL     1      -0.550  13.073  22.130  0.00  0.00    +0.024 HD
ATOM     45  H   UNL     1      -1.844  13.949  21.307  0.00  0.00    +0.024 HD
ENDBRANCH  40  42
BRANCH  40  46
ATOM     46  C   UNL     1      -1.627  11.997  19.006  0.00  0.00    +0.014 C 
ATOM     47  H   UNL     1      -1.407  13.012  18.650  0.00  0.00    +0.035 HD
ATOM     48  H   UNL     1      -0.862  11.347  18.564  0.00  0.00    +0.035 HD
BRANCH  46  49
ATOM     49  C   UNL     1      -2.971  11.594  18.497  0.00  0.00    +0.134 A 
ATOM     50  N   UNL     1      -4.141  12.018  18.936  0.00  0.00    -0.135 NA
ATOM     51  N   UNL     1      -5.126  11.413  18.195  0.00  0.00    -0.138 NA
ATOM     52  C   UNL     1      -4.542  10.639  17.312  0.00  0.00    +0.120 A 
ATOM     53  N   UNL     1      -3.192  10.724  17.459  0.00  0.00    -0.320 N 
ATOM     54  H   UNL     1      -5.038  10.028  16.574  0.00  0.00    +0.105 HD
BRANCH  53  55
ATOM     55  C   UNL     1      -2.212  10.039  16.661  0.00  0.00    +0.014 C 
ATOM     56  H   UNL     1      -1.244  10.108  17.161  0.00  0.00    +0.046 HD
ATOM     57  H   UNL     1      -2.148  10.508  15.676  0.00  0.00    +0.046 HD
ATOM     58  H   UNL     1      -2.517   8.994  16.557  0.00  0.00    +0.046 HD
ENDBRANCH  53  55
ENDBRANCH  46  49
ENDBRANCH  40  46
ENDBRANCH   1  40
TORSDOF 9
ENDMDL
MODEL 2
REMARK VINA RESULT:    -9.885      1.564      1.932
REMARK INTER + INTRA:         -13.706
REMARK INTER:                 -13.021
REMARK INTRA:                  -0.685
REMARK UNBOUND:                 0.514
REMARK  Name = 
REMARK  9 active torsions:
REMARK  status: ('A' for Active; 'I' for Inactive)
REMARK    1  A    between atoms: C_1  and  C_2
REMARK    2  A    between atoms: C_2  and  C_3
REMARK    3  A    between atoms: C_2  and  C_10
REMARK    4  A    between atoms: C_3  and  C_4
REMARK    5  A    between atoms: N_8  and  C_9
REMARK    6  A    between atoms: C_14  and  C_16
REMARK    7  A    between atoms: C_22  and  C_31
REMARK    8  A    between atoms: C_24  and  N_25
REMARK    9  A    between atoms: C_28  and  O_30
REMARK                            x       y       z     vdW  Elec       q    Type
REMARK                         _______ _______ _______ _____ _____    ______ ____
ROOT
ATOM      1  C   UNL     1       0.169   9.981  19.618  0.00  0.00    -0.044 A 
ATOM      2  C   UNL     1      -0.024   9.794  20.992  0.00  0.00    -0.058 A 
ATOM      3  C   UNL     1       0.662   8.789  21.671  0.00  0.00    -0.061 A 
ATOM      4  C   UNL     1       1.548   7.958  20.984  0.00  0.00    -0.052 A 
ATOM      5  C   UNL     1       1.772   8.122  19.607  0.00  0.00    +0.004 A 
ATOM      6  C   UNL     1       1.073   9.141  18.940  0.00  0.00    -0.049 A 
ATOM      7  H   UNL     1      -0.709  10.432  21.546  0.00  0.00    +0.062 HD
ATOM      8  H   UNL     1       0.508   8.648  22.738  0.00  0.00    +0.062 HD
ATOM      9  H   UNL     1       2.072   7.178  21.532  0.00  0.00    +0.062 HD
ATOM     10  H   UNL     1       1.220   9.288  17.873  0.00  0.00    +0.063 HD
ENDROOT
BRANCH   5  11
ATOM     11  C   UNL     1       2.707   7.235  18.900  0.00  0.00    +0.118 A 
ATOM     12  N   UNL     1       3.714   7.743  18.156  0.00  0.00    -0.171 NA
ATOM     13  N   UNL     1       4.348   6.661  17.672  0.00  0.00    -0.273 N 
ATOM     14  C   UNL     1       3.814   5.470  18.061  0.00  0.00    +0.106 A 
ATOM     15  C   UNL     1       2.737   5.801  18.862  0.00  0.00    +0.118 A 
ATOM     16  N   UNL     1       1.946   4.861  19.438  0.00  0.00    -0.240 NA
ATOM     17  C   UNL     1       2.271   3.569  19.169  0.00  0.00    +0.128 A 
ATOM     18  C   UNL     1       3.357   3.195  18.364  0.00  0.00    -0.010 A 
ATOM     19  C   UNL     1       4.179   4.159  17.773  0.00  0.00    +0.059 A 
ATOM     20  H   UNL     1       5.150   6.791  17.068  0.00  0.00    +0.189 HD
ATOM     21  H   UNL     1       3.564   2.139  18.199  0.00  0.00    +0.066 HD
BRANCH  19  22
ATOM     22  N   UNL     1       5.277   3.885  16.965  0.00  0.00    -0.326 N 
ATOM     23  C   UNL     1       6.575   4.367  17.491  0.00  0.00    +0.015 C 
ATOM     24  C   UNL     1       7.120   5.317  16.434  0.00  0.00    -0.010 C 
ATOM     25  C   UNL     1       6.550   4.755  15.144  0.00  0.00    +0.072 C 
ATOM     26  C   UNL     1       5.130   4.364  15.573  0.00  0.00    +0.038 C 
ATOM     27  H   UNL     1       6.512   4.852  18.471  0.00  0.00    +0.046 HD
ATOM     28  H   UNL     1       7.239   3.500  17.593  0.00  0.00    +0.046 HD
ATOM     29  H   UNL     1       8.214   5.357  16.428  0.00  0.00    +0.031 HD
ATOM     30  H   UNL     1       6.758   6.340  16.604  0.00  0.00    +0.031 HD
ATOM     31  H   UNL     1       7.121   3.877  14.820  0.00  0.00    +0.061 HD
ATOM     32  H   UNL     1       4.735   3.566  14.932  0.00  0.00    +0.049 HD
ATOM     33  H   UNL     1       4.457   5.226  15.479  0.00  0.00    +0.049 HD
BRANCH  25  34
ATOM     34  O   UNL     1       6.574   5.740  14.125  0.00  0.00    -0.390 OA
ATOM     35  H   UNL     1       5.859   5.533  13.496  0.00  0.00    +0.210 HD
ENDBRANCH  25  34
ENDBRANCH  19  22
BRANCH  17  36
ATOM     36  C   UNL     1       1.427   2.473  19.813  0.00  0.00    +0.365 C 
ATOM     37  F   UNL     1       1.807   1.217  19.428  0.00  0.00    -0.181 F 
ATOM     38  F   UNL     1       0.102   2.558  19.498  0.00  0.00    -0.181 F 
ATOM     39 CL   UNL     1       1.594   2.567  21.590  0.00  0.00    -0.041 Cl
ENDBRANCH  17  36
ENDBRANCH   5  11
BRANCH   1  40
ATOM     40  C   UNL     1      -0.608  11.068  18.885  0.00  0.00    -0.012 C 
ATOM     41  H   UNL     1      -1.373  11.457  19.570  0.00  0.00    +0.035 HD
BRANCH  40  42
ATOM     42  C   UNL     1       0.320  12.233  18.524  0.00  0.00    -0.058 C 
ATOM     43  H   UNL     1       0.587  12.222  17.461  0.00  0.00    +0.024 HD
ATOM     44  H   UNL     1       1.253  12.191  19.099  0.00  0.00    +0.024 HD
ATOM     45  H   UNL     1      -0.153  13.197  18.737  0.00  0.00    +0.024 HD
ENDBRANCH  40  42
BRANCH  40  46
ATOM     46  C   UNL     1      -1.317  10.478  17.645  0.00  0.00    +0.014 C 
ATOM     47  H   UNL     1      -0.758  10.717  16.731  0.00  0.00    +0.035 HD
ATOM     48  H   UNL     1      -1.324   9.384  17.720  0.00  0.00    +0.035 HD
BRANCH  46  49
ATOM     49  C   UNL     1      -2.718  10.970  17.490  0.00  0.00    +0.134 A 
ATOM     50  N   UNL     1      -3.467  11.525  18.423  0.00  0.00    -0.135 NA
ATOM     51  N   UNL     1      -4.683  11.843  17.870  0.00  0.00    -0.138 NA
ATOM     52  C   UNL     1      -4.652  11.485  16.609  0.00  0.00    +0.120 A 
ATOM     53  N   UNL     1      -3.439  10.939  16.323  0.00  0.00    -0.320 N 
ATOM     54  H   UNL     1      -5.452  11.603  15.893  0.00  0.00    +0.105 HD
BRANCH  53  55
ATOM     55  C   UNL     1      -3.016  10.447  15.040  0.00  0.00    +0.014 C 
ATOM     56  H   UNL     1      -3.052   9.357  15.054  0.00  0.00    +0.046 HD
ATOM     57  H   UNL     1      -1.994  10.776  14.840  0.00  0.00    +0.046 HD
ATOM     58  H   UNL     1      -3.691  10.843  14.276  0.00  0.00    +0.046 HD
ENDBRANCH  53  55
ENDBRANCH  46  49
ENDBRANCH  40  46
ENDBRANCH   1  40
TORSDOF 9
ENDMDL
MODEL 3
REMARK VINA RESULT:    -9.724      2.074      3.108
REMARK INTER + INTRA:         -13.474
REMARK INTER:                 -12.649
REMARK INTRA:                  -0.825
REMARK UNBOUND:                 0.514
REMARK  Name = 
REMARK  9 active torsions:
REMARK  status: ('A' for Active; 'I' for Inactive)
REMARK    1  A    between atoms: C_1  and  C_2
REMARK    2  A    between atoms: C_2  and  C_3
REMARK    3  A    between atoms: C_2  and  C_10
REMARK    4  A    between atoms: C_3  and  C_4
REMARK    5  A    between atoms: N_8  and  C_9
REMARK    6  A    between atoms: C_14  and  C_16
REMARK    7  A    between atoms: C_22  and  C_31
REMARK    8  A    between atoms: C_24  and  N_25
REMARK    9  A    between atoms: C_28  and  O_30
REMARK                            x       y       z     vdW  Elec       q    Type
REMARK                         _______ _______ _______ _____ _____    ______ ____
ROOT
ATOM      1  C   UNL     1       0.178   9.656  20.367  0.00  0.00    -0.044 A 
ATOM      2  C   UNL     1      -0.511  10.309  19.337  0.00  0.00    -0.058 A 
ATOM      3  C   UNL     1      -0.181  10.069  18.005  0.00  0.00    -0.061 A 
ATOM      4  C   UNL     1       0.842   9.174  17.687  0.00  0.00    -0.052 A 
ATOM      5  C   UNL     1       1.547   8.495  18.694  0.00  0.00    +0.004 A 
ATOM      6  C   UNL     1       1.200   8.749  20.030  0.00  0.00    -0.049 A 
ATOM      7  H   UNL     1      -1.311  11.009  19.564  0.00  0.00    +0.062 HD
ATOM      8  H   UNL     1      -0.718  10.579  17.210  0.00  0.00    +0.062 HD
ATOM      9  H   UNL     1       1.085   9.002  16.640  0.00  0.00    +0.062 HD
ATOM     10  H   UNL     1       1.733   8.244  20.832  0.00  0.00    +0.063 HD
ENDROOT
BRANCH   5  11
ATOM     11  C   UNL     1       2.623   7.558  18.339  0.00  0.00    +0.118 A 
ATOM     12  N   UNL     1       3.702   7.975  17.643  0.00  0.00    -0.171 NA
ATOM     13  N   UNL     1       4.456   6.871  17.507  0.00  0.00    -0.273 N 
ATOM     14  C   UNL     1       3.933   5.752  18.080  0.00  0.00    +0.106 A 
ATOM     15  C   UNL     1       2.733   6.158  18.633  0.00  0.00    +0.118 A 
ATOM     16  N   UNL     1       1.913   5.302  19.295  0.00  0.00    -0.240 NA
ATOM     17  C   UNL     1       2.342   4.014  19.373  0.00  0.00    +0.128 A 
ATOM     18  C   UNL     1       3.554   3.567  18.827  0.00  0.00    -0.010 A 
ATOM     19  C   UNL     1       4.405   4.445  18.149  0.00  0.00    +0.059 A 
ATOM     20  H   UNL     1       5.332   6.933  17.003  0.00  0.00    +0.189 HD
ATOM     21  H   UNL     1       3.838   2.522  18.936  0.00  0.00    +0.066 HD
BRANCH  19  22
ATOM     22  N   UNL     1       5.624   4.096  17.580  0.00  0.00    -0.326 N 
ATOM     23  C   UNL     1       6.809   4.734  18.199  0.00  0.00    +0.015 C 
ATOM     24  C   UNL     1       7.487   5.513  17.082  0.00  0.00    -0.010 C 
ATOM     25  C   UNL     1       7.145   4.703  15.845  0.00  0.00    +0.072 C 
ATOM     26  C   UNL     1       5.688   4.314  16.118  0.00  0.00    +0.038 C 
ATOM     27  H   UNL     1       6.577   5.379  19.054  0.00  0.00    +0.046 HD
ATOM     28  H   UNL     1       7.472   3.937  18.557  0.00  0.00    +0.046 HD
ATOM     29  H   UNL     1       8.567   5.613  17.235  0.00  0.00    +0.031 HD
ATOM     30  H   UNL     1       7.075   6.528  17.007  0.00  0.00    +0.031 HD
ATOM     31  H   UNL     1       7.786   3.815  15.776  0.00  0.00    +0.061 HD
ATOM     32  H   UNL     1       5.421   3.396  15.581  0.00  0.00    +0.049 HD
ATOM     33  H   UNL     1       5.014   5.108  15.769  0.00  0.00    +0.049 HD
BRANCH  25  34
ATOM     34  O   UNL     1       7.304   5.494  14.679  0.00  0.00    -0.390 OA
ATOM     35  H   UNL     1       8.049   6.102  14.833  0.00  0.00    +0.210 HD
ENDBRANCH  25  34
ENDBRANCH  19  22
BRANCH  17  36
ATOM     36  C   UNL     1       1.469   3.017  20.128  0.00  0.00    +0.365 C 
ATOM     37  F   UNL     1       1.557   1.749  19.626  0.00  0.00    -0.181 F 
ATOM     38  F   UNL     1       0.140   3.326  20.089  0.00  0.00    -0.181 F 
ATOM     39 CL   UNL     1       1.986   2.958  21.839  0.00  0.00    -0.041 Cl
ENDBRANCH  17  36
ENDBRANCH   5  11
BRANCH   1  40
ATOM     40  C   UNL     1      -0.177   9.950  21.820  0.00  0.00    -0.012 C 
ATOM     41  H   UNL     1      -1.172   9.528  22.017  0.00  0.00    +0.035 HD
BRANCH  40  42
ATOM     42  C   UNL     1       0.811   9.250  22.760  0.00  0.00    -0.058 C 
ATOM     43  H   UNL     1       0.297   8.768  23.600  0.00  0.00    +0.024 HD
ATOM     44  H   UNL     1       1.531   9.962  23.181  0.00  0.00    +0.024 HD
ATOM     45  H   UNL     1       1.381   8.479  22.234  0.00  0.00    +0.024 HD
ENDBRANCH  40  42
BRANCH  40  46
ATOM     46  C   UNL     1      -0.236  11.474  22.061  0.00  0.00    +0.014 C 
ATOM     47  H   UNL     1       0.449  11.764  22.869  0.00  0.00    +0.035 HD
ATOM     48  H   UNL     1       0.116  11.995  21.163  0.00  0.00    +0.035 HD
BRANCH  46  49
ATOM     49  C   UNL     1      -1.608  11.954  22.405  0.00  0.00    +0.134 A 
ATOM     50  N   UNL     1      -2.320  11.614  23.461  0.00  0.00    -0.135 NA
ATOM     51  N   UNL     1      -3.519  12.283  23.408  0.00  0.00    -0.138 NA
ATOM     52  C   UNL     1      -3.512  13.025  22.327  0.00  0.00    +0.120 A 
ATOM     53  N   UNL     1      -2.334  12.857  21.669  0.00  0.00    -0.320 N 
ATOM     54  H   UNL     1      -4.307  13.678  21.998  0.00  0.00    +0.105 HD
BRANCH  53  55
ATOM     55  C   UNL     1      -1.944  13.517  20.454  0.00  0.00    +0.014 C 
ATOM     56  H   UNL     1      -1.516  12.778  19.775  0.00  0.00    +0.046 HD
ATOM     57  H   UNL     1      -1.197  14.283  20.675  0.00  0.00    +0.046 HD
ATOM     58  H   UNL     1      -2.830  13.978  20.009  0.00  0.00    +0.046 HD
ENDBRANCH  53  55
ENDBRANCH  46  49
ENDBRANCH  40  46
ENDBRANCH   1  40
TORSDOF 9
ENDMDL
MODEL 4
REMARK VINA RESULT:    -9.692      2.408      3.471
REMARK INTER + INTRA:         -13.427
REMARK INTER:                 -12.664
REMARK INTRA:                  -0.763
REMARK UNBOUND:                 0.514
REMARK  Name = 
REMARK  9 active torsions:
REMARK  status: ('A' for Active; 'I' for Inactive)
REMARK    1  A    between atoms: C_1  and  C_2
REMARK    2  A    between atoms: C_2  and  C_3
REMARK    3  A    between atoms: C_2  and  C_10
REMARK    4  A    between atoms: C_3  and  C_4
REMARK    5  A    between atoms: N_8  and  C_9
REMARK    6  A    between atoms: C_14  and  C_16
REMARK    7  A    between atoms: C_22  and  C_31
REMARK    8  A    between atoms: C_24  and  N_25
REMARK    9  A    between atoms: C_28  and  O_30
REMARK                            x       y       z     vdW  Elec       q    Type
REMARK                         _______ _______ _______ _____ _____    ______ ____
ROOT
ATOM      1  C   UNL     1       0.184  10.019  18.928  0.00  0.00    -0.044 A 
ATOM      2  C   UNL     1      -0.052   9.928  20.305  0.00  0.00    -0.058 A 
ATOM      3  C   UNL     1       0.627   8.987  21.077  0.00  0.00    -0.061 A 
ATOM      4  C   UNL     1       1.550   8.127  20.480  0.00  0.00    -0.052 A 
ATOM      5  C   UNL     1       1.817   8.197  19.103  0.00  0.00    +0.004 A 
ATOM      6  C   UNL     1       1.125   9.151  18.342  0.00  0.00    -0.049 A 
ATOM      7  H   UNL     1      -0.767  10.590  20.789  0.00  0.00    +0.062 HD
ATOM      8  H   UNL     1       0.440   8.920  22.145  0.00  0.00    +0.062 HD
ATOM      9  H   UNL     1       2.069   7.399  21.100  0.00  0.00    +0.062 HD
ATOM     10  H   UNL     1       1.305   9.224  17.273  0.00  0.00    +0.063 HD
ENDROOT
BRANCH   5  11
ATOM     11  C   UNL     1       2.792   7.280  18.493  0.00  0.00    +0.118 A 
ATOM     12  N   UNL     1       3.857   7.756  17.812  0.00  0.00    -0.171 NA
ATOM     13  N   UNL     1       4.511   6.654  17.407  0.00  0.00    -0.273 N 
ATOM     14  C   UNL     1       3.935   5.480  17.789  0.00  0.00    +0.106 A 
ATOM     15  C   UNL     1       2.807   5.845  18.498  0.00  0.00    +0.118 A 
ATOM     16  N   UNL     1       1.963   4.931  19.041  0.00  0.00    -0.240 NA
ATOM     17  C   UNL     1       2.292   3.628  18.834  0.00  0.00    +0.128 A 
ATOM     18  C   UNL     1       3.429   3.220  18.122  0.00  0.00    -0.010 A 
ATOM     19  C   UNL     1       4.305   4.157  17.566  0.00  0.00    +0.059 A 
ATOM     20  H   UNL     1       5.357   6.757  16.861  0.00  0.00    +0.189 HD
ATOM     21  H   UNL     1       3.635   2.157  18.003  0.00  0.00    +0.066 HD
BRANCH  19  22
ATOM     22  N   UNL     1       5.456   3.848  16.850  0.00  0.00    -0.326 N 
ATOM     23  C   UNL     1       6.715   4.360  17.440  0.00  0.00    +0.015 C 
ATOM     24  C   UNL     1       7.330   5.260  16.378  0.00  0.00    -0.010 C 
ATOM     25  C   UNL     1       6.851   4.634  15.081  0.00  0.00    +0.072 C 
ATOM     26  C   UNL     1       5.405   4.259  15.430  0.00  0.00    +0.038 C 
ATOM     27  H   UNL     1       6.584   4.892  18.389  0.00  0.00    +0.046 HD
ATOM     28  H   UNL     1       7.370   3.501  17.629  0.00  0.00    +0.046 HD
ATOM     29  H   UNL     1       8.422   5.304  16.446  0.00  0.00    +0.031 HD
ATOM     30  H   UNL     1       6.957   6.288  16.474  0.00  0.00    +0.031 HD
ATOM     31  H   UNL     1       7.444   3.743  14.839  0.00  0.00    +0.061 HD
ATOM     32  H   UNL     1       5.055   3.430  14.803  0.00  0.00    +0.049 HD
ATOM     33  H   UNL     1       4.740   5.113  15.248  0.00  0.00    +0.049 HD
BRANCH  25  34
ATOM     34  O   UNL     1       6.944   5.569  14.019  0.00  0.00    -0.390 OA
ATOM     35  H   UNL     1       6.322   5.290  13.323  0.00  0.00    +0.210 HD
ENDBRANCH  25  34
ENDBRANCH  19  22
BRANCH  17  36
ATOM     36  C   UNL     1       1.389   2.560  19.444  0.00  0.00    +0.365 C 
ATOM     37  F   UNL     1       1.903   1.299  19.322  0.00  0.00    -0.181 F 
ATOM     38  F   UNL     1       0.155   2.500  18.864  0.00  0.00    -0.181 F 
ATOM     39 CL   UNL     1       1.179   2.891  21.188  0.00  0.00    -0.041 Cl
ENDBRANCH  17  36
ENDBRANCH   5  11
BRANCH   1  40
ATOM     40  C   UNL     1      -0.587  11.035  18.093  0.00  0.00    -0.012 C 
ATOM     41  H   UNL     1      -0.069  11.146  17.131  0.00  0.00    +0.035 HD
BRANCH  40  42
ATOM     42  C   UNL     1      -1.999  10.517  17.796  0.00  0.00    -0.058 C 
ATOM     43  H   UNL     1      -2.656  11.318  17.437  0.00  0.00    +0.024 HD
ATOM     44  H   UNL     1      -2.462  10.089  18.693  0.00  0.00    +0.024 HD
ATOM     45  H   UNL     1      -1.982   9.735  17.031  0.00  0.00    +0.024 HD
ENDBRANCH  40  42
BRANCH  40  46
ATOM     46  C   UNL     1      -0.604  12.409  18.799  0.00  0.00    +0.014 C 
ATOM     47  H   UNL     1      -1.205  13.129  18.229  0.00  0.00    +0.035 HD
ATOM     48  H   UNL     1      -1.096  12.307  19.774  0.00  0.00    +0.035 HD
BRANCH  46  49
ATOM     49  C   UNL     1       0.763  12.978  18.993  0.00  0.00    +0.134 A 
ATOM     50  N   UNL     1       1.697  13.116  18.072  0.00  0.00    -0.135 NA
ATOM     51  N   UNL     1       2.800  13.687  18.658  0.00  0.00    -0.138 NA
ATOM     52  C   UNL     1       2.517  13.895  19.921  0.00  0.00    +0.120 A 
ATOM     53  N   UNL     1       1.250  13.472  20.177  0.00  0.00    -0.320 N 
ATOM     54  H   UNL     1       3.173  14.337  20.657  0.00  0.00    +0.105 HD
BRANCH  53  55
ATOM     55  C   UNL     1       0.573  13.552  21.442  0.00  0.00    +0.014 C 
ATOM     56  H   UNL     1      -0.501  13.451  21.271  0.00  0.00    +0.046 HD
ATOM     57  H   UNL     1       0.777  14.519  21.907  0.00  0.00    +0.046 HD
ATOM     58  H   UNL     1       0.937  12.745  22.084  0.00  0.00    +0.046 HD
ENDBRANCH  53  55
ENDBRANCH  46  49
ENDBRANCH  40  46
ENDBRANCH   1  40
TORSDOF 9
ENDMDL
MODEL 5
REMARK VINA RESULT:    -9.661      1.020      1.502
REMARK INTER + INTRA:         -13.384
REMARK INTER:                 -12.520
REMARK INTRA:                  -0.864
REMARK UNBOUND:                 0.514
REMARK  Name = 
REMARK  9 active torsions:
REMARK  status: ('A' for Active; 'I' for Inactive)
REMARK    1  A    between atoms: C_1  and  C_2
REMARK    2  A    between atoms: C_2  and  C_3
REMARK    3  A    between atoms: C_2  and  C_10
REMARK    4  A    between atoms: C_3  and  C_4
REMARK    5  A    between atoms: N_8  and  C_9
REMARK    6  A    between atoms: C_14  and  C_16
REMARK    7  A    between atoms: C_22  and  C_31
REMARK    8  A    between atoms: C_24  and  N_25
REMARK    9  A    between atoms: C_28  and  O_30
REMARK                            x       y       z     vdW  Elec       q    Type
REMARK                         _______ _______ _______ _____ _____    ______ ____
ROOT
ATOM      1  C   UNL     1      -0.799  10.894  20.111  0.00  0.00    -0.044 A 
ATOM      2  C   UNL     1      -0.857  10.634  21.485  0.00  0.00    -0.058 A 
ATOM      3  C   UNL     1      -0.020   9.679  22.060  0.00  0.00    -0.061 A 
ATOM      4  C   UNL     1       0.884   8.973  21.265  0.00  0.00    -0.052 A 
ATOM      5  C   UNL     1       0.975   9.213  19.885  0.00  0.00    +0.004 A 
ATOM      6  C   UNL     1       0.125  10.179  19.324  0.00  0.00    -0.049 A 
ATOM      7  H   UNL     1      -1.554  11.176  22.121  0.00  0.00    +0.062 HD
ATOM      8  H   UNL     1      -0.070   9.482  23.127  0.00  0.00    +0.062 HD
ATOM      9  H   UNL     1       1.527   8.230  21.733  0.00  0.00    +0.062 HD
ATOM     10  H   UNL     1       0.167  10.383  18.258  0.00  0.00    +0.063 HD
ENDROOT
BRANCH   5  11
ATOM     11  C   UNL     1       1.932   8.456  19.064  0.00  0.00    +0.118 A 
ATOM     12  N   UNL     1       2.606   9.054  18.058  0.00  0.00    -0.171 NA
ATOM     13  N   UNL     1       3.371   8.077  17.544  0.00  0.00    -0.273 N 
ATOM     14  C   UNL     1       3.240   6.870  18.161  0.00  0.00    +0.106 A 
ATOM     15  C   UNL     1       2.307   7.074  19.159  0.00  0.00    +0.118 A 
ATOM     16  N   UNL     1       1.909   6.081  19.995  0.00  0.00    -0.240 NA
ATOM     17  C   UNL     1       2.480   4.865  19.782  0.00  0.00    +0.128 A 
ATOM     18  C   UNL     1       3.432   4.622  18.782  0.00  0.00    -0.010 A 
ATOM     19  C   UNL     1       3.850   5.642  17.922  0.00  0.00    +0.059 A 
ATOM     20  H   UNL     1       3.973   8.286  16.757  0.00  0.00    +0.189 HD
ATOM     21  H   UNL     1       3.854   3.624  18.675  0.00  0.00    +0.066 HD
BRANCH  19  22
ATOM     22  N   UNL     1       4.789   5.497  16.908  0.00  0.00    -0.326 N 
ATOM     23  C   UNL     1       4.623   4.285  16.072  0.00  0.00    +0.015 C 
ATOM     24  C   UNL     1       5.924   3.508  16.213  0.00  0.00    -0.010 C 
ATOM     25  C   UNL     1       6.951   4.601  16.445  0.00  0.00    +0.072 C 
ATOM     26  C   UNL     1       6.191   5.552  17.376  0.00  0.00    +0.038 C 
ATOM     27  H   UNL     1       3.757   3.669  16.338  0.00  0.00    +0.046 HD
ATOM     28  H   UNL     1       4.491   4.609  15.032  0.00  0.00    +0.046 HD
ATOM     29  H   UNL     1       6.148   2.900  15.330  0.00  0.00    +0.031 HD
ATOM     30  H   UNL     1       5.881   2.827  17.073  0.00  0.00    +0.031 HD
ATOM     31  H   UNL     1       7.210   5.095  15.500  0.00  0.00    +0.061 HD
ATOM     32  H   UNL     1       6.583   6.574  17.295  0.00  0.00    +0.049 HD
ATOM     33  H   UNL     1       6.312   5.235  18.420  0.00  0.00    +0.049 HD
BRANCH  25  34
ATOM     34  O   UNL     1       8.121   4.059  17.034  0.00  0.00    -0.390 OA
ATOM     35  H   UNL     1       8.716   3.784  16.313  0.00  0.00    +0.210 HD
ENDBRANCH  25  34
ENDBRANCH  19  22
BRANCH  17  36
ATOM     36  C   UNL     1       2.084   3.721  20.710  0.00  0.00    +0.365 C 
ATOM     37  F   UNL     1       0.735   3.503  20.737  0.00  0.00    -0.181 F 
ATOM     38  F   UNL     1       2.439   3.934  22.010  0.00  0.00    -0.181 F 
ATOM     39 CL   UNL     1       2.864   2.212  20.151  0.00  0.00    -0.041 Cl
ENDBRANCH  17  36
ENDBRANCH   5  11
BRANCH   1  40
ATOM     40  C   UNL     1      -1.739  11.922  19.494  0.00  0.00    -0.012 C 
ATOM     41  H   UNL     1      -1.954  12.684  20.255  0.00  0.00    +0.035 HD
BRANCH  40  42
ATOM     42  C   UNL     1      -1.056  12.630  18.318  0.00  0.00    -0.058 C 
ATOM     43  H   UNL     1      -1.376  12.213  17.355  0.00  0.00    +0.024 HD
ATOM     44  H   UNL     1       0.035  12.529  18.373  0.00  0.00    +0.024 HD
ATOM     45  H   UNL     1      -1.287  13.699  18.309  0.00  0.00    +0.024 HD
ENDBRANCH  40  42
BRANCH  40  46
ATOM     46  C   UNL     1      -3.070  11.255  19.082  0.00  0.00    +0.014 C 
ATOM     47  H   UNL     1      -3.261  10.364  19.695  0.00  0.00    +0.035 HD
ATOM     48  H   UNL     1      -3.898  11.946  19.283  0.00  0.00    +0.035 HD
BRANCH  46  49
ATOM     49  C   UNL     1      -3.098  10.857  17.643  0.00  0.00    +0.134 A 
ATOM     50  N   UNL     1      -2.263  10.037  17.035  0.00  0.00    -0.135 NA
ATOM     51  N   UNL     1      -2.641   9.933  15.719  0.00  0.00    -0.138 NA
ATOM     52  C   UNL     1      -3.703  10.683  15.549  0.00  0.00    +0.120 A 
ATOM     53  N   UNL     1      -4.031  11.278  16.728  0.00  0.00    -0.320 N 
ATOM     54  H   UNL     1      -4.249  10.816  14.627  0.00  0.00    +0.105 HD
BRANCH  53  55
ATOM     55  C   UNL     1      -5.147  12.156  16.948  0.00  0.00    +0.014 C 
ATOM     56  H   UNL     1      -5.185  12.413  18.008  0.00  0.00    +0.046 HD
ATOM     57  H   UNL     1      -6.073  11.652  16.662  0.00  0.00    +0.046 HD
ATOM     58  H   UNL     1      -5.008  13.054  16.340  0.00  0.00    +0.046 HD
ENDBRANCH  53  55
ENDBRANCH  46  49
ENDBRANCH  40  46
ENDBRANCH   1  40
TORSDOF 9
ENDMDL
MODEL 6
REMARK VINA RESULT:    -9.629      4.093      8.829
REMARK INTER + INTRA:         -13.337
REMARK INTER:                 -12.352
REMARK INTRA:                  -0.985
REMARK UNBOUND:                 0.514
REMARK  Name = 
REMARK  9 active torsions:
REMARK  status: ('A' for Active; 'I' for Inactive)
REMARK    1  A    between atoms: C_1  and  C_2
REMARK    2  A    between atoms: C_2  and  C_3
REMARK    3  A    between atoms: C_2  and  C_10
REMARK    4  A    between atoms: C_3  and  C_4
REMARK    5  A    between atoms: N_8  and  C_9
REMARK    6  A    between atoms: C_14  and  C_16
REMARK    7  A    between atoms: C_22  and  C_31
REMARK    8  A    between atoms: C_24  and  N_25
REMARK    9  A    between atoms: C_28  and  O_30
REMARK                            x       y       z     vdW  Elec       q    Type
REMARK                         _______ _______ _______ _____ _____    ______ ____
ROOT
ATOM      1  C   UNL     1       3.115   3.951  18.966  0.00  0.00    -0.044 A 
ATOM      2  C   UNL     1       2.695   3.483  20.216  0.00  0.00    -0.058 A 
ATOM      3  C   UNL     1       2.061   4.340  21.114  0.00  0.00    -0.061 A 
ATOM      4  C   UNL     1       1.840   5.674  20.772  0.00  0.00    -0.052 A 
ATOM      5  C   UNL     1       2.241   6.175  19.523  0.00  0.00    +0.004 A 
ATOM      6  C   UNL     1       2.877   5.298  18.631  0.00  0.00    -0.049 A 
ATOM      7  H   UNL     1       2.856   2.446  20.502  0.00  0.00    +0.062 HD
ATOM      8  H   UNL     1       1.737   3.971  22.084  0.00  0.00    +0.062 HD
ATOM      9  H   UNL     1       1.345   6.328  21.488  0.00  0.00    +0.062 HD
ATOM     10  H   UNL     1       3.205   5.658  17.659  0.00  0.00    +0.063 HD
ENDROOT
BRANCH   5  11
ATOM     11  C   UNL     1       2.003   7.586  19.181  0.00  0.00    +0.118 A 
ATOM     12  N   UNL     1       2.410   8.089  17.996  0.00  0.00    -0.171 NA
ATOM     13  N   UNL     1       2.030   9.377  18.034  0.00  0.00    -0.273 N 
ATOM     14  C   UNL     1       1.391   9.746  19.178  0.00  0.00    +0.106 A 
ATOM     15  C   UNL     1       1.355   8.604  19.956  0.00  0.00    +0.118 A 
ATOM     16  N   UNL     1       0.790   8.585  21.190  0.00  0.00    -0.240 NA
ATOM     17  C   UNL     1       0.269   9.765  21.621  0.00  0.00    +0.128 A 
ATOM     18  C   UNL     1       0.284  10.942  20.858  0.00  0.00    -0.010 A 
ATOM     19  C   UNL     1       0.859  10.967  19.584  0.00  0.00    +0.059 A 
ATOM     20  H   UNL     1       2.236   9.974  17.242  0.00  0.00    +0.189 HD
ATOM     21  H   UNL     1      -0.161  11.849  21.264  0.00  0.00    +0.066 HD
BRANCH  19  22
ATOM     22  N   UNL     1       0.917  12.081  18.756  0.00  0.00    -0.326 N 
ATOM     23  C   UNL     1       2.017  13.026  19.056  0.00  0.00    +0.015 C 
ATOM     24  C   UNL     1       1.345  14.357  19.361  0.00  0.00    -0.010 C 
ATOM     25  C   UNL     1       0.085  14.305  18.515  0.00  0.00    +0.072 C 
ATOM     26  C   UNL     1      -0.349  12.844  18.689  0.00  0.00    +0.038 C 
ATOM     27  H   UNL     1       2.671  12.710  19.876  0.00  0.00    +0.046 HD
ATOM     28  H   UNL     1       2.636  13.118  18.155  0.00  0.00    +0.046 HD
ATOM     29  H   UNL     1       1.980  15.214  19.118  0.00  0.00    +0.031 HD
ATOM     30  H   UNL     1       1.093  14.431  20.428  0.00  0.00    +0.031 HD
ATOM     31  H   UNL     1       0.316  14.527  17.466  0.00  0.00    +0.061 HD
ATOM     32  H   UNL     1      -0.953  12.513  17.836  0.00  0.00    +0.049 HD
ATOM     33  H   UNL     1      -0.966  12.740  19.591  0.00  0.00    +0.049 HD
BRANCH  25  34
ATOM     34  O   UNL     1      -0.871  15.233  18.998  0.00  0.00    -0.390 OA
ATOM     35  H   UNL     1      -0.947  15.106  19.961  0.00  0.00    +0.210 HD
ENDBRANCH  25  34
ENDBRANCH  19  22
BRANCH  17  36
ATOM     36  C   UNL     1      -0.399   9.790  22.992  0.00  0.00    +0.365 C 
ATOM     37  F   UNL     1       0.492   9.642  24.018  0.00  0.00    -0.181 F 
ATOM     38  F   UNL     1      -1.313   8.792  23.166  0.00  0.00    -0.181 F 
ATOM     39 CL   UNL     1      -1.226  11.359  23.216  0.00  0.00    -0.041 Cl
ENDBRANCH  17  36
ENDBRANCH   5  11
BRANCH   1  40
ATOM     40  C   UNL     1       3.831   3.008  18.006  0.00  0.00    -0.012 C 
ATOM     41  H   UNL     1       4.763   2.680  18.485  0.00  0.00    +0.035 HD
BRANCH  40  42
ATOM     42  C   UNL     1       2.980   1.758  17.755  0.00  0.00    -0.058 C 
ATOM     43  H   UNL     1       3.485   0.849  18.103  0.00  0.00    +0.024 HD
ATOM     44  H   UNL     1       2.768   1.628  16.687  0.00  0.00    +0.024 HD
ATOM     45  H   UNL     1       2.018   1.821  18.274  0.00  0.00    +0.024 HD
ENDBRANCH  40  42
BRANCH  40  46
ATOM     46  C   UNL     1       4.189   3.745  16.696  0.00  0.00    +0.014 C 
ATOM     47  H   UNL     1       4.003   3.100  15.827  0.00  0.00    +0.035 HD
ATOM     48  H   UNL     1       3.527   4.612  16.577  0.00  0.00    +0.035 HD
BRANCH  46  49
ATOM     49  C   UNL     1       5.610   4.199  16.656  0.00  0.00    +0.134 A 
ATOM     50  N   UNL     1       6.360   4.535  17.688  0.00  0.00    -0.135 NA
ATOM     51  N   UNL     1       7.604   4.884  17.224  0.00  0.00    -0.138 NA
ATOM     52  C   UNL     1       7.595   4.747  15.920  0.00  0.00    +0.120 A 
ATOM     53  N   UNL     1       6.369   4.315  15.519  0.00  0.00    -0.320 N 
ATOM     54  H   UNL     1       8.423   4.937  15.253  0.00  0.00    +0.105 HD
BRANCH  53  55
ATOM     55  C   UNL     1       5.977   4.028  14.166  0.00  0.00    +0.014 C 
ATOM     56  H   UNL     1       5.073   3.416  14.186  0.00  0.00    +0.046 HD
ATOM     57  H   UNL     1       6.775   3.481  13.660  0.00  0.00    +0.046 HD
ATOM     58  H   UNL     1       5.788   4.974  13.651  0.00  0.00    +0.046 HD
ENDBRANCH  53  55
ENDBRANCH  46  49
ENDBRANCH  40  46
ENDBRANCH   1  40
TORSDOF 9
ENDMDL
MODEL 7
REMARK VINA RESULT:    -9.428      2.298      3.279
REMARK INTER + INTRA:         -13.048
REMARK INTER:                 -12.390
REMARK INTRA:                  -0.658
REMARK UNBOUND:                 0.514
REMARK  Name = 
REMARK  9 active torsions:
REMARK  status: ('A' for Active; 'I' for Inactive)
REMARK    1  A    between atoms: C_1  and  C_2
REMARK    2  A    between atoms: C_2  and  C_3
REMARK    3  A    between atoms: C_2  and  C_10
REMARK    4  A    between atoms: C_3  and  C_4
REMARK    5  A    between atoms: N_8  and  C_9
REMARK    6  A    between atoms: C_14  and  C_16
REMARK    7  A    between atoms: C_22  and  C_31
REMARK    8  A    between atoms: C_24  and  N_25
REMARK    9  A    between atoms: C_28  and  O_30
REMARK                            x       y       z     vdW  Elec       q    Type
REMARK                         _______ _______ _______ _____ _____    ______ ____
ROOT
ATOM      1  C   UNL     1      -0.659  11.003  21.468  0.00  0.00    -0.044 A 
ATOM      2  C   UNL     1      -0.678  10.484  22.768  0.00  0.00    -0.058 A 
ATOM      3  C   UNL     1       0.042   9.331  23.078  0.00  0.00    -0.061 A 
ATOM      4  C   UNL     1       0.788   8.685  22.091  0.00  0.00    -0.052 A 
ATOM      5  C   UNL     1       0.835   9.182  20.779  0.00  0.00    +0.004 A 
ATOM      6  C   UNL     1       0.106  10.345  20.485  0.00  0.00    -0.049 A 
ATOM      7  H   UNL     1      -1.252  10.974  23.551  0.00  0.00    +0.062 HD
ATOM      8  H   UNL     1       0.023   8.932  24.088  0.00  0.00    +0.062 HD
ATOM      9  H   UNL     1       1.341   7.785  22.354  0.00  0.00    +0.062 HD
ATOM     10  H   UNL     1       0.118  10.751  19.477  0.00  0.00    +0.063 HD
ENDROOT
BRANCH   5  11
ATOM     11  C   UNL     1       1.625   8.485  19.753  0.00  0.00    +0.118 A 
ATOM     12  N   UNL     1       2.070   9.141  18.659  0.00  0.00    -0.171 NA
ATOM     13  N   UNL     1       2.738   8.206  17.961  0.00  0.00    -0.273 N 
ATOM     14  C   UNL     1       2.760   6.974  18.540  0.00  0.00    +0.106 A 
ATOM     15  C   UNL     1       2.041   7.112  19.712  0.00  0.00    +0.118 A 
ATOM     16  N   UNL     1       1.840   6.078  20.568  0.00  0.00    -0.240 NA
ATOM     17  C   UNL     1       2.383   4.888  20.194  0.00  0.00    +0.128 A 
ATOM     18  C   UNL     1       3.121   4.711  19.014  0.00  0.00    -0.010 A 
ATOM     19  C   UNL     1       3.336   5.774  18.132  0.00  0.00    +0.059 A 
ATOM     20  H   UNL     1       3.165   8.463  17.080  0.00  0.00    +0.189 HD
ATOM     21  H   UNL     1       3.534   3.731  18.783  0.00  0.00    +0.066 HD
BRANCH  19  22
ATOM     22  N   UNL     1       4.055   5.695  16.946  0.00  0.00    -0.326 N 
ATOM     23  C   UNL     1       4.469   4.327  16.556  0.00  0.00    +0.015 C 
ATOM     24  C   UNL     1       5.988   4.366  16.470  0.00  0.00    -0.010 C 
ATOM     25  C   UNL     1       6.270   5.801  16.065  0.00  0.00    +0.072 C 
ATOM     26  C   UNL     1       5.246   6.572  16.908  0.00  0.00    +0.038 C 
ATOM     27  H   UNL     1       4.125   3.541  17.238  0.00  0.00    +0.046 HD
ATOM     28  H   UNL     1       4.043   4.116  15.567  0.00  0.00    +0.046 HD
ATOM     29  H   UNL     1       6.386   3.640  15.754  0.00  0.00    +0.031 HD
ATOM     30  H   UNL     1       6.439   4.142  17.446  0.00  0.00    +0.031 HD
ATOM     31  H   UNL     1       6.087   5.943  14.993  0.00  0.00    +0.061 HD
ATOM     32  H   UNL     1       5.001   7.533  16.441  0.00  0.00    +0.049 HD
ATOM     33  H   UNL     1       5.660   6.784  17.902  0.00  0.00    +0.049 HD
BRANCH  25  34
ATOM     34  O   UNL     1       7.612   6.143  16.368  0.00  0.00    -0.390 OA
ATOM     35  H   UNL     1       8.152   5.339  16.265  0.00  0.00    +0.210 HD
ENDBRANCH  25  34
ENDBRANCH  19  22
BRANCH  17  36
ATOM     36  C   UNL     1       2.207   3.699  21.132  0.00  0.00    +0.365 C 
ATOM     37  F   UNL     1       0.942   3.180  21.098  0.00  0.00    -0.181 F 
ATOM     38  F   UNL     1       2.432   4.007  22.442  0.00  0.00    -0.181 F 
ATOM     39 CL   UNL     1       3.337   2.398  20.655  0.00  0.00    -0.041 Cl
ENDBRANCH  17  36
ENDBRANCH   5  11
BRANCH   1  40
ATOM     40  C   UNL     1      -1.472  12.249  21.138  0.00  0.00    -0.012 C 
ATOM     41  H   UNL     1      -0.814  13.122  21.248  0.00  0.00    +0.035 HD
BRANCH  40  42
ATOM     42  C   UNL     1      -1.939  12.209  19.678  0.00  0.00    -0.058 C 
ATOM     43  H   UNL     1      -3.000  12.471  19.586  0.00  0.00    +0.024 HD
ATOM     44  H   UNL     1      -1.809  11.209  19.248  0.00  0.00    +0.024 HD
ATOM     45  H   UNL     1      -1.370  12.909  19.060  0.00  0.00    +0.024 HD
ENDBRANCH  40  42
BRANCH  40  46
ATOM     46  C   UNL     1      -2.651  12.399  22.126  0.00  0.00    +0.014 C 
ATOM     47  H   UNL     1      -3.576  12.643  21.589  0.00  0.00    +0.035 HD
ATOM     48  H   UNL     1      -2.831  11.436  22.620  0.00  0.00    +0.035 HD
BRANCH  46  49
ATOM     49  C   UNL     1      -2.409  13.447  23.161  0.00  0.00    +0.134 A 
ATOM     50  N   UNL     1      -1.239  13.903  23.564  0.00  0.00    -0.135 NA
ATOM     51  N   UNL     1      -1.455  14.865  24.520  0.00  0.00    -0.138 NA
ATOM     52  C   UNL     1      -2.751  14.984  24.678  0.00  0.00    +0.120 A 
ATOM     53  N   UNL     1      -3.391  14.120  23.844  0.00  0.00    -0.320 N 
ATOM     54  H   UNL     1      -3.251  15.661  25.356  0.00  0.00    +0.105 HD
BRANCH  53  55
ATOM     55  C   UNL     1      -4.814  13.972  23.713  0.00  0.00    +0.014 C 
ATOM     56  H   UNL     1      -5.031  12.956  23.379  0.00  0.00    +0.046 HD
ATOM     57  H   UNL     1      -5.191  14.686  22.976  0.00  0.00    +0.046 HD
ATOM     58  H   UNL     1      -5.275  14.164  24.685  0.00  0.00    +0.046 HD
ENDBRANCH  53  55
ENDBRANCH  46  49
ENDBRANCH  40  46
ENDBRANCH   1  40
TORSDOF 9
ENDMDL
MODEL 8
REMARK VINA RESULT:    -9.281      2.254      3.169
REMARK INTER + INTRA:         -12.836
REMARK INTER:                 -11.820
REMARK INTRA:                  -1.016
REMARK UNBOUND:                 0.514
REMARK  Name = 
REMARK  9 active torsions:
REMARK  status: ('A' for Active; 'I' for Inactive)
REMARK    1  A    between atoms: C_1  and  C_2
REMARK    2  A    between atoms: C_2  and  C_3
REMARK    3  A    between atoms: C_2  and  C_10
REMARK    4  A    between atoms: C_3  and  C_4
REMARK    5  A    between atoms: N_8  and  C_9
REMARK    6  A    between atoms: C_14  and  C_16
REMARK    7  A    between atoms: C_22  and  C_31
REMARK    8  A    between atoms: C_24  and  N_25
REMARK    9  A    between atoms: C_28  and  O_30
REMARK                            x       y       z     vdW  Elec       q    Type
REMARK                         _______ _______ _______ _____ _____    ______ ____
ROOT
ATOM      1  C   UNL     1      -0.206  11.036  21.016  0.00  0.00    -0.044 A 
ATOM      2  C   UNL     1      -0.635  10.362  22.166  0.00  0.00    -0.058 A 
ATOM      3  C   UNL     1      -0.248   9.043  22.396  0.00  0.00    -0.061 A 
ATOM      4  C   UNL     1       0.571   8.383  21.479  0.00  0.00    -0.052 A 
ATOM      5  C   UNL     1       1.026   9.031  20.320  0.00  0.00    +0.004 A 
ATOM      6  C   UNL     1       0.628  10.360  20.104  0.00  0.00    -0.049 A 
ATOM      7  H   UNL     1      -1.273  10.859  22.893  0.00  0.00    +0.062 HD
ATOM      8  H   UNL     1      -0.584   8.524  23.290  0.00  0.00    +0.062 HD
ATOM      9  H   UNL     1       0.860   7.352  21.676  0.00  0.00    +0.062 HD
ATOM     10  H   UNL     1       0.958  10.886  19.213  0.00  0.00    +0.063 HD
ENDROOT
BRANCH   5  11
ATOM     11  C   UNL     1       1.886   8.318  19.363  0.00  0.00    +0.118 A 
ATOM     12  N   UNL     1       2.386   8.948  18.279  0.00  0.00    -0.171 NA
ATOM     13  N   UNL     1       3.109   8.006  17.651  0.00  0.00    -0.273 N 
ATOM     14  C   UNL     1       3.114   6.791  18.266  0.00  0.00    +0.106 A 
ATOM     15  C   UNL     1       2.324   6.952  19.389  0.00  0.00    +0.118 A 
ATOM     16  N   UNL     1       2.087   5.939  20.261  0.00  0.00    -0.240 NA
ATOM     17  C   UNL     1       2.669   4.748  19.956  0.00  0.00    +0.128 A 
ATOM     18  C   UNL     1       3.480   4.549  18.828  0.00  0.00    -0.010 A 
ATOM     19  C   UNL     1       3.732   5.590  17.930  0.00  0.00    +0.059 A 
ATOM     20  H   UNL     1       3.585   8.244  16.790  0.00  0.00    +0.189 HD
ATOM     21  H   UNL     1       3.921   3.570  18.652  0.00  0.00    +0.066 HD
BRANCH  19  22
ATOM     22  N   UNL     1       4.522   5.488  16.792  0.00  0.00    -0.326 N 
ATOM     23  C   UNL     1       4.390   4.212  16.051  0.00  0.00    +0.015 C 
ATOM     24  C   UNL     1       5.786   3.604  16.028  0.00  0.00    -0.010 C 
ATOM     25  C   UNL     1       6.689   4.824  16.046  0.00  0.00    +0.072 C 
ATOM     26  C   UNL     1       5.959   5.740  17.036  0.00  0.00    +0.038 C 
ATOM     27  H   UNL     1       3.658   3.518  16.477  0.00  0.00    +0.046 HD
ATOM     28  H   UNL     1       4.068   4.448  15.030  0.00  0.00    +0.046 HD
ATOM     29  H   UNL     1       5.953   2.970  15.152  0.00  0.00    +0.031 HD
ATOM     30  H   UNL     1       5.955   2.983  16.917  0.00  0.00    +0.031 HD
ATOM     31  H   UNL     1       6.742   5.280  15.050  0.00  0.00    +0.061 HD
ATOM     32  H   UNL     1       6.203   6.792  16.846  0.00  0.00    +0.049 HD
ATOM     33  H   UNL     1       6.271   5.509  18.063  0.00  0.00    +0.049 HD
BRANCH  25  34
ATOM     34  O   UNL     1       7.992   4.464  16.474  0.00  0.00    -0.390 OA
ATOM     35  H   UNL     1       8.525   4.283  15.679  0.00  0.00    +0.210 HD
ENDBRANCH  25  34
ENDBRANCH  19  22
BRANCH  17  36
ATOM     36  C   UNL     1       2.455   3.584  20.917  0.00  0.00    +0.365 C 
ATOM     37  F   UNL     1       2.397   3.980  22.225  0.00  0.00    -0.181 F 
ATOM     38  F   UNL     1       3.451   2.653  20.869  0.00  0.00    -0.181 F 
ATOM     39 CL   UNL     1       0.908   2.776  20.530  0.00  0.00    -0.041 Cl
ENDBRANCH  17  36
ENDBRANCH   5  11
BRANCH   1  40
ATOM     40  C   UNL     1      -0.659  12.469  20.765  0.00  0.00    -0.012 C 
ATOM     41  H   UNL     1      -0.824  12.589  19.686  0.00  0.00    +0.035 HD
BRANCH  40  42
ATOM     42  C   UNL     1      -1.997  12.734  21.465  0.00  0.00    -0.058 C 
ATOM     43  H   UNL     1      -2.846  12.566  20.791  0.00  0.00    +0.024 HD
ATOM     44  H   UNL     1      -2.060  13.769  21.823  0.00  0.00    +0.024 HD
ATOM     45  H   UNL     1      -2.128  12.079  22.332  0.00  0.00    +0.024 HD
ENDBRANCH  40  42
BRANCH  40  46
ATOM     46  C   UNL     1       0.438  13.464  21.204  0.00  0.00    +0.014 C 
ATOM     47  H   UNL     1      -0.010  14.397  21.569  0.00  0.00    +0.035 HD
ATOM     48  H   UNL     1       0.991  13.041  22.051  0.00  0.00    +0.035 HD
BRANCH  46  49
ATOM     49  C   UNL     1       1.395  13.793  20.106  0.00  0.00    +0.134 A 
ATOM     50  N   UNL     1       1.160  13.729  18.810  0.00  0.00    -0.135 NA
ATOM     51  N   UNL     1       2.295  14.122  18.144  0.00  0.00    -0.138 NA
ATOM     52  C   UNL     1       3.198  14.427  19.044  0.00  0.00    +0.120 A 
ATOM     53  N   UNL     1       2.679  14.242  20.288  0.00  0.00    -0.320 N 
ATOM     54  H   UNL     1       4.201  14.777  18.848  0.00  0.00    +0.105 HD
BRANCH  53  55
ATOM     55  C   UNL     1       3.356  14.490  21.531  0.00  0.00    +0.014 C 
ATOM     56  H   UNL     1       3.313  13.586  22.139  0.00  0.00    +0.046 HD
ATOM     57  H   UNL     1       2.864  15.309  22.060  0.00  0.00    +0.046 HD
ATOM     58  H   UNL     1       4.394  14.758  21.314  0.00  0.00    +0.046 HD
ENDBRANCH  53  55
ENDBRANCH  46  49
ENDBRANCH  40  46
ENDBRANCH   1  40
TORSDOF 9
ENDMDL
MODEL 9
REMARK VINA RESULT:    -9.182      4.780      9.830
REMARK INTER + INTRA:         -12.694
REMARK INTER:                 -11.977
REMARK INTRA:                  -0.717
REMARK UNBOUND:                 0.514
REMARK  Name = 
REMARK  9 active torsions:
REMARK  status: ('A' for Active; 'I' for Inactive)
REMARK    1  A    between atoms: C_1  and  C_2
REMARK    2  A    between atoms: C_2  and  C_3
REMARK    3  A    between atoms: C_2  and  C_10
REMARK    4  A    between atoms: C_3  and  C_4
REMARK    5  A    between atoms: N_8  and  C_9
REMARK    6  A    between atoms: C_14  and  C_16
REMARK    7  A    between atoms: C_22  and  C_31
REMARK    8  A    between atoms: C_24  and  N_25
REMARK    9  A    between atoms: C_28  and  O_30
REMARK                            x       y       z     vdW  Elec       q    Type
REMARK                         _______ _______ _______ _____ _____    ______ ____
ROOT
ATOM      1  C   UNL     1       2.741   6.529  19.318  0.00  0.00    -0.044 A 
ATOM      2  C   UNL     1       3.161   6.762  18.003  0.00  0.00    -0.058 A 
ATOM      3  C   UNL     1       2.808   7.940  17.347  0.00  0.00    -0.061 A 
ATOM      4  C   UNL     1       2.030   8.898  17.999  0.00  0.00    -0.052 A 
ATOM      5  C   UNL     1       1.598   8.701  19.320  0.00  0.00    +0.004 A 
ATOM      6  C   UNL     1       1.965   7.509  19.965  0.00  0.00    -0.049 A 
ATOM      7  H   UNL     1       3.769   6.029  17.478  0.00  0.00    +0.062 HD
ATOM      8  H   UNL     1       3.136   8.116  16.326  0.00  0.00    +0.062 HD
ATOM      9  H   UNL     1       1.763   9.810  17.469  0.00  0.00    +0.062 HD
ATOM     10  H   UNL     1       1.640   7.325  20.986  0.00  0.00    +0.063 HD
ENDROOT
BRANCH   5  11
ATOM     11  C   UNL     1       0.777   9.721  19.989  0.00  0.00    +0.118 A 
ATOM     12  N   UNL     1       1.108  10.181  21.215  0.00  0.00    -0.171 NA
ATOM     13  N   UNL     1       0.153  11.082  21.501  0.00  0.00    -0.273 N 
ATOM     14  C   UNL     1      -0.786  11.241  20.527  0.00  0.00    +0.106 A 
ATOM     15  C   UNL     1      -0.416  10.367  19.522  0.00  0.00    +0.118 A 
ATOM     16  N   UNL     1      -1.126  10.241  18.373  0.00  0.00    -0.240 NA
ATOM     17  C   UNL     1      -2.235  11.022  18.274  0.00  0.00    +0.128 A 
ATOM     18  C   UNL     1      -2.639  11.922  19.271  0.00  0.00    -0.010 A 
ATOM     19  C   UNL     1      -1.909  12.060  20.455  0.00  0.00    +0.059 A 
ATOM     20  H   UNL     1       0.184  11.566  22.389  0.00  0.00    +0.189 HD
ATOM     21  H   UNL     1      -3.534  12.523  19.120  0.00  0.00    +0.066 HD
BRANCH  19  22
ATOM     22  N   UNL     1      -2.228  12.926  21.494  0.00  0.00    -0.326 N 
ATOM     23  C   UNL     1      -2.921  12.296  22.642  0.00  0.00    +0.015 C 
ATOM     24  C   UNL     1      -4.250  13.025  22.771  0.00  0.00    -0.010 C 
ATOM     25  C   UNL     1      -3.927  14.417  22.260  0.00  0.00    +0.072 C 
ATOM     26  C   UNL     1      -3.010  14.108  21.070  0.00  0.00    +0.038 C 
ATOM     27  H   UNL     1      -3.064  11.214  22.543  0.00  0.00    +0.046 HD
ATOM     28  H   UNL     1      -2.311  12.467  23.537  0.00  0.00    +0.046 HD
ATOM     29  H   UNL     1      -4.627  13.031  23.799  0.00  0.00    +0.031 HD
ATOM     30  H   UNL     1      -5.018  12.550  22.146  0.00  0.00    +0.031 HD
ATOM     31  H   UNL     1      -3.399  14.997  23.026  0.00  0.00    +0.061 HD
ATOM     32  H   UNL     1      -2.345  14.954  20.860  0.00  0.00    +0.049 HD
ATOM     33  H   UNL     1      -3.611  13.930  20.168  0.00  0.00    +0.049 HD
BRANCH  25  34
ATOM     34  O   UNL     1      -5.116  15.092  21.888  0.00  0.00    -0.390 OA
ATOM     35  H   UNL     1      -5.242  15.833  22.508  0.00  0.00    +0.210 HD
ENDBRANCH  25  34
ENDBRANCH  19  22
BRANCH  17  36
ATOM     36  C   UNL     1      -3.055  10.935  16.991  0.00  0.00    +0.365 C 
ATOM     37  F   UNL     1      -3.304   9.646  16.608  0.00  0.00    -0.181 F 
ATOM     38  F   UNL     1      -2.443  11.515  15.919  0.00  0.00    -0.181 F 
ATOM     39 CL   UNL     1      -4.633  11.738  17.243  0.00  0.00    -0.041 Cl
ENDBRANCH  17  36
ENDBRANCH   5  11
BRANCH   1  40
ATOM     40  C   UNL     1       3.114   5.224  20.012  0.00  0.00    -0.012 C 
ATOM     41  H   UNL     1       3.838   5.457  20.804  0.00  0.00    +0.035 HD
BRANCH  40  42
ATOM     42  C   UNL     1       1.881   4.609  20.684  0.00  0.00    -0.058 C 
ATOM     43  H   UNL     1       1.113   4.340  19.950  0.00  0.00    +0.024 HD
ATOM     44  H   UNL     1       1.426   5.308  21.395  0.00  0.00    +0.024 HD
ATOM     45  H   UNL     1       2.142   3.702  21.238  0.00  0.00    +0.024 HD
ENDBRANCH  40  42
BRANCH  40  46
ATOM     46  C   UNL     1       3.780   4.255  19.011  0.00  0.00    +0.014 C 
ATOM     47  H   UNL     1       3.770   3.229  19.402  0.00  0.00    +0.035 HD
ATOM     48  H   UNL     1       3.193   4.233  18.085  0.00  0.00    +0.035 HD
BRANCH  46  49
ATOM     49  C   UNL     1       5.190   4.629  18.693  0.00  0.00    +0.134 A 
ATOM     50  N   UNL     1       6.071   5.158  19.519  0.00  0.00    -0.135 NA
ATOM     51  N   UNL     1       7.249   5.340  18.837  0.00  0.00    -0.138 NA
ATOM     52  C   UNL     1       7.069   4.912  17.611  0.00  0.00    +0.120 A 
ATOM     53  N   UNL     1       5.797   4.452  17.475  0.00  0.00    -0.320 N 
ATOM     54  H   UNL     1       7.806   4.912  16.822  0.00  0.00    +0.105 HD
BRANCH  53  55
ATOM     55  C   UNL     1       5.229   3.883  16.283  0.00  0.00    +0.014 C 
ATOM     56  H   UNL     1       5.650   2.887  16.136  0.00  0.00    +0.046 HD
ATOM     57  H   UNL     1       5.472   4.511  15.424  0.00  0.00    +0.046 HD
ATOM     58  H   UNL     1       4.144   3.826  16.408  0.00  0.00    +0.046 HD
ENDBRANCH  53  55
ENDBRANCH  46  49
ENDBRANCH  40  46
ENDBRANCH   1  40
TORSDOF 9
ENDMDL
MODEL 10
REMARK VINA RESULT:    -9.104      2.107      3.368
REMARK INTER + INTRA:         -12.582
REMARK INTER:                 -11.286
REMARK INTRA:                  -1.296
REMARK UNBOUND:                 0.514
REMARK  Name = 
REMARK  9 active torsions:
REMARK  status: ('A' for Active; 'I' for Inactive)
REMARK    1  A    between atoms: C_1  and  C_2
REMARK    2  A    between atoms: C_2  and  C_3
REMARK    3  A    between atoms: C_2  and  C_10
REMARK    4  A    between atoms: C_3  and  C_4
REMARK    5  A    between atoms: N_8  and  C_9
REMARK    6  A    between atoms: C_14  and  C_16
REMARK    7  A    between atoms: C_22  and  C_31
REMARK    8  A    between atoms: C_24  and  N_25
REMARK    9  A    between atoms: C_28  and  O_30
REMARK                            x       y       z     vdW  Elec       q    Type
REMARK                         _______ _______ _______ _____ _____    ______ ____
ROOT
ATOM      1  C   UNL     1      -0.604  10.317  20.688  0.00  0.00    -0.044 A 
ATOM      2  C   UNL     1      -1.538  10.839  19.785  0.00  0.00    -0.058 A 
ATOM      3  C   UNL     1      -1.354  10.687  18.412  0.00  0.00    -0.061 A 
ATOM      4  C   UNL     1      -0.234  10.011  17.926  0.00  0.00    -0.052 A 
ATOM      5  C   UNL     1       0.718   9.468  18.804  0.00  0.00    +0.004 A 
ATOM      6  C   UNL     1       0.516   9.630  20.183  0.00  0.00    -0.049 A 
ATOM      7  H   UNL     1      -2.418  11.368  20.144  0.00  0.00    +0.062 HD
ATOM      8  H   UNL     1      -2.082  11.095  17.716  0.00  0.00    +0.062 HD
ATOM      9  H   UNL     1      -0.108   9.905  16.851  0.00  0.00    +0.062 HD
ATOM     10  H   UNL     1       1.239   9.226  20.887  0.00  0.00    +0.063 HD
ENDROOT
BRANCH   5  11
ATOM     11  C   UNL     1       1.894   8.761  18.272  0.00  0.00    +0.118 A 
ATOM     12  N   UNL     1       2.803   9.407  17.510  0.00  0.00    -0.171 NA
ATOM     13  N   UNL     1       3.716   8.466  17.214  0.00  0.00    -0.273 N 
ATOM     14  C   UNL     1       3.457   7.239  17.744  0.00  0.00    +0.106 A 
ATOM     15  C   UNL     1       2.273   7.388  18.441  0.00  0.00    +0.118 A 
ATOM     16  N   UNL     1       1.690   6.360  19.110  0.00  0.00    -0.240 NA
ATOM     17  C   UNL     1       2.339   5.168  19.042  0.00  0.00    +0.128 A 
ATOM     18  C   UNL     1       3.543   4.979  18.348  0.00  0.00    -0.010 A 
ATOM     19  C   UNL     1       4.152   6.035  17.663  0.00  0.00    +0.059 A 
ATOM     20  H   UNL     1       4.508   8.715  16.635  0.00  0.00    +0.189 HD
ATOM     21  H   UNL     1       4.012   3.997  18.345  0.00  0.00    +0.066 HD
BRANCH  19  22
ATOM     22  N   UNL     1       5.343   5.945  16.953  0.00  0.00    -0.326 N 
ATOM     23  C   UNL     1       5.328   4.983  15.826  0.00  0.00    +0.015 C 
ATOM     24  C   UNL     1       6.432   3.979  16.128  0.00  0.00    -0.010 C 
ATOM     25  C   UNL     1       7.438   4.804  16.910  0.00  0.00    +0.072 C 
ATOM     26  C   UNL     1       6.523   5.657  17.797  0.00  0.00    +0.038 C 
ATOM     27  H   UNL     1       4.365   4.485  15.672  0.00  0.00    +0.046 HD
ATOM     28  H   UNL     1       5.565   5.536  14.909  0.00  0.00    +0.046 HD
ATOM     29  H   UNL     1       6.861   3.541  15.221  0.00  0.00    +0.031 HD
ATOM     30  H   UNL     1       6.050   3.152  16.740  0.00  0.00    +0.031 HD
ATOM     31  H   UNL     1       8.031   5.433  16.234  0.00  0.00    +0.061 HD
ATOM     32  H   UNL     1       7.022   6.588  18.091  0.00  0.00    +0.049 HD
ATOM     33  H   UNL     1       6.275   5.111  18.717  0.00  0.00    +0.049 HD
BRANCH  25  34
ATOM     34  O   UNL     1       8.301   3.956  17.649  0.00  0.00    -0.390 OA
ATOM     35  H   UNL     1       8.255   3.068  17.251  0.00  0.00    +0.210 HD
ENDBRANCH  25  34
ENDBRANCH  19  22
BRANCH  17  36
ATOM     36  C   UNL     1       1.738   3.986  19.797  0.00  0.00    +0.365 C 
ATOM     37  F   UNL     1       0.842   4.371  20.756  0.00  0.00    -0.181 F 
ATOM     38  F   UNL     1       2.668   3.237  20.457  0.00  0.00    -0.181 F 
ATOM     39 CL   UNL     1       0.873   2.928  18.644  0.00  0.00    -0.041 Cl
ENDBRANCH  17  36
ENDBRANCH   5  11
BRANCH   1  40
ATOM     40  C   UNL     1      -0.806  10.515  22.186  0.00  0.00    -0.012 C 
ATOM     41  H   UNL     1      -1.831  10.208  22.433  0.00  0.00    +0.035 HD
BRANCH  40  42
ATOM     42  C   UNL     1       0.147   9.610  22.975  0.00  0.00    -0.058 C 
ATOM     43  H   UNL     1      -0.041   9.669  24.053  0.00  0.00    +0.024 HD
ATOM     44  H   UNL     1       1.193   9.892  22.807  0.00  0.00    +0.024 HD
ATOM     45  H   UNL     1       0.038   8.563  22.676  0.00  0.00    +0.024 HD
ENDBRANCH  40  42
BRANCH  40  46
ATOM     46  C   UNL     1      -0.640  12.005  22.558  0.00  0.00    +0.014 C 
ATOM     47  H   UNL     1       0.229  12.145  23.213  0.00  0.00    +0.035 HD
ATOM     48  H   UNL     1      -0.432  12.583  21.649  0.00  0.00    +0.035 HD
BRANCH  46  49
ATOM     49  C   UNL     1      -1.845  12.571  23.236  0.00  0.00    +0.134 A 
ATOM     50  N   UNL     1      -2.956  11.926  23.536  0.00  0.00    -0.135 NA
ATOM     51  N   UNL     1      -3.809  12.803  24.161  0.00  0.00    -0.138 NA
ATOM     52  C   UNL     1      -3.201  13.962  24.239  0.00  0.00    +0.120 A 
ATOM     53  N   UNL     1      -1.966  13.864  23.678  0.00  0.00    -0.320 N 
ATOM     54  H   UNL     1      -3.601  14.863  24.680  0.00  0.00    +0.105 HD
BRANCH  53  55
ATOM     55  C   UNL     1      -0.992  14.918  23.591  0.00  0.00    +0.014 C 
ATOM     56  H   UNL     1       0.005  14.477  23.632  0.00  0.00    +0.046 HD
ATOM     57  H   UNL     1      -1.120  15.606  24.430  0.00  0.00    +0.046 HD
ATOM     58  H   UNL     1      -1.139  15.450  22.647  0.00  0.00    +0.046 HD
ENDBRANCH  53  55
ENDBRANCH  46  49
ENDBRANCH  40  46
ENDBRANCH   1  40
TORSDOF 9
ENDMDL
MODEL 11
REMARK VINA RESULT:    -9.102      1.561      2.384
REMARK INTER + INTRA:         -12.580
REMARK INTER:                 -12.936
REMARK INTRA:                   0.356
REMARK UNBOUND:                 0.514
REMARK  Name = 
REMARK  9 active torsions:
REMARK  status: ('A' for Active; 'I' for Inactive)
REMARK    1  A    between atoms: C_1  and  C_2
REMARK    2  A    between atoms: C_2  and  C_3
REMARK    3  A    between atoms: C_2  and  C_10
REMARK    4  A    between atoms: C_3  and  C_4
REMARK    5  A    between atoms: N_8  and  C_9
REMARK    6  A    between atoms: C_14  and  C_16
REMARK    7  A    between atoms: C_22  and  C_31
REMARK    8  A    between atoms: C_24  and  N_25
REMARK    9  A    between atoms: C_28  and  O_30
REMARK                            x       y       z     vdW  Elec       q    Type
REMARK                         _______ _______ _______ _____ _____    ______ ____
ROOT
ATOM      1  C   UNL     1      -0.040   9.955  18.749  0.00  0.00    -0.044 A 
ATOM      2  C   UNL     1      -0.153  10.046  20.142  0.00  0.00    -0.058 A 
ATOM      3  C   UNL     1       0.653   9.266  20.968  0.00  0.00    -0.061 A 
ATOM      4  C   UNL     1       1.582   8.386  20.411  0.00  0.00    -0.052 A 
ATOM      5  C   UNL     1       1.727   8.275  19.019  0.00  0.00    +0.004 A 
ATOM      6  C   UNL     1       0.907   9.069  18.202  0.00  0.00    -0.049 A 
ATOM      7  H   UNL     1      -0.870  10.727  20.595  0.00  0.00    +0.062 HD
ATOM      8  H   UNL     1       0.561   9.340  22.048  0.00  0.00    +0.062 HD
ATOM      9  H   UNL     1       2.201   7.784  21.073  0.00  0.00    +0.062 HD
ATOM     10  H   UNL     1       0.992   9.001  17.121  0.00  0.00    +0.063 HD
ENDROOT
BRANCH   5  11
ATOM     11  C   UNL     1       2.710   7.339  18.450  0.00  0.00    +0.118 A 
ATOM     12  N   UNL     1       3.765   7.792  17.740  0.00  0.00    -0.171 NA
ATOM     13  N   UNL     1       4.431   6.678  17.389  0.00  0.00    -0.273 N 
ATOM     14  C   UNL     1       3.871   5.519  17.834  0.00  0.00    +0.106 A 
ATOM     15  C   UNL     1       2.742   5.907  18.530  0.00  0.00    +0.118 A 
ATOM     16  N   UNL     1       1.913   5.012  19.124  0.00  0.00    -0.240 NA
ATOM     17  C   UNL     1       2.256   3.704  18.982  0.00  0.00    +0.128 A 
ATOM     18  C   UNL     1       3.395   3.273  18.286  0.00  0.00    -0.010 A 
ATOM     19  C   UNL     1       4.256   4.191  17.677  0.00  0.00    +0.059 A 
ATOM     20  H   UNL     1       5.273   6.764  16.833  0.00  0.00    +0.189 HD
ATOM     21  H   UNL     1       3.612   2.209  18.221  0.00  0.00    +0.066 HD
BRANCH  19  22
ATOM     22  N   UNL     1       5.407   3.860  16.972  0.00  0.00    -0.326 N 
ATOM     23  C   UNL     1       6.668   4.370  17.557  0.00  0.00    +0.015 C 
ATOM     24  C   UNL     1       7.296   5.246  16.482  0.00  0.00    -0.010 C 
ATOM     25  C   UNL     1       6.816   4.601  15.195  0.00  0.00    +0.072 C 
ATOM     26  C   UNL     1       5.366   4.245  15.544  0.00  0.00    +0.038 C 
ATOM     27  H   UNL     1       6.538   4.920  18.497  0.00  0.00    +0.046 HD
ATOM     28  H   UNL     1       7.315   3.509  17.765  0.00  0.00    +0.046 HD
ATOM     29  H   UNL     1       8.387   5.281  16.554  0.00  0.00    +0.031 HD
ATOM     30  H   UNL     1       6.931   6.279  16.559  0.00  0.00    +0.031 HD
ATOM     31  H   UNL     1       7.401   3.701  14.971  0.00  0.00    +0.061 HD
ATOM     32  H   UNL     1       5.010   3.408  14.930  0.00  0.00    +0.049 HD
ATOM     33  H   UNL     1       4.709   5.102  15.345  0.00  0.00    +0.049 HD
BRANCH  25  34
ATOM     34  O   UNL     1       6.922   5.516  14.117  0.00  0.00    -0.390 OA
ATOM     35  H   UNL     1       7.865   5.590  13.883  0.00  0.00    +0.210 HD
ENDBRANCH  25  34
ENDBRANCH  19  22
BRANCH  17  36
ATOM     36  C   UNL     1       1.369   2.658  19.652  0.00  0.00    +0.365 C 
ATOM     37  F   UNL     1       1.772   1.378  19.391  0.00  0.00    -0.181 F 
ATOM     38  F   UNL     1       0.068   2.714  19.246  0.00  0.00    -0.181 F 
ATOM     39 CL   UNL     1       1.419   2.890  21.424  0.00  0.00    -0.041 Cl
ENDBRANCH  17  36
ENDBRANCH   5  11
BRANCH   1  40
ATOM     40  C   UNL     1      -0.948  10.796  17.859  0.00  0.00    -0.012 C 
ATOM     41  H   UNL     1      -0.337  11.210  17.046  0.00  0.00    +0.035 HD
BRANCH  40  42
ATOM     42  C   UNL     1      -2.027   9.916  17.218  0.00  0.00    -0.058 C 
ATOM     43  H   UNL     1      -3.033  10.212  17.538  0.00  0.00    +0.024 HD
ATOM     44  H   UNL     1      -1.893   8.862  17.489  0.00  0.00    +0.024 HD
ATOM     45  H   UNL     1      -1.995   9.980  16.126  0.00  0.00    +0.024 HD
ENDBRANCH  40  42
BRANCH  40  46
ATOM     46  C   UNL     1      -1.552  11.970  18.663  0.00  0.00    +0.014 C 
ATOM     47  H   UNL     1      -1.226  11.928  19.710  0.00  0.00    +0.035 HD
ATOM     48  H   UNL     1      -1.168  12.916  18.263  0.00  0.00    +0.035 HD
BRANCH  46  49
ATOM     49  C   UNL     1      -3.044  11.989  18.628  0.00  0.00    +0.134 A 
ATOM     50  N   UNL     1      -3.813  11.671  17.605  0.00  0.00    -0.135 NA
ATOM     51  N   UNL     1      -5.124  11.814  17.988  0.00  0.00    -0.138 NA
ATOM     52  C   UNL     1      -5.132  12.206  19.239  0.00  0.00    +0.120 A 
ATOM     53  N   UNL     1      -3.853  12.325  19.685  0.00  0.00    -0.320 N 
ATOM     54  H   UNL     1      -6.008  12.404  19.839  0.00  0.00    +0.105 HD
BRANCH  53  55
ATOM     55  C   UNL     1      -3.453  12.712  21.010  0.00  0.00    +0.014 C 
ATOM     56  H   UNL     1      -4.320  13.120  21.532  0.00  0.00    +0.046 HD
ATOM     57  H   UNL     1      -2.673  13.474  20.950  0.00  0.00    +0.046 HD
ATOM     58  H   UNL     1      -3.072  11.829  21.530  0.00  0.00    +0.046 HD
ENDBRANCH  53  55
ENDBRANCH  46  49
ENDBRANCH  40  46
ENDBRANCH   1  40
TORSDOF 9
ENDMDL
MODEL 12
REMARK VINA RESULT:    -9.095      4.821      9.684
REMARK INTER + INTRA:         -12.569
REMARK INTER:                 -12.554
REMARK INTRA:                  -0.015
REMARK UNBOUND:                 0.514
REMARK  Name = 
REMARK  9 active torsions:
REMARK  status: ('A' for Active; 'I' for Inactive)
REMARK    1  A    between atoms: C_1  and  C_2
REMARK    2  A    between atoms: C_2  and  C_3
REMARK    3  A    between atoms: C_2  and  C_10
REMARK    4  A    between atoms: C_3  and  C_4
REMARK    5  A    between atoms: N_8  and  C_9
REMARK    6  A    between atoms: C_14  and  C_16
REMARK    7  A    between atoms: C_22  and  C_31
REMARK    8  A    between atoms: C_24  and  N_25
REMARK    9  A    between atoms: C_28  and  O_30
REMARK                            x       y       z     vdW  Elec       q    Type
REMARK                         _______ _______ _______ _____ _____    ______ ____
ROOT
ATOM      1  C   UNL     1       2.702   6.814  19.402  0.00  0.00    -0.044 A 
ATOM      2  C   UNL     1       3.196   7.033  18.110  0.00  0.00    -0.058 A 
ATOM      3  C   UNL     1       2.818   8.166  17.393  0.00  0.00    -0.061 A 
ATOM      4  C   UNL     1       1.942   9.093  17.959  0.00  0.00    -0.052 A 
ATOM      5  C   UNL     1       1.434   8.909  19.255  0.00  0.00    +0.004 A 
ATOM      6  C   UNL     1       1.826   7.763  19.963  0.00  0.00    -0.049 A 
ATOM      7  H   UNL     1       3.881   6.323  17.652  0.00  0.00    +0.062 HD
ATOM      8  H   UNL     1       3.204   8.331  16.390  0.00  0.00    +0.062 HD
ATOM      9  H   UNL     1       1.658   9.971  17.381  0.00  0.00    +0.062 HD
ATOM     10  H   UNL     1       1.445   7.589  20.966  0.00  0.00    +0.063 HD
ENDROOT
BRANCH   5  11
ATOM     11  C   UNL     1       0.509   9.897  19.833  0.00  0.00    +0.118 A 
ATOM     12  N   UNL     1       0.728  10.412  21.062  0.00  0.00    -0.171 NA
ATOM     13  N   UNL     1      -0.297  11.260  21.253  0.00  0.00    -0.273 N 
ATOM     14  C   UNL     1      -1.174  11.333  20.214  0.00  0.00    +0.106 A 
ATOM     15  C   UNL     1      -0.684  10.454  19.265  0.00  0.00    +0.118 A 
ATOM     16  N   UNL     1      -1.305  10.251  18.076  0.00  0.00    -0.240 NA
ATOM     17  C   UNL     1      -2.449  10.960  17.877  0.00  0.00    +0.128 A 
ATOM     18  C   UNL     1      -2.973  11.862  18.814  0.00  0.00    -0.010 A 
ATOM     19  C   UNL     1      -2.335  12.079  20.039  0.00  0.00    +0.059 A 
ATOM     20  H   UNL     1      -0.356  11.771  22.125  0.00  0.00    +0.189 HD
ATOM     21  H   UNL     1      -3.890  12.402  18.583  0.00  0.00    +0.066 HD
BRANCH  19  22
ATOM     22  N   UNL     1      -2.777  12.954  21.025  0.00  0.00    -0.326 N 
ATOM     23  C   UNL     1      -1.902  13.045  22.217  0.00  0.00    +0.015 C 
ATOM     24  C   UNL     1      -2.771  12.637  23.397  0.00  0.00    -0.010 C 
ATOM     25  C   UNL     1      -4.159  13.074  22.966  0.00  0.00    +0.072 C 
ATOM     26  C   UNL     1      -4.160  12.694  21.480  0.00  0.00    +0.038 C 
ATOM     27  H   UNL     1      -0.994  12.434  22.157  0.00  0.00    +0.046 HD
ATOM     28  H   UNL     1      -1.590  14.091  22.325  0.00  0.00    +0.046 HD
ATOM     29  H   UNL     1      -2.455  13.106  24.334  0.00  0.00    +0.031 HD
ATOM     30  H   UNL     1      -2.737  11.550  23.550  0.00  0.00    +0.031 HD
ATOM     31  H   UNL     1      -4.282  14.156  23.097  0.00  0.00    +0.061 HD
ATOM     32  H   UNL     1      -4.872  13.311  20.920  0.00  0.00    +0.049 HD
ATOM     33  H   UNL     1      -4.466  11.646  21.360  0.00  0.00    +0.049 HD
BRANCH  25  34
ATOM     34  O   UNL     1      -5.147  12.389  23.718  0.00  0.00    -0.390 OA
ATOM     35  H   UNL     1      -5.584  13.041  24.295  0.00  0.00    +0.210 HD
ENDBRANCH  25  34
ENDBRANCH  19  22
BRANCH  17  36
ATOM     36  C   UNL     1      -3.172  10.785  16.545  0.00  0.00    +0.365 C 
ATOM     37  F   UNL     1      -3.314   9.473  16.188  0.00  0.00    -0.181 F 
ATOM     38  F   UNL     1      -2.524  11.373  15.498  0.00  0.00    -0.181 F 
ATOM     39 CL   UNL     1      -4.809  11.493  16.666  0.00  0.00    -0.041 Cl
ENDBRANCH  17  36
ENDBRANCH   5  11
BRANCH   1  40
ATOM     40  C   UNL     1       3.104   5.556  20.163  0.00  0.00    -0.012 C 
ATOM     41  H   UNL     1       3.507   5.864  21.137  0.00  0.00    +0.035 HD
BRANCH  40  42
ATOM     42  C   UNL     1       1.874   4.681  20.431  0.00  0.00    -0.058 C 
ATOM     43  H   UNL     1       1.440   4.298  19.500  0.00  0.00    +0.024 HD
ATOM     44  H   UNL     1       1.091   5.246  20.951  0.00  0.00    +0.024 HD
ATOM     45  H   UNL     1       2.128   3.821  21.058  0.00  0.00    +0.024 HD
ENDBRANCH  40  42
BRANCH  40  46
ATOM     46  C   UNL     1       4.208   4.794  19.397  0.00  0.00    +0.014 C 
ATOM     47  H   UNL     1       4.646   5.430  18.617  0.00  0.00    +0.035 HD
ATOM     48  H   UNL     1       5.026   4.553  20.088  0.00  0.00    +0.035 HD
BRANCH  46  49
ATOM     49  C   UNL     1       3.712   3.537  18.763  0.00  0.00    +0.134 A 
ATOM     50  N   UNL     1       3.026   3.437  17.641  0.00  0.00    -0.135 NA
ATOM     51  N   UNL     1       2.774   2.108  17.404  0.00  0.00    -0.138 NA
ATOM     52  C   UNL     1       3.317   1.421  18.380  0.00  0.00    +0.120 A 
ATOM     53  N   UNL     1       3.920   2.272  19.252  0.00  0.00    -0.320 N 
ATOM     54  H   UNL     1       3.301   0.346  18.488  0.00  0.00    +0.105 HD
BRANCH  53  55
ATOM     55  C   UNL     1       4.642   1.894  20.437  0.00  0.00    +0.014 C 
ATOM     56  H   UNL     1       5.603   2.412  20.441  0.00  0.00    +0.046 HD
ATOM     57  H   UNL     1       4.809   0.815  20.437  0.00  0.00    +0.046 HD
ATOM     58  H   UNL     1       4.049   2.179  21.310  0.00  0.00    +0.046 HD
ENDBRANCH  53  55
ENDBRANCH  46  49
ENDBRANCH  40  46
ENDBRANCH   1  40
TORSDOF 9
ENDMDL
MODEL 13
REMARK VINA RESULT:    -8.943      4.445      9.514
REMARK INTER + INTRA:         -12.351
REMARK INTER:                 -11.182
REMARK INTRA:                  -1.169
REMARK UNBOUND:                 0.514
REMARK  Name = 
REMARK  9 active torsions:
REMARK  status: ('A' for Active; 'I' for Inactive)
REMARK    1  A    between atoms: C_1  and  C_2
REMARK    2  A    between atoms: C_2  and  C_3
REMARK    3  A    between atoms: C_2  and  C_10
REMARK    4  A    between atoms: C_3  and  C_4
REMARK    5  A    between atoms: N_8  and  C_9
REMARK    6  A    between atoms: C_14  and  C_16
REMARK    7  A    between atoms: C_22  and  C_31
REMARK    8  A    between atoms: C_24  and  N_25
REMARK    9  A    between atoms: C_28  and  O_30
REMARK                            x       y       z     vdW  Elec       q    Type
REMARK                         _______ _______ _______ _____ _____    ______ ____
ROOT
ATOM      1  C   UNL     1       2.851   5.939  18.685  0.00  0.00    -0.044 A 
ATOM      2  C   UNL     1       2.601   4.754  19.389  0.00  0.00    -0.058 A 
ATOM      3  C   UNL     1       1.876   4.780  20.579  0.00  0.00    -0.061 A 
ATOM      4  C   UNL     1       1.392   5.990  21.078  0.00  0.00    -0.052 A 
ATOM      5  C   UNL     1       1.617   7.195  20.394  0.00  0.00    +0.004 A 
ATOM      6  C   UNL     1       2.349   7.151  19.197  0.00  0.00    -0.049 A 
ATOM      7  H   UNL     1       2.969   3.801  19.016  0.00  0.00    +0.062 HD
ATOM      8  H   UNL     1       1.686   3.858  21.121  0.00  0.00    +0.062 HD
ATOM      9  H   UNL     1       0.830   5.989  22.010  0.00  0.00    +0.062 HD
ATOM     10  H   UNL     1       2.545   8.068  18.648  0.00  0.00    +0.063 HD
ENDROOT
BRANCH   5  11
ATOM     11  C   UNL     1       1.102   8.461  20.937  0.00  0.00    +0.118 A 
ATOM     12  N   UNL     1       1.470   8.887  22.165  0.00  0.00    -0.171 NA
ATOM     13  N   UNL     1       0.818  10.052  22.321  0.00  0.00    -0.273 N 
ATOM     14  C   UNL     1       0.045  10.416  21.261  0.00  0.00    +0.106 A 
ATOM     15  C   UNL     1       0.201   9.401  20.335  0.00  0.00    +0.118 A 
ATOM     16  N   UNL     1      -0.430   9.412  19.133  0.00  0.00    -0.240 NA
ATOM     17  C   UNL     1      -1.236  10.482  18.899  0.00  0.00    +0.128 A 
ATOM     18  C   UNL     1      -1.416  11.531  19.812  0.00  0.00    -0.010 A 
ATOM     19  C   UNL     1      -0.764  11.528  21.049  0.00  0.00    +0.059 A 
ATOM     20  H   UNL     1       0.932  10.567  23.185  0.00  0.00    +0.189 HD
ATOM     21  H   UNL     1      -2.071  12.361  19.552  0.00  0.00    +0.066 HD
BRANCH  19  22
ATOM     22  N   UNL     1      -0.877  12.522  22.013  0.00  0.00    -0.326 N 
ATOM     23  C   UNL     1      -1.662  12.144  23.211  0.00  0.00    +0.015 C 
ATOM     24  C   UNL     1      -2.809  13.142  23.284  0.00  0.00    -0.010 C 
ATOM     25  C   UNL     1      -2.216  14.390  22.657  0.00  0.00    +0.072 C 
ATOM     26  C   UNL     1      -1.407  13.803  21.494  0.00  0.00    +0.038 C 
ATOM     27  H   UNL     1      -2.028  11.112  23.203  0.00  0.00    +0.046 HD
ATOM     28  H   UNL     1      -1.012  12.257  24.088  0.00  0.00    +0.046 HD
ATOM     29  H   UNL     1      -3.156  13.309  24.308  0.00  0.00    +0.031 HD
ATOM     30  H   UNL     1      -3.671  12.788  22.702  0.00  0.00    +0.031 HD
ATOM     31  H   UNL     1      -1.563  14.908  23.371  0.00  0.00    +0.061 HD
ATOM     32  H   UNL     1      -0.585  14.472  21.213  0.00  0.00    +0.049 HD
ATOM     33  H   UNL     1      -2.049  13.681  20.612  0.00  0.00    +0.049 HD
BRANCH  25  34
ATOM     34  O   UNL     1      -3.247  15.266  22.233  0.00  0.00    -0.390 OA
ATOM     35  H   UNL     1      -3.956  14.722  21.845  0.00  0.00    +0.210 HD
ENDBRANCH  25  34
ENDBRANCH  19  22
BRANCH  17  36
ATOM     36  C   UNL     1      -1.949  10.554  17.552  0.00  0.00    +0.365 C 
ATOM     37  F   UNL     1      -1.416   9.703  16.624  0.00  0.00    -0.181 F 
ATOM     38  F   UNL     1      -1.893  11.790  16.977  0.00  0.00    -0.181 F 
ATOM     39 CL   UNL     1      -3.667  10.108  17.769  0.00  0.00    -0.041 Cl
ENDBRANCH  17  36
ENDBRANCH   5  11
BRANCH   1  40
ATOM     40  C   UNL     1       3.669   5.897  17.400  0.00  0.00    -0.012 C 
ATOM     41  H   UNL     1       2.976   6.001  16.554  0.00  0.00    +0.035 HD
BRANCH  40  42
ATOM     42  C   UNL     1       4.638   7.085  17.347  0.00  0.00    -0.058 C 
ATOM     43  H   UNL     1       4.110   8.040  17.450  0.00  0.00    +0.024 HD
ATOM     44  H   UNL     1       5.183   7.110  16.396  0.00  0.00    +0.024 HD
ATOM     45  H   UNL     1       5.380   7.027  18.150  0.00  0.00    +0.024 HD
ENDBRANCH  40  42
BRANCH  40  46
ATOM     46  C   UNL     1       4.398   4.541  17.270  0.00  0.00    +0.014 C 
ATOM     47  H   UNL     1       4.940   4.304  18.194  0.00  0.00    +0.035 HD
ATOM     48  H   UNL     1       3.656   3.744  17.139  0.00  0.00    +0.035 HD
BRANCH  46  49
ATOM     49  C   UNL     1       5.362   4.508  16.130  0.00  0.00    +0.134 A 
ATOM     50  N   UNL     1       5.064   4.461  14.846  0.00  0.00    -0.135 NA
ATOM     51  N   UNL     1       6.236   4.454  14.130  0.00  0.00    -0.138 NA
ATOM     52  C   UNL     1       7.226   4.506  14.988  0.00  0.00    +0.120 A 
ATOM     53  N   UNL     1       6.728   4.547  16.253  0.00  0.00    -0.320 N 
ATOM     54  H   UNL     1       8.279   4.520  14.746  0.00  0.00    +0.105 HD
BRANCH  53  55
ATOM     55  C   UNL     1       7.501   4.630  17.462  0.00  0.00    +0.014 C 
ATOM     56  H   UNL     1       7.406   3.687  18.003  0.00  0.00    +0.046 HD
ATOM     57  H   UNL     1       7.125   5.446  18.083  0.00  0.00    +0.046 HD
ATOM     58  H   UNL     1       8.545   4.816  17.195  0.00  0.00    +0.046 HD
ENDBRANCH  53  55
ENDBRANCH  46  49
ENDBRANCH  40  46
ENDBRANCH   1  40
TORSDOF 9
ENDMDL
MODEL 14
REMARK VINA RESULT:    -8.862      2.167      3.179
REMARK INTER + INTRA:         -12.234
REMARK INTER:                 -11.376
REMARK INTRA:                  -0.857
REMARK UNBOUND:                 0.514
REMARK  Name = 
REMARK  9 active torsions:
REMARK  status: ('A' for Active; 'I' for Inactive)
REMARK    1  A    between atoms: C_1  and  C_2
REMARK    2  A    between atoms: C_2  and  C_3
REMARK    3  A    between atoms: C_2  and  C_10
REMARK    4  A    between atoms: C_3  and  C_4
REMARK    5  A    between atoms: N_8  and  C_9
REMARK    6  A    between atoms: C_14  and  C_16
REMARK    7  A    between atoms: C_22  and  C_31
REMARK    8  A    between atoms: C_24  and  N_25
REMARK    9  A    between atoms: C_28  and  O_30
REMARK                            x       y       z     vdW  Elec       q    Type
REMARK                         _______ _______ _______ _____ _____    ______ ____
ROOT
ATOM      1  C   UNL     1       0.176   9.941  19.984  0.00  0.00    -0.044 A 
ATOM      2  C   UNL     1      -0.702  10.274  18.946  0.00  0.00    -0.058 A 
ATOM      3  C   UNL     1      -0.525   9.739  17.672  0.00  0.00    -0.061 A 
ATOM      4  C   UNL     1       0.534   8.864  17.421  0.00  0.00    -0.052 A 
ATOM      5  C   UNL     1       1.428   8.502  18.441  0.00  0.00    +0.004 A 
ATOM      6  C   UNL     1       1.233   9.050  19.718  0.00  0.00    -0.049 A 
ATOM      7  H   UNL     1      -1.534  10.953  19.121  0.00  0.00    +0.062 HD
ATOM      8  H   UNL     1      -1.209  10.001  16.870  0.00  0.00    +0.062 HD
ATOM      9  H   UNL     1       0.656   8.459  16.419  0.00  0.00    +0.062 HD
ATOM     10  H   UNL     1       1.913   8.794  20.526  0.00  0.00    +0.063 HD
ENDROOT
BRANCH   5  11
ATOM     11  C   UNL     1       2.539   7.581  18.156  0.00  0.00    +0.118 A 
ATOM     12  N   UNL     1       3.622   7.997  17.464  0.00  0.00    -0.171 NA
ATOM     13  N   UNL     1       4.411   6.911  17.399  0.00  0.00    -0.273 N 
ATOM     14  C   UNL     1       3.907   5.806  18.015  0.00  0.00    +0.106 A 
ATOM     15  C   UNL     1       2.683   6.201  18.521  0.00  0.00    +0.118 A 
ATOM     16  N   UNL     1       1.873   5.354  19.207  0.00  0.00    -0.240 NA
ATOM     17  C   UNL     1       2.337   4.085  19.357  0.00  0.00    +0.128 A 
ATOM     18  C   UNL     1       3.575   3.649  18.861  0.00  0.00    -0.010 A 
ATOM     19  C   UNL     1       4.415   4.518  18.159  0.00  0.00    +0.059 A 
ATOM     20  H   UNL     1       5.297   6.975  16.913  0.00  0.00    +0.189 HD
ATOM     21  H   UNL     1       3.886   2.619  19.027  0.00  0.00    +0.066 HD
BRANCH  19  22
ATOM     22  N   UNL     1       5.657   4.179  17.635  0.00  0.00    -0.326 N 
ATOM     23  C   UNL     1       6.807   4.890  18.242  0.00  0.00    +0.015 C 
ATOM     24  C   UNL     1       7.484   5.628  17.096  0.00  0.00    -0.010 C 
ATOM     25  C   UNL     1       7.196   4.739  15.900  0.00  0.00    +0.072 C 
ATOM     26  C   UNL     1       5.745   4.318  16.165  0.00  0.00    +0.038 C 
ATOM     27  H   UNL     1       6.536   5.573  19.054  0.00  0.00    +0.046 HD
ATOM     28  H   UNL     1       7.487   4.136  18.656  0.00  0.00    +0.046 HD
ATOM     29  H   UNL     1       8.557   5.771  17.265  0.00  0.00    +0.031 HD
ATOM     30  H   UNL     1       7.041   6.623  16.957  0.00  0.00    +0.031 HD
ATOM     31  H   UNL     1       7.865   3.870  15.893  0.00  0.00    +0.061 HD
ATOM     32  H   UNL     1       5.520   3.363  15.675  0.00  0.00    +0.049 HD
ATOM     33  H   UNL     1       5.055   5.068  15.759  0.00  0.00    +0.049 HD
BRANCH  25  34
ATOM     34  O   UNL     1       7.354   5.470  14.695  0.00  0.00    -0.390 OA
ATOM     35  H   UNL     1       7.344   4.832  13.959  0.00  0.00    +0.210 HD
ENDBRANCH  25  34
ENDBRANCH  19  22
BRANCH  17  36
ATOM     36  C   UNL     1       1.476   3.100  20.142  0.00  0.00    +0.365 C 
ATOM     37  F   UNL     1       1.595   1.815  19.688  0.00  0.00    -0.181 F 
ATOM     38  F   UNL     1       0.142   3.380  20.078  0.00  0.00    -0.181 F 
ATOM     39 CL   UNL     1       1.976   3.116  21.858  0.00  0.00    -0.041 Cl
ENDBRANCH  17  36
ENDBRANCH   5  11
BRANCH   1  40
ATOM     40  C   UNL     1      -0.017  10.556  21.366  0.00  0.00    -0.012 C 
ATOM     41  H   UNL     1      -1.078  10.817  21.475  0.00  0.00    +0.035 HD
BRANCH  40  42
ATOM     42  C   UNL     1       0.317   9.530  22.455  0.00  0.00    -0.058 C 
ATOM     43  H   UNL     1       1.320   9.108  22.319  0.00  0.00    +0.024 HD
ATOM     44  H   UNL     1      -0.395   8.696  22.447  0.00  0.00    +0.024 HD
ATOM     45  H   UNL     1       0.280   9.982  23.451  0.00  0.00    +0.024 HD
ENDBRANCH  40  42
BRANCH  40  46
ATOM     46  C   UNL     1       0.821  11.847  21.501  0.00  0.00    +0.014 C 
ATOM     47  H   UNL     1       0.823  12.198  22.540  0.00  0.00    +0.035 HD
ATOM     48  H   UNL     1       1.866  11.626  21.252  0.00  0.00    +0.035 HD
BRANCH  46  49
ATOM     49  C   UNL     1       0.328  12.951  20.625  0.00  0.00    +0.134 A 
ATOM     50  N   UNL     1      -0.763  13.671  20.803  0.00  0.00    -0.135 NA
ATOM     51  N   UNL     1      -0.849  14.586  19.782  0.00  0.00    -0.138 NA
ATOM     52  C   UNL     1       0.195  14.415  19.006  0.00  0.00    +0.120 A 
ATOM     53  N   UNL     1       0.964  13.406  19.497  0.00  0.00    -0.320 N 
ATOM     54  H   UNL     1       0.426  14.981  18.116  0.00  0.00    +0.105 HD
BRANCH  53  55
ATOM     55  C   UNL     1       2.201  12.938  18.935  0.00  0.00    +0.014 C 
ATOM     56  H   UNL     1       3.015  13.558  19.317  0.00  0.00    +0.046 HD
ATOM     57  H   UNL     1       2.163  13.017  17.847  0.00  0.00    +0.046 HD
ATOM     58  H   UNL     1       2.343  11.895  19.229  0.00  0.00    +0.046 HD
ENDBRANCH  53  55
ENDBRANCH  46  49
ENDBRANCH  40  46
ENDBRANCH   1  40
TORSDOF 9
ENDMDL
MODEL 15
REMARK VINA RESULT:    -8.770      4.682      9.553
REMARK INTER + INTRA:         -12.102
REMARK INTER:                 -11.586
REMARK INTRA:                  -0.515
REMARK UNBOUND:                 0.514
REMARK  Name = 
REMARK  9 active torsions:
REMARK  status: ('A' for Active; 'I' for Inactive)
REMARK    1  A    between atoms: C_1  and  C_2
REMARK    2  A    between atoms: C_2  and  C_3
REMARK    3  A    between atoms: C_2  and  C_10
REMARK    4  A    between atoms: C_3  and  C_4
REMARK    5  A    between atoms: N_8  and  C_9
REMARK    6  A    between atoms: C_14  and  C_16
REMARK    7  A    between atoms: C_22  and  C_31
REMARK    8  A    between atoms: C_24  and  N_25
REMARK    9  A    between atoms: C_28  and  O_30
REMARK                            x       y       z     vdW  Elec       q    Type
REMARK                         _______ _______ _______ _____ _____    ______ ____
ROOT
ATOM      1  C   UNL     1       2.358   7.117  19.504  0.00  0.00    -0.044 A 
ATOM      2  C   UNL     1       2.852   7.275  18.203  0.00  0.00    -0.058 A 
ATOM      3  C   UNL     1       2.548   8.419  17.467  0.00  0.00    -0.061 A 
ATOM      4  C   UNL     1       1.748   9.418  18.023  0.00  0.00    -0.052 A 
ATOM      5  C   UNL     1       1.243   9.296  19.328  0.00  0.00    +0.004 A 
ATOM      6  C   UNL     1       1.560   8.138  20.054  0.00  0.00    -0.049 A 
ATOM      7  H   UNL     1       3.478   6.509  17.752  0.00  0.00    +0.062 HD
ATOM      8  H   UNL     1       2.933   8.536  16.458  0.00  0.00    +0.062 HD
ATOM      9  H   UNL     1       1.521  10.302  17.431  0.00  0.00    +0.062 HD
ATOM     10  H   UNL     1       1.178   8.012  21.064  0.00  0.00    +0.063 HD
ENDROOT
BRANCH   5  11
ATOM     11  C   UNL     1       0.398  10.358  19.895  0.00  0.00    +0.118 A 
ATOM     12  N   UNL     1       0.798  11.052  20.983  0.00  0.00    -0.171 NA
ATOM     13  N   UNL     1      -0.204  11.919  21.210  0.00  0.00    -0.273 N 
ATOM     14  C   UNL     1      -1.237  11.834  20.328  0.00  0.00    +0.106 A 
ATOM     15  C   UNL     1      -0.884  10.824  19.453  0.00  0.00    +0.118 A 
ATOM     16  N   UNL     1      -1.682  10.444  18.423  0.00  0.00    -0.240 NA
ATOM     17  C   UNL     1      -2.860  11.114  18.310  0.00  0.00    +0.128 A 
ATOM     18  C   UNL     1      -3.250  12.146  19.176  0.00  0.00    -0.010 A 
ATOM     19  C   UNL     1      -2.430  12.546  20.235  0.00  0.00    +0.059 A 
ATOM     20  H   UNL     1      -0.135  12.555  21.994  0.00  0.00    +0.189 HD
ATOM     21  H   UNL     1      -4.205  12.645  19.019  0.00  0.00    +0.066 HD
BRANCH  19  22
ATOM     22  N   UNL     1      -2.729  13.558  21.139  0.00  0.00    -0.326 N 
ATOM     23  C   UNL     1      -2.095  14.865  20.847  0.00  0.00    +0.015 C 
ATOM     24  C   UNL     1      -1.254  15.196  22.071  0.00  0.00    -0.010 C 
ATOM     25  C   UNL     1      -2.016  14.526  23.200  0.00  0.00    +0.072 C 
ATOM     26  C   UNL     1      -2.445  13.206  22.547  0.00  0.00    +0.038 C 
ATOM     27  H   UNL     1      -1.494  14.879  19.931  0.00  0.00    +0.046 HD
ATOM     28  H   UNL     1      -2.894  15.607  20.729  0.00  0.00    +0.046 HD
ATOM     29  H   UNL     1      -1.140  16.275  22.223  0.00  0.00    +0.031 HD
ATOM     30  H   UNL     1      -0.246  14.773  21.978  0.00  0.00    +0.031 HD
ATOM     31  H   UNL     1      -2.887  15.126  23.488  0.00  0.00    +0.061 HD
ATOM     32  H   UNL     1      -3.344  12.805  23.032  0.00  0.00    +0.049 HD
ATOM     33  H   UNL     1      -1.651  12.456  22.655  0.00  0.00    +0.049 HD
BRANCH  25  34
ATOM     34  O   UNL     1      -1.171  14.344  24.323  0.00  0.00    -0.390 OA
ATOM     35  H   UNL     1      -0.379  14.895  24.190  0.00  0.00    +0.210 HD
ENDBRANCH  25  34
ENDBRANCH  19  22
BRANCH  17  36
ATOM     36  C   UNL     1      -3.783  10.742  17.153  0.00  0.00    +0.365 C 
ATOM     37  F   UNL     1      -4.252  11.834  16.478  0.00  0.00    -0.181 F 
ATOM     38  F   UNL     1      -4.897  10.060  17.549  0.00  0.00    -0.181 F 
ATOM     39 CL   UNL     1      -2.885   9.728  15.985  0.00  0.00    -0.041 Cl
ENDBRANCH  17  36
ENDBRANCH   5  11
BRANCH   1  40
ATOM     40  C   UNL     1       2.677   5.849  20.286  0.00  0.00    -0.012 C 
ATOM     41  H   UNL     1       2.999   6.144  21.294  0.00  0.00    +0.035 HD
BRANCH  40  42
ATOM     42  C   UNL     1       1.418   4.988  20.440  0.00  0.00    -0.058 C 
ATOM     43  H   UNL     1       0.704   5.168  19.627  0.00  0.00    +0.024 HD
ATOM     44  H   UNL     1       0.903   5.204  21.384  0.00  0.00    +0.024 HD
ATOM     45  H   UNL     1       1.663   3.922  20.436  0.00  0.00    +0.024 HD
ENDBRANCH  40  42
BRANCH  40  46
ATOM     46  C   UNL     1       3.834   5.078  19.611  0.00  0.00    +0.014 C 
ATOM     47  H   UNL     1       4.351   5.717  18.883  0.00  0.00    +0.035 HD
ATOM     48  H   UNL     1       4.581   4.814  20.368  0.00  0.00    +0.035 HD
BRANCH  46  49
ATOM     49  C   UNL     1       3.376   3.838  18.916  0.00  0.00    +0.134 A 
ATOM     50  N   UNL     1       2.662   3.772  17.809  0.00  0.00    -0.135 NA
ATOM     51  N   UNL     1       2.464   2.449  17.500  0.00  0.00    -0.138 NA
ATOM     52  C   UNL     1       3.067   1.732  18.418  0.00  0.00    +0.120 A 
ATOM     53  N   UNL     1       3.657   2.558  19.323  0.00  0.00    -0.320 N 
ATOM     54  H   UNL     1       3.104   0.653  18.461  0.00  0.00    +0.105 HD
BRANCH  53  55
ATOM     55  C   UNL     1       4.430   2.146  20.462  0.00  0.00    +0.014 C 
ATOM     56  H   UNL     1       4.414   1.056  20.521  0.00  0.00    +0.046 HD
ATOM     57  H   UNL     1       3.995   2.566  21.372  0.00  0.00    +0.046 HD
ATOM     58  H   UNL     1       5.454   2.509  20.337  0.00  0.00    +0.046 HD
ENDBRANCH  53  55
ENDBRANCH  46  49
ENDBRANCH  40  46
ENDBRANCH   1  40
TORSDOF 9
ENDMDL
MODEL 16
REMARK VINA RESULT:    -8.433      2.381      3.519
REMARK INTER + INTRA:         -11.617
REMARK INTER:                 -11.183
REMARK INTRA:                  -0.433
REMARK UNBOUND:                 0.514
REMARK  Name = 
REMARK  9 active torsions:
REMARK  status: ('A' for Active; 'I' for Inactive)
REMARK    1  A    between atoms: C_1  and  C_2
REMARK    2  A    between atoms: C_2  and  C_3
REMARK    3  A    between atoms: C_2  and  C_10
REMARK    4  A    between atoms: C_3  and  C_4
REMARK    5  A    between atoms: N_8  and  C_9
REMARK    6  A    between atoms: C_14  and  C_16
REMARK    7  A    between atoms: C_22  and  C_31
REMARK    8  A    between atoms: C_24  and  N_25
REMARK    9  A    between atoms: C_28  and  O_30
REMARK                            x       y       z     vdW  Elec       q    Type
REMARK                         _______ _______ _______ _____ _____    ______ ____
ROOT
ATOM      1  C   UNL     1       0.847  10.966  18.948  0.00  0.00    -0.044 A 
ATOM      2  C   UNL     1      -0.407  10.770  18.356  0.00  0.00    -0.058 A 
ATOM      3  C   UNL     1      -0.657   9.631  17.592  0.00  0.00    -0.061 A 
ATOM      4  C   UNL     1       0.344   8.675  17.412  0.00  0.00    -0.052 A 
ATOM      5  C   UNL     1       1.610   8.836  17.998  0.00  0.00    +0.004 A 
ATOM      6  C   UNL     1       1.843   9.988  18.765  0.00  0.00    -0.049 A 
ATOM      7  H   UNL     1      -1.200  11.502  18.486  0.00  0.00    +0.062 HD
ATOM      8  H   UNL     1      -1.631   9.485  17.135  0.00  0.00    +0.062 HD
ATOM      9  H   UNL     1       0.129   7.794  16.811  0.00  0.00    +0.062 HD
ATOM     10  H   UNL     1       2.815  10.143  19.226  0.00  0.00    +0.063 HD
ENDROOT
BRANCH   5  11
ATOM     11  C   UNL     1       2.653   7.818  17.794  0.00  0.00    +0.118 A 
ATOM     12  N   UNL     1       3.760   8.098  17.074  0.00  0.00    -0.171 NA
ATOM     13  N   UNL     1       4.471   6.958  17.101  0.00  0.00    -0.273 N 
ATOM     14  C   UNL     1       3.892   5.946  17.804  0.00  0.00    +0.106 A 
ATOM     15  C   UNL     1       2.700   6.466  18.272  0.00  0.00    +0.118 A 
ATOM     16  N   UNL     1       1.834   5.738  19.022  0.00  0.00    -0.240 NA
ATOM     17  C   UNL     1       2.208   4.456  19.278  0.00  0.00    +0.128 A 
ATOM     18  C   UNL     1       3.411   3.895  18.824  0.00  0.00    -0.010 A 
ATOM     19  C   UNL     1       4.309   4.642  18.056  0.00  0.00    +0.059 A 
ATOM     20  H   UNL     1       5.357   6.920  16.614  0.00  0.00    +0.189 HD
ATOM     21  H   UNL     1       3.649   2.863  19.075  0.00  0.00    +0.066 HD
BRANCH  19  22
ATOM     22  N   UNL     1       5.522   4.174  17.566  0.00  0.00    -0.326 N 
ATOM     23  C   UNL     1       6.722   4.719  18.243  0.00  0.00    +0.015 C 
ATOM     24  C   UNL     1       7.530   5.410  17.155  0.00  0.00    -0.010 C 
ATOM     25  C   UNL     1       7.189   4.606  15.913  0.00  0.00    +0.072 C 
ATOM     26  C   UNL     1       5.688   4.354  16.107  0.00  0.00    +0.038 C 
ATOM     27  H   UNL     1       6.500   5.400  19.072  0.00  0.00    +0.046 HD
ATOM     28  H   UNL     1       7.289   3.874  18.652  0.00  0.00    +0.046 HD
ATOM     29  H   UNL     1       8.604   5.417  17.370  0.00  0.00    +0.031 HD
ATOM     30  H   UNL     1       7.215   6.456  17.039  0.00  0.00    +0.031 HD
ATOM     31  H   UNL     1       7.750   3.664  15.897  0.00  0.00    +0.061 HD
ATOM     32  H   UNL     1       5.372   3.452  15.570  0.00  0.00    +0.049 HD
ATOM     33  H   UNL     1       5.110   5.196  15.705  0.00  0.00    +0.049 HD
BRANCH  25  34
ATOM     34  O   UNL     1       7.483   5.355  14.746  0.00  0.00    -0.390 OA
ATOM     35  H   UNL     1       6.763   5.998  14.618  0.00  0.00    +0.210 HD
ENDBRANCH  25  34
ENDBRANCH  19  22
BRANCH  17  36
ATOM     36  C   UNL     1       1.282   3.602  20.138  0.00  0.00    +0.365 C 
ATOM     37  F   UNL     1       0.802   2.508  19.473  0.00  0.00    -0.181 F 
ATOM     38  F   UNL     1       0.174   4.273  20.568  0.00  0.00    -0.181 F 
ATOM     39 CL   UNL     1       2.179   3.015  21.569  0.00  0.00    -0.041 Cl
ENDBRANCH  17  36
ENDBRANCH   5  11
BRANCH   1  40
ATOM     40  C   UNL     1       1.113  12.229  19.758  0.00  0.00    -0.012 C 
ATOM     41  H   UNL     1       2.085  12.114  20.256  0.00  0.00    +0.035 HD
BRANCH  40  42
ATOM     42  C   UNL     1       1.216  13.444  18.829  0.00  0.00    -0.058 C 
ATOM     43  H   UNL     1       1.065  14.383  19.374  0.00  0.00    +0.024 HD
ATOM     44  H   UNL     1       0.463  13.401  18.033  0.00  0.00    +0.024 HD
ATOM     45  H   UNL     1       2.198  13.494  18.349  0.00  0.00    +0.024 HD
ENDBRANCH  40  42
BRANCH  40  46
ATOM     46  C   UNL     1       0.027  12.411  20.842  0.00  0.00    +0.014 C 
ATOM     47  H   UNL     1       0.209  13.326  21.421  0.00  0.00    +0.035 HD
ATOM     48  H   UNL     1      -0.947  12.548  20.357  0.00  0.00    +0.035 HD
BRANCH  46  49
ATOM     49  C   UNL     1      -0.049  11.257  21.786  0.00  0.00    +0.134 A 
ATOM     50  N   UNL     1       0.822  10.273  21.900  0.00  0.00    -0.135 NA
ATOM     51  N   UNL     1       0.388   9.423  22.887  0.00  0.00    -0.138 NA
ATOM     52  C   UNL     1      -0.735   9.907  23.363  0.00  0.00    +0.120 A 
ATOM     53  N   UNL     1      -1.045  11.058  22.708  0.00  0.00    -0.320 N 
ATOM     54  H   UNL     1      -1.329   9.475  24.154  0.00  0.00    +0.105 HD
BRANCH  53  55
ATOM     55  C   UNL     1      -2.189  11.890  22.961  0.00  0.00    +0.014 C 
ATOM     56  H   UNL     1      -2.136  12.765  22.311  0.00  0.00    +0.046 HD
ATOM     57  H   UNL     1      -2.185  12.212  24.005  0.00  0.00    +0.046 HD
ATOM     58  H   UNL     1      -3.093  11.312  22.753  0.00  0.00    +0.046 HD
ENDBRANCH  53  55
ENDBRANCH  46  49
ENDBRANCH  40  46
ENDBRANCH   1  40
TORSDOF 9
ENDMDL
MODEL 17
REMARK VINA RESULT:    -8.403      2.997      4.095
REMARK INTER + INTRA:         -11.573
REMARK INTER:                 -11.121
REMARK INTRA:                  -0.452
REMARK UNBOUND:                 0.514
REMARK  Name = 
REMARK  9 active torsions:
REMARK  status: ('A' for Active; 'I' for Inactive)
REMARK    1  A    between atoms: C_1  and  C_2
REMARK    2  A    between atoms: C_2  and  C_3
REMARK    3  A    between atoms: C_2  and  C_10
REMARK    4  A    between atoms: C_3  and  C_4
REMARK    5  A    between atoms: N_8  and  C_9
REMARK    6  A    between atoms: C_14  and  C_16
REMARK    7  A    between atoms: C_22  and  C_31
REMARK    8  A    between atoms: C_24  and  N_25
REMARK    9  A    between atoms: C_28  and  O_30
REMARK                            x       y       z     vdW  Elec       q    Type
REMARK                         _______ _______ _______ _____ _____    ______ ____
ROOT
ATOM      1  C   UNL     1       0.194  11.207  19.790  0.00  0.00    -0.044 A 
ATOM      2  C   UNL     1       0.933  11.933  18.848  0.00  0.00    -0.058 A 
ATOM      3  C   UNL     1       1.953  11.317  18.125  0.00  0.00    -0.061 A 
ATOM      4  C   UNL     1       2.245   9.969  18.335  0.00  0.00    -0.052 A 
ATOM      5  C   UNL     1       1.519   9.209  19.266  0.00  0.00    +0.004 A 
ATOM      6  C   UNL     1       0.495   9.845  19.985  0.00  0.00    -0.049 A 
ATOM      7  H   UNL     1       0.719  12.984  18.668  0.00  0.00    +0.062 HD
ATOM      8  H   UNL     1       2.524  11.885  17.395  0.00  0.00    +0.062 HD
ATOM      9  H   UNL     1       3.047   9.508  17.762  0.00  0.00    +0.062 HD
ATOM     10  H   UNL     1      -0.081   9.285  20.717  0.00  0.00    +0.063 HD
ENDROOT
BRANCH   5  11
ATOM     11  C   UNL     1       1.844   7.790  19.476  0.00  0.00    +0.118 A 
ATOM     12  N   UNL     1       1.250   7.083  20.461  0.00  0.00    -0.171 NA
ATOM     13  N   UNL     1       1.780   5.853  20.353  0.00  0.00    -0.273 N 
ATOM     14  C   UNL     1       2.688   5.713  19.348  0.00  0.00    +0.106 A 
ATOM     15  C   UNL     1       2.761   6.958  18.751  0.00  0.00    +0.118 A 
ATOM     16  N   UNL     1       3.578   7.211  17.698  0.00  0.00    -0.240 NA
ATOM     17  C   UNL     1       4.332   6.163  17.269  0.00  0.00    +0.128 A 
ATOM     18  C   UNL     1       4.282   4.886  17.847  0.00  0.00    -0.010 A 
ATOM     19  C   UNL     1       3.438   4.618  18.929  0.00  0.00    +0.059 A 
ATOM     20  H   UNL     1       1.488   5.133  21.002  0.00  0.00    +0.189 HD
ATOM     21  H   UNL     1       4.908   4.092  17.446  0.00  0.00    +0.066 HD
BRANCH  19  22
ATOM     22  N   UNL     1       3.318   3.387  19.562  0.00  0.00    -0.326 N 
ATOM     23  C   UNL     1       2.340   2.460  18.947  0.00  0.00    +0.015 C 
ATOM     24  C   UNL     1       1.323   2.153  20.037  0.00  0.00    -0.010 C 
ATOM     25  C   UNL     1       2.143   2.265  21.309  0.00  0.00    +0.072 C 
ATOM     26  C   UNL     1       3.023   3.484  21.009  0.00  0.00    +0.038 C 
ATOM     27  H   UNL     1       1.855   2.850  18.045  0.00  0.00    +0.046 HD
ATOM     28  H   UNL     1       2.875   1.545  18.665  0.00  0.00    +0.046 HD
ATOM     29  H   UNL     1       0.865   1.166  19.917  0.00  0.00    +0.031 HD
ATOM     30  H   UNL     1       0.511   2.891  20.032  0.00  0.00    +0.031 HD
ATOM     31  H   UNL     1       2.752   1.364  21.457  0.00  0.00    +0.061 HD
ATOM     32  H   UNL     1       3.951   3.449  21.593  0.00  0.00    +0.049 HD
ATOM     33  H   UNL     1       2.496   4.407  21.283  0.00  0.00    +0.049 HD
BRANCH  25  34
ATOM     34  O   UNL     1       1.292   2.452  22.428  0.00  0.00    -0.390 OA
ATOM     35  H   UNL     1       0.385   2.567  22.093  0.00  0.00    +0.210 HD
ENDBRANCH  25  34
ENDBRANCH  19  22
BRANCH  17  36
ATOM     36  C   UNL     1       5.250   6.389  16.072  0.00  0.00    +0.365 C 
ATOM     37  F   UNL     1       6.438   6.970  16.418  0.00  0.00    -0.181 F 
ATOM     38  F   UNL     1       4.711   7.212  15.127  0.00  0.00    -0.181 F 
ATOM     39 CL   UNL     1       5.620   4.816  15.307  0.00  0.00    -0.041 Cl
ENDBRANCH  17  36
ENDBRANCH   5  11
BRANCH   1  40
ATOM     40  C   UNL     1      -0.901  11.901  20.592  0.00  0.00    -0.012 C 
ATOM     41  H   UNL     1      -1.574  11.128  20.986  0.00  0.00    +0.035 HD
BRANCH  40  42
ATOM     42  C   UNL     1      -0.295  12.637  21.792  0.00  0.00    -0.058 C 
ATOM     43  H   UNL     1       0.521  12.063  22.247  0.00  0.00    +0.024 HD
ATOM     44  H   UNL     1      -1.047  12.813  22.571  0.00  0.00    +0.024 HD
ATOM     45  H   UNL     1       0.109  13.611  21.499  0.00  0.00    +0.024 HD
ENDBRANCH  40  42
BRANCH  40  46
ATOM     46  C   UNL     1      -1.719  12.843  19.680  0.00  0.00    +0.014 C 
ATOM     47  H   UNL     1      -1.899  13.803  20.180  0.00  0.00    +0.035 HD
ATOM     48  H   UNL     1      -1.135  13.072  18.781  0.00  0.00    +0.035 HD
BRANCH  46  49
ATOM     49  C   UNL     1      -3.035  12.262  19.279  0.00  0.00    +0.134 A 
ATOM     50  N   UNL     1      -4.182  12.392  19.916  0.00  0.00    -0.135 NA
ATOM     51  N   UNL     1      -5.147  11.714  19.212  0.00  0.00    -0.138 NA
ATOM     52  C   UNL     1      -4.574  11.189  18.156  0.00  0.00    +0.120 A 
ATOM     53  N   UNL     1      -3.252  11.510  18.151  0.00  0.00    -0.320 N 
ATOM     54  H   UNL     1      -5.061  10.597  17.396  0.00  0.00    +0.105 HD
BRANCH  53  55
ATOM     55  C   UNL     1      -2.297  11.136  17.145  0.00  0.00    +0.014 C 
ATOM     56  H   UNL     1      -1.798  12.037  16.784  0.00  0.00    +0.046 HD
ATOM     57  H   UNL     1      -2.811  10.647  16.314  0.00  0.00    +0.046 HD
ATOM     58  H   UNL     1      -1.573  10.449  17.591  0.00  0.00    +0.046 HD
ENDBRANCH  53  55
ENDBRANCH  46  49
ENDBRANCH  40  46
ENDBRANCH   1  40
TORSDOF 9
ENDMDL
MODEL 18
REMARK VINA RESULT:    -8.391      5.070      9.808
REMARK INTER + INTRA:         -11.557
REMARK INTER:                 -11.343
REMARK INTRA:                  -0.213
REMARK UNBOUND:                 0.514
REMARK  Name = 
REMARK  9 active torsions:
REMARK  status: ('A' for Active; 'I' for Inactive)
REMARK    1  A    between atoms: C_1  and  C_2
REMARK    2  A    between atoms: C_2  and  C_3
REMARK    3  A    between atoms: C_2  and  C_10
REMARK    4  A    between atoms: C_3  and  C_4
REMARK    5  A    between atoms: N_8  and  C_9
REMARK    6  A    between atoms: C_14  and  C_16
REMARK    7  A    between atoms: C_22  and  C_31
REMARK    8  A    between atoms: C_24  and  N_25
REMARK    9  A    between atoms: C_28  and  O_30
REMARK                            x       y       z     vdW  Elec       q    Type
REMARK                         _______ _______ _______ _____ _____    ______ ____
ROOT
ATOM      1  C   UNL     1       2.716   6.627  19.327  0.00  0.00    -0.044 A 
ATOM      2  C   UNL     1       3.105   6.851  18.001  0.00  0.00    -0.058 A 
ATOM      3  C   UNL     1       2.728   8.019  17.342  0.00  0.00    -0.061 A 
ATOM      4  C   UNL     1       1.956   8.977  18.002  0.00  0.00    -0.052 A 
ATOM      5  C   UNL     1       1.555   8.789  19.334  0.00  0.00    +0.004 A 
ATOM      6  C   UNL     1       1.946   7.607  19.982  0.00  0.00    -0.049 A 
ATOM      7  H   UNL     1       3.708   6.117  17.470  0.00  0.00    +0.062 HD
ATOM      8  H   UNL     1       3.032   8.188  16.313  0.00  0.00    +0.062 HD
ATOM      9  H   UNL     1       1.670   9.882  17.469  0.00  0.00    +0.062 HD
ATOM     10  H   UNL     1       1.645   7.429  21.012  0.00  0.00    +0.063 HD
ENDROOT
BRANCH   5  11
ATOM     11  C   UNL     1       0.740   9.808  20.012  0.00  0.00    +0.118 A 
ATOM     12  N   UNL     1      -0.308   9.453  20.787  0.00  0.00    -0.171 NA
ATOM     13  N   UNL     1      -0.803  10.621  21.230  0.00  0.00    -0.273 N 
ATOM     14  C   UNL     1      -0.134  11.724  20.792  0.00  0.00    +0.106 A 
ATOM     15  C   UNL     1       0.880  11.236  19.991  0.00  0.00    +0.118 A 
ATOM     16  N   UNL     1       1.766  12.052  19.364  0.00  0.00    -0.240 NA
ATOM     17  C   UNL     1       1.587  13.384  19.566  0.00  0.00    +0.128 A 
ATOM     18  C   UNL     1       0.571  13.915  20.375  0.00  0.00    -0.010 A 
ATOM     19  C   UNL     1      -0.340  13.080  21.027  0.00  0.00    +0.059 A 
ATOM     20  H   UNL     1      -1.614  10.613  21.837  0.00  0.00    +0.189 HD
ATOM     21  H   UNL     1       0.494  14.994  20.498  0.00  0.00    +0.066 HD
BRANCH  19  22
ATOM     22  N   UNL     1      -1.373  13.513  21.850  0.00  0.00    -0.326 N 
ATOM     23  C   UNL     1      -1.388  12.913  23.204  0.00  0.00    +0.015 C 
ATOM     24  C   UNL     1      -2.734  12.213  23.329  0.00  0.00    -0.010 C 
ATOM     25  C   UNL     1      -3.638  13.053  22.444  0.00  0.00    +0.072 C 
ATOM     26  C   UNL     1      -2.718  13.355  21.254  0.00  0.00    +0.038 C 
ATOM     27  H   UNL     1      -0.559  12.224  23.400  0.00  0.00    +0.046 HD
ATOM     28  H   UNL     1      -1.321  13.729  23.934  0.00  0.00    +0.046 HD
ATOM     29  H   UNL     1      -3.087  12.164  24.364  0.00  0.00    +0.031 HD
ATOM     30  H   UNL     1      -2.674  11.183  22.955  0.00  0.00    +0.031 HD
ATOM     31  H   UNL     1      -3.935  13.975  22.959  0.00  0.00    +0.061 HD
ATOM     32  H   UNL     1      -3.026  14.279  20.749  0.00  0.00    +0.049 HD
ATOM     33  H   UNL     1      -2.774  12.542  20.519  0.00  0.00    +0.049 HD
BRANCH  25  34
ATOM     34  O   UNL     1      -4.794  12.317  22.083  0.00  0.00    -0.390 OA
ATOM     35  H   UNL     1      -4.621  11.378  22.279  0.00  0.00    +0.210 HD
ENDBRANCH  25  34
ENDBRANCH  19  22
BRANCH  17  36
ATOM     36  C   UNL     1       2.571  14.344  18.904  0.00  0.00    +0.365 C 
ATOM     37  F   UNL     1       1.954  15.267  18.105  0.00  0.00    -0.181 F 
ATOM     38  F   UNL     1       3.474  13.717  18.095  0.00  0.00    -0.181 F 
ATOM     39 CL   UNL     1       3.468  15.235  20.167  0.00  0.00    -0.041 Cl
ENDBRANCH  17  36
ENDBRANCH   5  11
BRANCH   1  40
ATOM     40  C   UNL     1       3.115   5.332  20.025  0.00  0.00    -0.012 C 
ATOM     41  H   UNL     1       3.858   5.577  20.796  0.00  0.00    +0.035 HD
BRANCH  40  42
ATOM     42  C   UNL     1       1.904   4.716  20.735  0.00  0.00    -0.058 C 
ATOM     43  H   UNL     1       1.876   4.989  21.796  0.00  0.00    +0.024 HD
ATOM     44  H   UNL     1       1.925   3.621  20.678  0.00  0.00    +0.024 HD
ATOM     45  H   UNL     1       0.966   5.050  20.282  0.00  0.00    +0.024 HD
ENDBRANCH  40  42
BRANCH  40  46
ATOM     46  C   UNL     1       3.762   4.356  19.017  0.00  0.00    +0.014 C 
ATOM     47  H   UNL     1       3.717   3.326  19.395  0.00  0.00    +0.035 HD
ATOM     48  H   UNL     1       3.184   4.363  18.086  0.00  0.00    +0.035 HD
BRANCH  46  49
ATOM     49  C   UNL     1       5.185   4.692  18.717  0.00  0.00    +0.134 A 
ATOM     50  N   UNL     1       6.070   5.196  19.555  0.00  0.00    -0.135 NA
ATOM     51  N   UNL     1       7.261   5.347  18.888  0.00  0.00    -0.138 NA
ATOM     52  C   UNL     1       7.085   4.924  17.659  0.00  0.00    +0.120 A 
ATOM     53  N   UNL     1       5.802   4.499  17.506  0.00  0.00    -0.320 N 
ATOM     54  H   UNL     1       7.831   4.905  16.879  0.00  0.00    +0.105 HD
BRANCH  53  55
ATOM     55  C   UNL     1       5.234   3.946  16.308  0.00  0.00    +0.014 C 
ATOM     56  H   UNL     1       4.168   3.778  16.471  0.00  0.00    +0.046 HD
ATOM     57  H   UNL     1       5.720   2.996  16.075  0.00  0.00    +0.046 HD
ATOM     58  H   UNL     1       5.389   4.655  15.490  0.00  0.00    +0.046 HD
ENDBRANCH  53  55
ENDBRANCH  46  49
ENDBRANCH  40  46
ENDBRANCH   1  40
TORSDOF 9
ENDMDL
MODEL 19
REMARK VINA RESULT:    -8.391      4.449      9.386
REMARK INTER + INTRA:         -11.556
REMARK INTER:                 -10.866
REMARK INTRA:                  -0.691
REMARK UNBOUND:                 0.514
REMARK  Name = 
REMARK  9 active torsions:
REMARK  status: ('A' for Active; 'I' for Inactive)
REMARK    1  A    between atoms: C_1  and  C_2
REMARK    2  A    between atoms: C_2  and  C_3
REMARK    3  A    between atoms: C_2  and  C_10
REMARK    4  A    between atoms: C_3  and  C_4
REMARK    5  A    between atoms: N_8  and  C_9
REMARK    6  A    between atoms: C_14  and  C_16
REMARK    7  A    between atoms: C_22  and  C_31
REMARK    8  A    between atoms: C_24  and  N_25
REMARK    9  A    between atoms: C_28  and  O_30
REMARK                            x       y       z     vdW  Elec       q    Type
REMARK                         _______ _______ _______ _____ _____    ______ ____
ROOT
ATOM      1  C   UNL     1       2.605   6.725  18.667  0.00  0.00    -0.044 A 
ATOM      2  C   UNL     1       2.394   5.811  19.706  0.00  0.00    -0.058 A 
ATOM      3  C   UNL     1       1.688   6.189  20.847  0.00  0.00    -0.061 A 
ATOM      4  C   UNL     1       1.185   7.486  20.961  0.00  0.00    -0.052 A 
ATOM      5  C   UNL     1       1.370   8.425  19.934  0.00  0.00    +0.004 A 
ATOM      6  C   UNL     1       2.084   8.027  18.793  0.00  0.00    -0.049 A 
ATOM      7  H   UNL     1       2.778   4.795  19.636  0.00  0.00    +0.062 HD
ATOM      8  H   UNL     1       1.528   5.476  21.650  0.00  0.00    +0.062 HD
ATOM      9  H   UNL     1       0.637   7.761  21.860  0.00  0.00    +0.062 HD
ATOM     10  H   UNL     1       2.250   8.734  17.984  0.00  0.00    +0.063 HD
ENDROOT
BRANCH   5  11
ATOM     11  C   UNL     1       0.835   9.788  20.074  0.00  0.00    +0.118 A 
ATOM     12  N   UNL     1       1.336  10.637  20.998  0.00  0.00    -0.171 NA
ATOM     13  N   UNL     1       0.619  11.762  20.837  0.00  0.00    -0.273 N 
ATOM     14  C   UNL     1      -0.323  11.700  19.856  0.00  0.00    +0.106 A 
ATOM     15  C   UNL     1      -0.216  10.425  19.334  0.00  0.00    +0.118 A 
ATOM     16  N   UNL     1      -1.009   9.986  18.323  0.00  0.00    -0.240 NA
ATOM     17  C   UNL     1      -1.926  10.878  17.861  0.00  0.00    +0.128 A 
ATOM     18  C   UNL     1      -2.060  12.180  18.364  0.00  0.00    -0.010 A 
ATOM     19  C   UNL     1      -1.243  12.640  19.401  0.00  0.00    +0.059 A 
ATOM     20  H   UNL     1       0.812  12.557  21.435  0.00  0.00    +0.189 HD
ATOM     21  H   UNL     1      -2.811  12.844  17.939  0.00  0.00    +0.066 HD
BRANCH  19  22
ATOM     22  N   UNL     1      -1.300  13.911  19.959  0.00  0.00    -0.326 N 
ATOM     23  C   UNL     1      -0.096  14.746  19.737  0.00  0.00    +0.015 C 
ATOM     24  C   UNL     1       0.423  15.097  21.124  0.00  0.00    -0.010 C 
ATOM     25  C   UNL     1      -0.841  15.119  21.965  0.00  0.00    +0.072 C 
ATOM     26  C   UNL     1      -1.611  13.917  21.405  0.00  0.00    +0.038 C 
ATOM     27  H   UNL     1       0.679  14.266  19.129  0.00  0.00    +0.046 HD
ATOM     28  H   UNL     1      -0.411  15.657  19.214  0.00  0.00    +0.046 HD
ATOM     29  H   UNL     1       0.958  16.051  21.144  0.00  0.00    +0.031 HD
ATOM     30  H   UNL     1       1.117  14.327  21.487  0.00  0.00    +0.031 HD
ATOM     31  H   UNL     1      -1.395  16.052  21.806  0.00  0.00    +0.061 HD
ATOM     32  H   UNL     1      -2.689  14.035  21.566  0.00  0.00    +0.049 HD
ATOM     33  H   UNL     1      -1.301  12.997  21.919  0.00  0.00    +0.049 HD
BRANCH  25  34
ATOM     34  O   UNL     1      -0.520  14.985  23.339  0.00  0.00    -0.390 OA
ATOM     35  H   UNL     1      -1.231  15.409  23.852  0.00  0.00    +0.210 HD
ENDBRANCH  25  34
ENDBRANCH  19  22
BRANCH  17  36
ATOM     36  C   UNL     1      -2.826  10.442  16.709  0.00  0.00    +0.365 C 
ATOM     37  F   UNL     1      -3.252   9.148  16.830  0.00  0.00    -0.181 F 
ATOM     38  F   UNL     1      -2.212  10.504  15.492  0.00  0.00    -0.181 F 
ATOM     39 CL   UNL     1      -4.276  11.486  16.665  0.00  0.00    -0.041 Cl
ENDBRANCH  17  36
ENDBRANCH   5  11
BRANCH   1  40
ATOM     40  C   UNL     1       3.403   6.304  17.438  0.00  0.00    -0.012 C 
ATOM     41  H   UNL     1       2.712   6.256  16.586  0.00  0.00    +0.035 HD
BRANCH  40  42
ATOM     42  C   UNL     1       4.466   7.359  17.108  0.00  0.00    -0.058 C 
ATOM     43  H   UNL     1       5.003   7.686  18.005  0.00  0.00    +0.024 HD
ATOM     44  H   UNL     1       4.014   8.248  16.653  0.00  0.00    +0.024 HD
ATOM     45  H   UNL     1       5.205   6.969  16.402  0.00  0.00    +0.024 HD
ENDBRANCH  40  42
BRANCH  40  46
ATOM     46  C   UNL     1       4.016   4.902  17.650  0.00  0.00    +0.014 C 
ATOM     47  H   UNL     1       3.496   4.372  18.458  0.00  0.00    +0.035 HD
ATOM     48  H   UNL     1       3.864   4.302  16.745  0.00  0.00    +0.035 HD
BRANCH  46  49
ATOM     49  C   UNL     1       5.474   4.949  17.972  0.00  0.00    +0.134 A 
ATOM     50  N   UNL     1       6.017   5.304  19.120  0.00  0.00    -0.135 NA
ATOM     51  N   UNL     1       7.381   5.201  19.003  0.00  0.00    -0.138 NA
ATOM     52  C   UNL     1       7.646   4.778  17.791  0.00  0.00    +0.120 A 
ATOM     53  N   UNL     1       6.482   4.600  17.109  0.00  0.00    -0.320 N 
ATOM     54  H   UNL     1       8.627   4.589  17.382  0.00  0.00    +0.105 HD
BRANCH  53  55
ATOM     55  C   UNL     1       6.360   4.125  15.758  0.00  0.00    +0.014 C 
ATOM     56  H   UNL     1       5.920   4.916  15.148  0.00  0.00    +0.046 HD
ATOM     57  H   UNL     1       5.713   3.245  15.735  0.00  0.00    +0.046 HD
ATOM     58  H   UNL     1       7.356   3.865  15.389  0.00  0.00    +0.046 HD
ENDBRANCH  53  55
ENDBRANCH  46  49
ENDBRANCH  40  46
ENDBRANCH   1  40
TORSDOF 9
ENDMDL
MODEL 20
REMARK VINA RESULT:    -8.383      4.444      9.399
REMARK INTER + INTRA:         -11.545
REMARK INTER:                 -10.805
REMARK INTRA:                  -0.740
REMARK UNBOUND:                 0.514
REMARK  Name = 
REMARK  9 active torsions:
REMARK  status: ('A' for Active; 'I' for Inactive)
REMARK    1  A    between atoms: C_1  and  C_2
REMARK    2  A    between atoms: C_2  and  C_3
REMARK    3  A    between atoms: C_2  and  C_10
REMARK    4  A    between atoms: C_3  and  C_4
REMARK    5  A    between atoms: N_8  and  C_9
REMARK    6  A    between atoms: C_14  and  C_16
REMARK    7  A    between atoms: C_22  and  C_31
REMARK    8  A    between atoms: C_24  and  N_25
REMARK    9  A    between atoms: C_28  and  O_30
REMARK                            x       y       z     vdW  Elec       q    Type
REMARK                         _______ _______ _______ _____ _____    ______ ____
ROOT
ATOM      1  C   UNL     1       2.711   6.582  18.665  0.00  0.00    -0.044 A 
ATOM      2  C   UNL     1       2.468   5.588  19.621  0.00  0.00    -0.058 A 
ATOM      3  C   UNL     1       1.711   5.870  20.756  0.00  0.00    -0.061 A 
ATOM      4  C   UNL     1       1.187   7.149  20.949  0.00  0.00    -0.052 A 
ATOM      5  C   UNL     1       1.404   8.168  20.008  0.00  0.00    +0.004 A 
ATOM      6  C   UNL     1       2.168   7.866  18.870  0.00  0.00    -0.049 A 
ATOM      7  H   UNL     1       2.866   4.584  19.488  0.00  0.00    +0.062 HD
ATOM      8  H   UNL     1       1.526   5.094  21.495  0.00  0.00    +0.062 HD
ATOM      9  H   UNL     1       0.600   7.349  21.844  0.00  0.00    +0.062 HD
ATOM     10  H   UNL     1       2.359   8.635  18.126  0.00  0.00    +0.063 HD
ENDROOT
BRANCH   5  11
ATOM     11  C   UNL     1       0.847   9.511  20.231  0.00  0.00    +0.118 A 
ATOM     12  N   UNL     1       1.324  10.303  21.215  0.00  0.00    -0.171 NA
ATOM     13  N   UNL     1       0.593  11.426  21.120  0.00  0.00    -0.273 N 
ATOM     14  C   UNL     1      -0.336  11.416  20.124  0.00  0.00    +0.106 A 
ATOM     15  C   UNL     1      -0.204  10.180  19.520  0.00  0.00    +0.118 A 
ATOM     16  N   UNL     1      -0.978   9.798  18.472  0.00  0.00    -0.240 NA
ATOM     17  C   UNL     1      -1.902  10.706  18.058  0.00  0.00    +0.128 A 
ATOM     18  C   UNL     1      -2.062  11.971  18.644  0.00  0.00    -0.010 A 
ATOM     19  C   UNL     1      -1.264  12.372  19.720  0.00  0.00    +0.059 A 
ATOM     20  H   UNL     1       0.766  12.182  21.771  0.00  0.00    +0.189 HD
ATOM     21  H   UNL     1      -2.817  12.651  18.254  0.00  0.00    +0.066 HD
BRANCH  19  22
ATOM     22  N   UNL     1      -1.346  13.602  20.360  0.00  0.00    -0.326 N 
ATOM     23  C   UNL     1      -0.091  14.389  20.366  0.00  0.00    +0.015 C 
ATOM     24  C   UNL     1       0.245  14.616  21.833  0.00  0.00    -0.010 C 
ATOM     25  C   UNL     1      -1.121  14.642  22.496  0.00  0.00    +0.072 C 
ATOM     26  C   UNL     1      -1.854  13.522  21.747  0.00  0.00    +0.038 C 
ATOM     27  H   UNL     1       0.740  13.915  19.833  0.00  0.00    +0.046 HD
ATOM     28  H   UNL     1      -0.294  15.349  19.876  0.00  0.00    +0.046 HD
ATOM     29  H   UNL     1       0.810  15.539  21.997  0.00  0.00    +0.031 HD
ATOM     30  H   UNL     1       0.851  13.789  22.227  0.00  0.00    +0.031 HD
ATOM     31  H   UNL     1      -1.609  15.611  22.335  0.00  0.00    +0.061 HD
ATOM     32  H   UNL     1      -2.938  13.683  21.770  0.00  0.00    +0.049 HD
ATOM     33  H   UNL     1      -1.654  12.555  22.227  0.00  0.00    +0.049 HD
BRANCH  25  34
ATOM     34  O   UNL     1      -0.998  14.397  23.887  0.00  0.00    -0.390 OA
ATOM     35  H   UNL     1      -1.370  15.165  24.356  0.00  0.00    +0.210 HD
ENDBRANCH  25  34
ENDBRANCH  19  22
BRANCH  17  36
ATOM     36  C   UNL     1      -2.781  10.336  16.867  0.00  0.00    +0.365 C 
ATOM     37  F   UNL     1      -3.254   9.055  16.938  0.00  0.00    -0.181 F 
ATOM     38  F   UNL     1      -2.129  10.411  15.671  0.00  0.00    -0.181 F 
ATOM     39 CL   UNL     1      -4.192  11.431  16.812  0.00  0.00    -0.041 Cl
ENDBRANCH  17  36
ENDBRANCH   5  11
BRANCH   1  40
ATOM     40  C   UNL     1       3.563   6.266  17.442  0.00  0.00    -0.012 C 
ATOM     41  H   UNL     1       2.897   6.211  16.570  0.00  0.00    +0.035 HD
BRANCH  40  42
ATOM     42  C   UNL     1       4.564   7.398  17.184  0.00  0.00    -0.058 C 
ATOM     43  H   UNL     1       4.224   8.061  16.380  0.00  0.00    +0.024 HD
ATOM     44  H   UNL     1       5.544   7.003  16.893  0.00  0.00    +0.024 HD
ATOM     45  H   UNL     1       4.710   8.011  18.079  0.00  0.00    +0.024 HD
ENDBRANCH  40  42
BRANCH  40  46
ATOM     46  C   UNL     1       4.259   4.897  17.612  0.00  0.00    +0.014 C 
ATOM     47  H   UNL     1       4.763   4.838  18.585  0.00  0.00    +0.035 HD
ATOM     48  H   UNL     1       3.501   4.105  17.614  0.00  0.00    +0.035 HD
BRANCH  46  49
ATOM     49  C   UNL     1       5.260   4.619  16.540  0.00  0.00    +0.134 A 
ATOM     50  N   UNL     1       5.006   4.370  15.270  0.00  0.00    -0.135 NA
ATOM     51  N   UNL     1       6.201   4.178  14.620  0.00  0.00    -0.138 NA
ATOM     52  C   UNL     1       7.161   4.322  15.501  0.00  0.00    +0.120 A 
ATOM     53  N   UNL     1       6.621   4.604  16.717  0.00  0.00    -0.320 N 
ATOM     54  H   UNL     1       8.220   4.238  15.309  0.00  0.00    +0.105 HD
BRANCH  53  55
ATOM     55  C   UNL     1       7.353   4.850  17.929  0.00  0.00    +0.014 C 
ATOM     56  H   UNL     1       6.962   4.199  18.713  0.00  0.00    +0.046 HD
ATOM     57  H   UNL     1       7.229   5.894  18.227  0.00  0.00    +0.046 HD
ATOM     58  H   UNL     1       8.410   4.638  17.746  0.00  0.00    +0.046 HD
ENDBRANCH  53  55
ENDBRANCH  46  49
ENDBRANCH  40  46
ENDBRANCH   1  40
TORSDOF 9
ENDMDL
MODEL 21
REMARK VINA RESULT:    -8.326      3.435      4.671
REMARK INTER + INTRA:         -11.463
REMARK INTER:                 -11.183
REMARK INTRA:                  -0.281
REMARK UNBOUND:                 0.514
REMARK  Name = 
REMARK  9 active torsions:
REMARK  status: ('A' for Active; 'I' for Inactive)
REMARK    1  A    between atoms: C_1  and  C_2
REMARK    2  A    between atoms: C_2  and  C_3
REMARK    3  A    between atoms: C_2  and  C_10
REMARK    4  A    between atoms: C_3  and  C_4
REMARK    5  A    between atoms: N_8  and  C_9
REMARK    6  A    between atoms: C_14  and  C_16
REMARK    7  A    between atoms: C_22  and  C_31
REMARK    8  A    between atoms: C_24  and  N_25
REMARK    9  A    between atoms: C_28  and  O_30
REMARK                            x       y       z     vdW  Elec       q    Type
REMARK                         _______ _______ _______ _____ _____    ______ ____
ROOT
ATOM      1  C   UNL     1       0.509  11.378  20.229  0.00  0.00    -0.044 A 
ATOM      2  C   UNL     1       0.998  12.029  19.091  0.00  0.00    -0.058 A 
ATOM      3  C   UNL     1       1.743  11.329  18.143  0.00  0.00    -0.061 A 
ATOM      4  C   UNL     1       2.006   9.971  18.323  0.00  0.00    -0.052 A 
ATOM      5  C   UNL     1       1.524   9.284  19.449  0.00  0.00    +0.004 A 
ATOM      6  C   UNL     1       0.775  10.005  20.392  0.00  0.00    -0.049 A 
ATOM      7  H   UNL     1       0.803  13.087  18.932  0.00  0.00    +0.062 HD
ATOM      8  H   UNL     1       2.121  11.840  17.261  0.00  0.00    +0.062 HD
ATOM      9  H   UNL     1       2.591   9.443  17.572  0.00  0.00    +0.062 HD
ATOM     10  H   UNL     1       0.394   9.503  21.278  0.00  0.00    +0.063 HD
ENDROOT
BRANCH   5  11
ATOM     11  C   UNL     1       1.814   7.853  19.622  0.00  0.00    +0.118 A 
ATOM     12  N   UNL     1       1.219   7.140  20.603  0.00  0.00    -0.171 NA
ATOM     13  N   UNL     1       1.714   5.899  20.458  0.00  0.00    -0.273 N 
ATOM     14  C   UNL     1       2.599   5.758  19.433  0.00  0.00    +0.106 A 
ATOM     15  C   UNL     1       2.695   7.013  18.862  0.00  0.00    +0.118 A 
ATOM     16  N   UNL     1       3.500   7.267  17.799  0.00  0.00    -0.240 NA
ATOM     17  C   UNL     1       4.217   6.210  17.335  0.00  0.00    +0.128 A 
ATOM     18  C   UNL     1       4.143   4.922  17.886  0.00  0.00    -0.010 A 
ATOM     19  C   UNL     1       3.312   4.653  18.977  0.00  0.00    +0.059 A 
ATOM     20  H   UNL     1       1.414   5.173  21.097  0.00  0.00    +0.189 HD
ATOM     21  H   UNL     1       4.740   4.120  17.455  0.00  0.00    +0.066 HD
BRANCH  19  22
ATOM     22  N   UNL     1       3.170   3.411  19.586  0.00  0.00    -0.326 N 
ATOM     23  C   UNL     1       2.169   2.518  18.958  0.00  0.00    +0.015 C 
ATOM     24  C   UNL     1       1.153   2.209  20.048  0.00  0.00    -0.010 C 
ATOM     25  C   UNL     1       1.982   2.278  21.317  0.00  0.00    +0.072 C 
ATOM     26  C   UNL     1       2.886   3.485  21.036  0.00  0.00    +0.038 C 
ATOM     27  H   UNL     1       1.688   2.936  18.067  0.00  0.00    +0.046 HD
ATOM     28  H   UNL     1       2.684   1.598  18.654  0.00  0.00    +0.046 HD
ATOM     29  H   UNL     1       0.673   1.234  19.911  0.00  0.00    +0.031 HD
ATOM     30  H   UNL     1       0.356   2.964  20.063  0.00  0.00    +0.031 HD
ATOM     31  H   UNL     1       2.573   1.362  21.443  0.00  0.00    +0.061 HD
ATOM     32  H   UNL     1       3.815   3.419  21.613  0.00  0.00    +0.049 HD
ATOM     33  H   UNL     1       2.378   4.412  21.332  0.00  0.00    +0.049 HD
BRANCH  25  34
ATOM     34  O   UNL     1       1.142   2.460  22.444  0.00  0.00    -0.390 OA
ATOM     35  H   UNL     1       0.436   3.081  22.190  0.00  0.00    +0.210 HD
ENDBRANCH  25  34
ENDBRANCH  19  22
BRANCH  17  36
ATOM     36  C   UNL     1       5.118   6.437  16.125  0.00  0.00    +0.365 C 
ATOM     37  F   UNL     1       6.337   6.956  16.464  0.00  0.00    -0.181 F 
ATOM     38  F   UNL     1       4.596   7.313  15.220  0.00  0.00    -0.181 F 
ATOM     39 CL   UNL     1       5.406   4.877  15.301  0.00  0.00    -0.041 Cl
ENDBRANCH  17  36
ENDBRANCH   5  11
BRANCH   1  40
ATOM     40  C   UNL     1      -0.281  12.163  21.270  0.00  0.00    -0.012 C 
ATOM     41  H   UNL     1      -0.240  11.607  22.217  0.00  0.00    +0.035 HD
BRANCH  40  42
ATOM     42  C   UNL     1       0.371  13.529  21.512  0.00  0.00    -0.058 C 
ATOM     43  H   UNL     1      -0.314  14.351  21.276  0.00  0.00    +0.024 HD
ATOM     44  H   UNL     1       1.266  13.658  20.892  0.00  0.00    +0.024 HD
ATOM     45  H   UNL     1       0.677  13.643  22.557  0.00  0.00    +0.024 HD
ENDBRANCH  40  42
BRANCH  40  46
ATOM     46  C   UNL     1      -1.760  12.288  20.841  0.00  0.00    +0.014 C 
ATOM     47  H   UNL     1      -1.898  13.153  20.180  0.00  0.00    +0.035 HD
ATOM     48  H   UNL     1      -2.039  11.407  20.251  0.00  0.00    +0.035 HD
BRANCH  46  49
ATOM     49  C   UNL     1      -2.690  12.420  22.001  0.00  0.00    +0.134 A 
ATOM     50  N   UNL     1      -2.487  11.984  23.229  0.00  0.00    -0.135 NA
ATOM     51  N   UNL     1      -3.580  12.315  23.992  0.00  0.00    -0.138 NA
ATOM     52  C   UNL     1      -4.425  12.954  23.220  0.00  0.00    +0.120 A 
ATOM     53  N   UNL     1      -3.910  13.049  21.965  0.00  0.00    -0.320 N 
ATOM     54  H   UNL     1      -5.383  13.353  23.518  0.00  0.00    +0.105 HD
BRANCH  53  55
ATOM     55  C   UNL     1      -4.532  13.699  20.844  0.00  0.00    +0.014 C 
ATOM     56  H   UNL     1      -4.163  14.724  20.785  0.00  0.00    +0.046 HD
ATOM     57  H   UNL     1      -5.616  13.710  20.981  0.00  0.00    +0.046 HD
ATOM     58  H   UNL     1      -4.277  13.145  19.936  0.00  0.00    +0.046 HD
ENDBRANCH  53  55
ENDBRANCH  46  49
ENDBRANCH  40  46
ENDBRANCH   1  40
TORSDOF 9
ENDMDL
MODEL 22
REMARK VINA RESULT:    -8.311      2.438      3.496
REMARK INTER + INTRA:         -11.441
REMARK INTER:                 -10.692
REMARK INTRA:                  -0.749
REMARK UNBOUND:                 0.514
REMARK  Name = 
REMARK  9 active torsions:
REMARK  status: ('A' for Active; 'I' for Inactive)
REMARK    1  A    between atoms: C_1  and  C_2
REMARK    2  A    between atoms: C_2  and  C_3
REMARK    3  A    between atoms: C_2  and  C_10
REMARK    4  A    between atoms: C_3  and  C_4
REMARK    5  A    between atoms: N_8  and  C_9
REMARK    6  A    between atoms: C_14  and  C_16
REMARK    7  A    between atoms: C_22  and  C_31
REMARK    8  A    between atoms: C_24  and  N_25
REMARK    9  A    between atoms: C_28  and  O_30
REMARK                            x       y       z     vdW  Elec       q    Type
REMARK                         _______ _______ _______ _____ _____    ______ ____
ROOT
ATOM      1  C   UNL     1       0.587  10.802  19.361  0.00  0.00    -0.044 A 
ATOM      2  C   UNL     1      -0.569  10.695  18.578  0.00  0.00    -0.058 A 
ATOM      3  C   UNL     1      -0.683   9.686  17.623  0.00  0.00    -0.061 A 
ATOM      4  C   UNL     1       0.356   8.773  17.441  0.00  0.00    -0.052 A 
ATOM      5  C   UNL     1       1.526   8.846  18.215  0.00  0.00    +0.004 A 
ATOM      6  C   UNL     1       1.623   9.868  19.172  0.00  0.00    -0.049 A 
ATOM      7  H   UNL     1      -1.391  11.396  18.705  0.00  0.00    +0.062 HD
ATOM      8  H   UNL     1      -1.582   9.608  17.017  0.00  0.00    +0.062 HD
ATOM      9  H   UNL     1       0.248   7.994  16.689  0.00  0.00    +0.062 HD
ATOM     10  H   UNL     1       2.519   9.954  19.782  0.00  0.00    +0.063 HD
ENDROOT
BRANCH   5  11
ATOM     11  C   UNL     1       2.612   7.876  18.006  0.00  0.00    +0.118 A 
ATOM     12  N   UNL     1       3.712   8.212  17.297  0.00  0.00    -0.171 NA
ATOM     13  N   UNL     1       4.469   7.102  17.316  0.00  0.00    -0.273 N 
ATOM     14  C   UNL     1       3.928   6.057  18.002  0.00  0.00    +0.106 A 
ATOM     15  C   UNL     1       2.712   6.521  18.467  0.00  0.00    +0.118 A 
ATOM     16  N   UNL     1       1.873   5.748  19.201  0.00  0.00    -0.240 NA
ATOM     17  C   UNL     1       2.299   4.480  19.444  0.00  0.00    +0.128 A 
ATOM     18  C   UNL     1       3.527   3.975  18.992  0.00  0.00    -0.010 A 
ATOM     19  C   UNL     1       4.398   4.769  18.240  0.00  0.00    +0.059 A 
ATOM     20  H   UNL     1       5.360   7.107  16.835  0.00  0.00    +0.189 HD
ATOM     21  H   UNL     1       3.807   2.951  19.232  0.00  0.00    +0.066 HD
BRANCH  19  22
ATOM     22  N   UNL     1       5.633   4.359  17.753  0.00  0.00    -0.326 N 
ATOM     23  C   UNL     1       6.801   5.038  18.361  0.00  0.00    +0.015 C 
ATOM     24  C   UNL     1       7.533   5.708  17.207  0.00  0.00    -0.010 C 
ATOM     25  C   UNL     1       7.229   4.794  16.034  0.00  0.00    +0.072 C 
ATOM     26  C   UNL     1       5.756   4.446  16.282  0.00  0.00    +0.038 C 
ATOM     27  H   UNL     1       6.545   5.759  19.145  0.00  0.00    +0.046 HD
ATOM     28  H   UNL     1       7.439   4.269  18.813  0.00  0.00    +0.046 HD
ATOM     29  H   UNL     1       8.607   5.810  17.393  0.00  0.00    +0.031 HD
ATOM     30  H   UNL     1       7.137   6.716  17.026  0.00  0.00    +0.031 HD
ATOM     31  H   UNL     1       7.859   3.897  16.069  0.00  0.00    +0.061 HD
ATOM     32  H   UNL     1       5.499   3.486  15.817  0.00  0.00    +0.049 HD
ATOM     33  H   UNL     1       5.107   5.212  15.837  0.00  0.00    +0.049 HD
BRANCH  25  34
ATOM     34  O   UNL     1       7.443   5.477  14.810  0.00  0.00    -0.390 OA
ATOM     35  H   UNL     1       7.743   4.823  14.154  0.00  0.00    +0.210 HD
ENDBRANCH  25  34
ENDBRANCH  19  22
BRANCH  17  36
ATOM     36  C   UNL     1       1.402   3.577  20.286  0.00  0.00    +0.365 C 
ATOM     37  F   UNL     1       1.220   2.342  19.728  0.00  0.00    -0.181 F 
ATOM     38  F   UNL     1       0.146   4.078  20.464  0.00  0.00    -0.181 F 
ATOM     39 CL   UNL     1       2.149   3.338  21.893  0.00  0.00    -0.041 Cl
ENDBRANCH  17  36
ENDBRANCH   5  11
BRANCH   1  40
ATOM     40  C   UNL     1       0.708  11.927  20.382  0.00  0.00    -0.012 C 
ATOM     41  H   UNL     1       0.848  11.472  21.372  0.00  0.00    +0.035 HD
BRANCH  40  42
ATOM     42  C   UNL     1       1.948  12.780  20.090  0.00  0.00    -0.058 C 
ATOM     43  H   UNL     1       2.659  12.250  19.445  0.00  0.00    +0.024 HD
ATOM     44  H   UNL     1       2.475  13.044  21.014  0.00  0.00    +0.024 HD
ATOM     45  H   UNL     1       1.678  13.714  19.588  0.00  0.00    +0.024 HD
ENDBRANCH  40  42
BRANCH  40  46
ATOM     46  C   UNL     1      -0.588  12.769  20.411  0.00  0.00    +0.014 C 
ATOM     47  H   UNL     1      -0.595  13.494  19.588  0.00  0.00    +0.035 HD
ATOM     48  H   UNL     1      -1.449  12.110  20.244  0.00  0.00    +0.035 HD
BRANCH  46  49
ATOM     49  C   UNL     1      -0.772  13.505  21.697  0.00  0.00    +0.134 A 
ATOM     50  N   UNL     1      -0.493  14.773  21.926  0.00  0.00    -0.135 NA
ATOM     51  N   UNL     1      -0.817  15.058  23.230  0.00  0.00    -0.138 NA
ATOM     52  C   UNL     1      -1.295  13.963  23.770  0.00  0.00    +0.120 A 
ATOM     53  N   UNL     1      -1.293  12.965  22.846  0.00  0.00    -0.320 N 
ATOM     54  H   UNL     1      -1.647  13.854  24.785  0.00  0.00    +0.105 HD
BRANCH  53  55
ATOM     55  C   UNL     1      -1.761  11.622  23.054  0.00  0.00    +0.014 C 
ATOM     56  H   UNL     1      -2.623  11.448  22.406  0.00  0.00    +0.046 HD
ATOM     57  H   UNL     1      -2.059  11.494  24.097  0.00  0.00    +0.046 HD
ATOM     58  H   UNL     1      -0.952  10.929  22.810  0.00  0.00    +0.046 HD
ENDBRANCH  53  55
ENDBRANCH  46  49
ENDBRANCH  40  46
ENDBRANCH   1  40
TORSDOF 9
ENDMDL
MODEL 23
REMARK VINA RESULT:    -8.188      3.560      5.040
REMARK INTER + INTRA:         -11.265
REMARK INTER:                 -11.210
REMARK INTRA:                  -0.055
REMARK UNBOUND:                 0.514
REMARK  Name = 
REMARK  9 active torsions:
REMARK  status: ('A' for Active; 'I' for Inactive)
REMARK    1  A    between atoms: C_1  and  C_2
REMARK    2  A    between atoms: C_2  and  C_3
REMARK    3  A    between atoms: C_2  and  C_10
REMARK    4  A    between atoms: C_3  and  C_4
REMARK    5  A    between atoms: N_8  and  C_9
REMARK    6  A    between atoms: C_14  and  C_16
REMARK    7  A    between atoms: C_22  and  C_31
REMARK    8  A    between atoms: C_24  and  N_25
REMARK    9  A    between atoms: C_28  and  O_30
REMARK                            x       y       z     vdW  Elec       q    Type
REMARK                         _______ _______ _______ _____ _____    ______ ____
ROOT
ATOM      1  C   UNL     1       0.276  11.439  19.561  0.00  0.00    -0.044 A 
ATOM      2  C   UNL     1       1.028  12.095  18.579  0.00  0.00    -0.058 A 
ATOM      3  C   UNL     1       2.054  11.428  17.912  0.00  0.00    -0.061 A 
ATOM      4  C   UNL     1       2.339  10.097  18.218  0.00  0.00    -0.052 A 
ATOM      5  C   UNL     1       1.600   9.405  19.191  0.00  0.00    +0.004 A 
ATOM      6  C   UNL     1       0.570  10.093  19.853  0.00  0.00    -0.049 A 
ATOM      7  H   UNL     1       0.821  13.132  18.325  0.00  0.00    +0.062 HD
ATOM      8  H   UNL     1       2.635  11.943  17.151  0.00  0.00    +0.062 HD
ATOM      9  H   UNL     1       3.145   9.595  17.687  0.00  0.00    +0.062 HD
ATOM     10  H   UNL     1      -0.016   9.586  20.616  0.00  0.00    +0.063 HD
ENDROOT
BRANCH   5  11
ATOM     11  C   UNL     1       1.917   8.003  19.502  0.00  0.00    +0.118 A 
ATOM     12  N   UNL     1       1.357   7.387  20.565  0.00  0.00    -0.171 NA
ATOM     13  N   UNL     1       1.868   6.144  20.536  0.00  0.00    -0.273 N 
ATOM     14  C   UNL     1       2.730   5.911  19.509  0.00  0.00    +0.106 A 
ATOM     15  C   UNL     1       2.793   7.102  18.810  0.00  0.00    +0.118 A 
ATOM     16  N   UNL     1       3.567   7.257  17.707  0.00  0.00    -0.240 NA
ATOM     17  C   UNL     1       4.290   6.167  17.334  0.00  0.00    +0.128 A 
ATOM     18  C   UNL     1       4.250   4.941  18.016  0.00  0.00    -0.010 A 
ATOM     19  C   UNL     1       3.449   4.774  19.149  0.00  0.00    +0.059 A 
ATOM     20  H   UNL     1       1.595   5.484  21.253  0.00  0.00    +0.189 HD
ATOM     21  H   UNL     1       4.849   4.108  17.654  0.00  0.00    +0.066 HD
BRANCH  19  22
ATOM     22  N   UNL     1       3.342   3.600  19.885  0.00  0.00    -0.326 N 
ATOM     23  C   UNL     1       2.658   2.486  19.189  0.00  0.00    +0.015 C 
ATOM     24  C   UNL     1       1.464   2.127  20.061  0.00  0.00    -0.010 C 
ATOM     25  C   UNL     1       1.946   2.474  21.458  0.00  0.00    +0.072 C 
ATOM     26  C   UNL     1       2.710   3.779  21.211  0.00  0.00    +0.038 C 
ATOM     27  H   UNL     1       2.350   2.717  18.163  0.00  0.00    +0.046 HD
ATOM     28  H   UNL     1       3.355   1.641  19.142  0.00  0.00    +0.046 HD
ATOM     29  H   UNL     1       1.174   1.076  19.964  0.00  0.00    +0.031 HD
ATOM     30  H   UNL     1       0.588   2.732  19.791  0.00  0.00    +0.031 HD
ATOM     31  H   UNL     1       2.612   1.691  21.842  0.00  0.00    +0.061 HD
ATOM     32  H   UNL     1       3.474   3.937  21.982  0.00  0.00    +0.049 HD
ATOM     33  H   UNL     1       2.021   4.633  21.251  0.00  0.00    +0.049 HD
BRANCH  25  34
ATOM     34  O   UNL     1       0.842   2.630  22.334  0.00  0.00    -0.390 OA
ATOM     35  H   UNL     1       0.049   2.775  21.788  0.00  0.00    +0.210 HD
ENDBRANCH  25  34
ENDBRANCH  19  22
BRANCH  17  36
ATOM     36  C   UNL     1       5.158   6.281  16.085  0.00  0.00    +0.365 C 
ATOM     37  F   UNL     1       6.432   6.694  16.362  0.00  0.00    -0.181 F 
ATOM     38  F   UNL     1       4.681   7.180  15.177  0.00  0.00    -0.181 F 
ATOM     39 CL   UNL     1       5.269   4.682  15.294  0.00  0.00    -0.041 Cl
ENDBRANCH  17  36
ENDBRANCH   5  11
BRANCH   1  40
ATOM     40  C   UNL     1      -0.824  12.190  20.301  0.00  0.00    -0.012 C 
ATOM     41  H   UNL     1      -0.642  13.266  20.176  0.00  0.00    +0.035 HD
BRANCH  40  42
ATOM     42  C   UNL     1      -2.190  11.881  19.677  0.00  0.00    -0.058 C 
ATOM     43  H   UNL     1      -3.011  12.129  20.361  0.00  0.00    +0.024 HD
ATOM     44  H   UNL     1      -2.281  10.818  19.426  0.00  0.00    +0.024 HD
ATOM     45  H   UNL     1      -2.344  12.451  18.755  0.00  0.00    +0.024 HD
ENDBRANCH  40  42
BRANCH  40  46
ATOM     46  C   UNL     1      -0.781  11.859  21.809  0.00  0.00    +0.014 C 
ATOM     47  H   UNL     1      -1.492  11.059  22.049  0.00  0.00    +0.035 HD
ATOM     48  H   UNL     1       0.212  11.470  22.064  0.00  0.00    +0.035 HD
BRANCH  46  49
ATOM     49  C   UNL     1      -1.083  13.041  22.671  0.00  0.00    +0.134 A 
ATOM     50  N   UNL     1      -0.361  14.138  22.786  0.00  0.00    -0.135 NA
ATOM     51  N   UNL     1      -0.991  14.980  23.670  0.00  0.00    -0.138 NA
ATOM     52  C   UNL     1      -2.089  14.385  24.071  0.00  0.00    +0.120 A 
ATOM     53  N   UNL     1      -2.192  13.171  23.468  0.00  0.00    -0.320 N 
ATOM     54  H   UNL     1      -2.811  14.785  24.767  0.00  0.00    +0.105 HD
BRANCH  53  55
ATOM     55  C   UNL     1      -3.269  12.233  23.638  0.00  0.00    +0.014 C 
ATOM     56  H   UNL     1      -3.352  11.628  22.734  0.00  0.00    +0.046 HD
ATOM     57  H   UNL     1      -4.204  12.774  23.801  0.00  0.00    +0.046 HD
ATOM     58  H   UNL     1      -3.047  11.602  24.503  0.00  0.00    +0.046 HD
ENDBRANCH  53  55
ENDBRANCH  46  49
ENDBRANCH  40  46
ENDBRANCH   1  40
TORSDOF 9
ENDMDL
MODEL 24
REMARK VINA RESULT:    -8.116      3.351      4.569
REMARK INTER + INTRA:         -11.161
REMARK INTER:                 -10.304
REMARK INTRA:                  -0.857
REMARK UNBOUND:                 0.514
REMARK  Name = 
REMARK  9 active torsions:
REMARK  status: ('A' for Active; 'I' for Inactive)
REMARK    1  A    between atoms: C_1  and  C_2
REMARK    2  A    between atoms: C_2  and  C_3
REMARK    3  A    between atoms: C_2  and  C_10
REMARK    4  A    between atoms: C_3  and  C_4
REMARK    5  A    between atoms: N_8  and  C_9
REMARK    6  A    between atoms: C_14  and  C_16
REMARK    7  A    between atoms: C_22  and  C_31
REMARK    8  A    between atoms: C_24  and  N_25
REMARK    9  A    between atoms: C_28  and  O_30
REMARK                            x       y       z     vdW  Elec       q    Type
REMARK                         _______ _______ _______ _____ _____    ______ ____
ROOT
ATOM      1  C   UNL     1       0.452  12.199  19.555  0.00  0.00    -0.044 A 
ATOM      2  C   UNL     1       1.292  12.792  18.604  0.00  0.00    -0.058 A 
ATOM      3  C   UNL     1       2.255  12.033  17.941  0.00  0.00    -0.061 A 
ATOM      4  C   UNL     1       2.387  10.672  18.221  0.00  0.00    -0.052 A 
ATOM      5  C   UNL     1       1.556  10.043  19.162  0.00  0.00    +0.004 A 
ATOM      6  C   UNL     1       0.592  10.823  19.819  0.00  0.00    -0.049 A 
ATOM      7  H   UNL     1       1.204  13.851  18.371  0.00  0.00    +0.062 HD
ATOM      8  H   UNL     1       2.904  12.498  17.205  0.00  0.00    +0.062 HD
ATOM      9  H   UNL     1       3.146  10.097  17.694  0.00  0.00    +0.062 HD
ATOM     10  H   UNL     1      -0.062  10.367  20.558  0.00  0.00    +0.063 HD
ENDROOT
BRANCH   5  11
ATOM     11  C   UNL     1       1.714   8.609  19.446  0.00  0.00    +0.118 A 
ATOM     12  N   UNL     1       1.021   8.021  20.445  0.00  0.00    -0.171 NA
ATOM     13  N   UNL     1       1.411   6.735  20.407  0.00  0.00    -0.273 N 
ATOM     14  C   UNL     1       2.319   6.446  19.435  0.00  0.00    +0.106 A 
ATOM     15  C   UNL     1       2.546   7.645  18.785  0.00  0.00    +0.118 A 
ATOM     16  N   UNL     1       3.410   7.753  17.744  0.00  0.00    -0.240 NA
ATOM     17  C   UNL     1       4.050   6.608  17.385  0.00  0.00    +0.128 A 
ATOM     18  C   UNL     1       3.842   5.374  18.019  0.00  0.00    -0.010 A 
ATOM     19  C   UNL     1       2.949   5.255  19.087  0.00  0.00    +0.059 A 
ATOM     20  H   UNL     1       1.024   6.085  21.080  0.00  0.00    +0.189 HD
ATOM     21  H   UNL     1       4.383   4.496  17.671  0.00  0.00    +0.066 HD
BRANCH  19  22
ATOM     22  N   UNL     1       2.676   4.077  19.772  0.00  0.00    -0.326 N 
ATOM     23  C   UNL     1       3.677   3.001  19.588  0.00  0.00    +0.015 C 
ATOM     24  C   UNL     1       2.912   1.824  18.999  0.00  0.00    -0.010 C 
ATOM     25  C   UNL     1       1.519   1.999  19.577  0.00  0.00    +0.072 C 
ATOM     26  C   UNL     1       1.334   3.519  19.494  0.00  0.00    +0.038 C 
ATOM     27  H   UNL     1       4.529   3.281  18.959  0.00  0.00    +0.046 HD
ATOM     28  H   UNL     1       4.070   2.735  20.577  0.00  0.00    +0.046 HD
ATOM     29  H   UNL     1       3.358   0.860  19.261  0.00  0.00    +0.031 HD
ATOM     30  H   UNL     1       2.888   1.884  17.903  0.00  0.00    +0.031 HD
ATOM     31  H   UNL     1       1.486   1.653  20.617  0.00  0.00    +0.061 HD
ATOM     32  H   UNL     1       0.611   3.866  20.242  0.00  0.00    +0.049 HD
ATOM     33  H   UNL     1       0.946   3.798  18.506  0.00  0.00    +0.049 HD
BRANCH  25  34
ATOM     34  O   UNL     1       0.573   1.278  18.806  0.00  0.00    -0.390 OA
ATOM     35  H   UNL     1       0.406   0.432  19.258  0.00  0.00    +0.210 HD
ENDBRANCH  25  34
ENDBRANCH  19  22
BRANCH  17  36
ATOM     36  C   UNL     1       5.014   6.671  16.204  0.00  0.00    +0.365 C 
ATOM     37  F   UNL     1       6.201   7.272  16.522  0.00  0.00    -0.181 F 
ATOM     38  F   UNL     1       4.526   7.381  15.146  0.00  0.00    -0.181 F 
ATOM     39 CL   UNL     1       5.380   5.011  15.652  0.00  0.00    -0.041 Cl
ENDBRANCH  17  36
ENDBRANCH   5  11
BRANCH   1  40
ATOM     40  C   UNL     1      -0.577  13.049  20.290  0.00  0.00    -0.012 C 
ATOM     41  H   UNL     1      -0.239  13.168  21.329  0.00  0.00    +0.035 HD
BRANCH  40  42
ATOM     42  C   UNL     1      -0.651  14.450  19.670  0.00  0.00    -0.058 C 
ATOM     43  H   UNL     1      -1.680  14.720  19.406  0.00  0.00    +0.024 HD
ATOM     44  H   UNL     1      -0.049  14.511  18.756  0.00  0.00    +0.024 HD
ATOM     45  H   UNL     1      -0.276  15.210  20.362  0.00  0.00    +0.024 HD
ENDBRANCH  40  42
BRANCH  40  46
ATOM     46  C   UNL     1      -1.950  12.341  20.302  0.00  0.00    +0.014 C 
ATOM     47  H   UNL     1      -2.572  12.692  19.469  0.00  0.00    +0.035 HD
ATOM     48  H   UNL     1      -1.802  11.266  20.139  0.00  0.00    +0.035 HD
BRANCH  46  49
ATOM     49  C   UNL     1      -2.698  12.548  21.577  0.00  0.00    +0.134 A 
ATOM     50  N   UNL     1      -3.781  13.283  21.745  0.00  0.00    -0.135 NA
ATOM     51  N   UNL     1      -4.159  13.201  23.063  0.00  0.00    -0.138 NA
ATOM     52  C   UNL     1      -3.307  12.412  23.673  0.00  0.00    +0.120 A 
ATOM     53  N   UNL     1      -2.377  11.974  22.782  0.00  0.00    -0.320 N 
ATOM     54  H   UNL     1      -3.328  12.138  24.717  0.00  0.00    +0.105 HD
BRANCH  53  55
ATOM     55  C   UNL     1      -1.292  11.076  23.067  0.00  0.00    +0.014 C 
ATOM     56  H   UNL     1      -0.376  11.659  23.181  0.00  0.00    +0.046 HD
ATOM     57  H   UNL     1      -1.173  10.370  22.242  0.00  0.00    +0.046 HD
ATOM     58  H   UNL     1      -1.521  10.536  23.990  0.00  0.00    +0.046 HD
ENDBRANCH  53  55
ENDBRANCH  46  49
ENDBRANCH  40  46
ENDBRANCH   1  40
TORSDOF 9
ENDMDL
MODEL 25
REMARK VINA RESULT:    -8.071      5.244      9.770
REMARK INTER + INTRA:         -11.097
REMARK INTER:                 -10.726
REMARK INTRA:                  -0.371
REMARK UNBOUND:                 0.514
REMARK  Name = 
REMARK  9 active torsions:
REMARK  status: ('A' for Active; 'I' for Inactive)
REMARK    1  A    between atoms: C_1  and  C_2
REMARK    2  A    between atoms: C_2  and  C_3
REMARK    3  A    between atoms: C_2  and  C_10
REMARK    4  A    between atoms: C_3  and  C_4
REMARK    5  A    between atoms: N_8  and  C_9
REMARK    6  A    between atoms: C_14  and  C_16
REMARK    7  A    between atoms: C_22  and  C_31
REMARK    8  A    between atoms: C_24  and  N_25
REMARK    9  A    between atoms: C_28  and  O_30
REMARK                            x       y       z     vdW  Elec       q    Type
REMARK                         _______ _______ _______ _____ _____    ______ ____
ROOT
ATOM      1  C   UNL     1       2.589   6.746  19.602  0.00  0.00    -0.044 A 
ATOM      2  C   UNL     1       3.044   6.917  18.289  0.00  0.00    -0.058 A 
ATOM      3  C   UNL     1       2.694   8.055  17.563  0.00  0.00    -0.061 A 
ATOM      4  C   UNL     1       1.885   9.033  18.143  0.00  0.00    -0.052 A 
ATOM      5  C   UNL     1       1.418   8.897  19.460  0.00  0.00    +0.004 A 
ATOM      6  C   UNL     1       1.781   7.746  20.176  0.00  0.00    -0.049 A 
ATOM      7  H   UNL     1       3.677   6.167  17.820  0.00  0.00    +0.062 HD
ATOM      8  H   UNL     1       3.050   8.182  16.545  0.00  0.00    +0.062 HD
ATOM      9  H   UNL     1       1.621   9.913  17.559  0.00  0.00    +0.062 HD
ATOM     10  H   UNL     1       1.430   7.609  21.195  0.00  0.00    +0.063 HD
ENDROOT
BRANCH   5  11
ATOM     11  C   UNL     1       0.563   9.938  20.052  0.00  0.00    +0.118 A 
ATOM     12  N   UNL     1      -0.523   9.607  20.783  0.00  0.00    -0.171 NA
ATOM     13  N   UNL     1      -1.046  10.789  21.153  0.00  0.00    -0.273 N 
ATOM     14  C   UNL     1      -0.359  11.877  20.708  0.00  0.00    +0.106 A 
ATOM     15  C   UNL     1       0.699  11.364  19.981  0.00  0.00    +0.118 A 
ATOM     16  N   UNL     1       1.613  12.160  19.370  0.00  0.00    -0.240 NA
ATOM     17  C   UNL     1       1.418  13.499  19.509  0.00  0.00    +0.128 A 
ATOM     18  C   UNL     1       0.359  14.055  20.241  0.00  0.00    -0.010 A 
ATOM     19  C   UNL     1      -0.582  13.240  20.877  0.00  0.00    +0.059 A 
ATOM     20  H   UNL     1      -1.887  10.799  21.716  0.00  0.00    +0.189 HD
ATOM     21  H   UNL     1       0.270  15.137  20.317  0.00  0.00    +0.066 HD
BRANCH  19  22
ATOM     22  N   UNL     1      -1.660  13.699  21.625  0.00  0.00    -0.326 N 
ATOM     23  C   UNL     1      -1.647  13.297  23.051  0.00  0.00    +0.015 C 
ATOM     24  C   UNL     1      -2.935  12.515  23.269  0.00  0.00    -0.010 C 
ATOM     25  C   UNL     1      -3.889  13.144  22.270  0.00  0.00    +0.072 C 
ATOM     26  C   UNL     1      -2.979  13.350  21.053  0.00  0.00    +0.038 C 
ATOM     27  H   UNL     1      -0.769  12.713  23.346  0.00  0.00    +0.046 HD
ATOM     28  H   UNL     1      -1.657  14.211  23.658  0.00  0.00    +0.046 HD
ATOM     29  H   UNL     1      -3.298  12.583  24.299  0.00  0.00    +0.031 HD
ATOM     30  H   UNL     1      -2.786  11.450  23.046  0.00  0.00    +0.031 HD
ATOM     31  H   UNL     1      -4.267  14.102  22.648  0.00  0.00    +0.061 HD
ATOM     32  H   UNL     1      -3.351  14.164  20.420  0.00  0.00    +0.049 HD
ATOM     33  H   UNL     1      -2.957  12.439  20.440  0.00  0.00    +0.049 HD
BRANCH  25  34
ATOM     34  O   UNL     1      -4.977  12.272  22.013  0.00  0.00    -0.390 OA
ATOM     35  H   UNL     1      -5.220  12.371  21.075  0.00  0.00    +0.210 HD
ENDBRANCH  25  34
ENDBRANCH  19  22
BRANCH  17  36
ATOM     36  C   UNL     1       2.432  14.437  18.862  0.00  0.00    +0.365 C 
ATOM     37  F   UNL     1       3.038  15.266  19.765  0.00  0.00    -0.181 F 
ATOM     38  F   UNL     1       1.882  15.265  17.928  0.00  0.00    -0.181 F 
ATOM     39 CL   UNL     1       3.713  13.469  18.075  0.00  0.00    -0.041 Cl
ENDBRANCH  17  36
ENDBRANCH   5  11
BRANCH   1  40
ATOM     40  C   UNL     1       2.959   5.484  20.373  0.00  0.00    -0.012 C 
ATOM     41  H   UNL     1       3.347   5.788  21.354  0.00  0.00    +0.035 HD
BRANCH  40  42
ATOM     42  C   UNL     1       1.712   4.626  20.618  0.00  0.00    -0.058 C 
ATOM     43  H   UNL     1       1.897   3.570  20.388  0.00  0.00    +0.024 HD
ATOM     44  H   UNL     1       0.874   4.957  19.994  0.00  0.00    +0.024 HD
ATOM     45  H   UNL     1       1.388   4.686  21.662  0.00  0.00    +0.024 HD
ENDBRANCH  40  42
BRANCH  40  46
ATOM     46  C   UNL     1       4.068   4.706  19.630  0.00  0.00    +0.014 C 
ATOM     47  H   UNL     1       4.559   5.348  18.887  0.00  0.00    +0.035 HD
ATOM     48  H   UNL     1       4.848   4.418  20.345  0.00  0.00    +0.035 HD
BRANCH  46  49
ATOM     49  C   UNL     1       3.556   3.485  18.940  0.00  0.00    +0.134 A 
ATOM     50  N   UNL     1       2.750   3.448  17.897  0.00  0.00    -0.135 NA
ATOM     51  N   UNL     1       2.530   2.133  17.566  0.00  0.00    -0.138 NA
ATOM     52  C   UNL     1       3.212   1.392  18.406  0.00  0.00    +0.120 A 
ATOM     53  N   UNL     1       3.875   2.194  19.282  0.00  0.00    -0.320 N 
ATOM     54  H   UNL     1       3.255   0.313  18.414  0.00  0.00    +0.105 HD
BRANCH  53  55
ATOM     55  C   UNL     1       4.745   1.753  20.338  0.00  0.00    +0.014 C 
ATOM     56  H   UNL     1       5.545   1.152  19.904  0.00  0.00    +0.046 HD
ATOM     57  H   UNL     1       4.179   1.148  21.050  0.00  0.00    +0.046 HD
ATOM     58  H   UNL     1       5.155   2.633  20.841  0.00  0.00    +0.046 HD
ENDBRANCH  53  55
ENDBRANCH  46  49
ENDBRANCH  40  46
ENDBRANCH   1  40
TORSDOF 9
ENDMDL
MODEL 26
REMARK VINA RESULT:    -8.058      4.515      9.137
REMARK INTER + INTRA:         -11.078
REMARK INTER:                 -10.555
REMARK INTRA:                  -0.523
REMARK UNBOUND:                 0.514
REMARK  Name = 
REMARK  9 active torsions:
REMARK  status: ('A' for Active; 'I' for Inactive)
REMARK    1  A    between atoms: C_1  and  C_2
REMARK    2  A    between atoms: C_2  and  C_3
REMARK    3  A    between atoms: C_2  and  C_10
REMARK    4  A    between atoms: C_3  and  C_4
REMARK    5  A    between atoms: N_8  and  C_9
REMARK    6  A    between atoms: C_14  and  C_16
REMARK    7  A    between atoms: C_22  and  C_31
REMARK    8  A    between atoms: C_24  and  N_25
REMARK    9  A    between atoms: C_28  and  O_30
REMARK                            x       y       z     vdW  Elec       q    Type
REMARK                         _______ _______ _______ _____ _____    ______ ____
ROOT
ATOM      1  C   UNL     1       2.605   6.671  18.919  0.00  0.00    -0.044 A 
ATOM      2  C   UNL     1       2.306   5.789  19.965  0.00  0.00    -0.058 A 
ATOM      3  C   UNL     1       1.537   6.212  21.047  0.00  0.00    -0.061 A 
ATOM      4  C   UNL     1       1.059   7.523  21.097  0.00  0.00    -0.052 A 
ATOM      5  C   UNL     1       1.334   8.431  20.062  0.00  0.00    +0.004 A 
ATOM      6  C   UNL     1       2.109   7.987  18.979  0.00  0.00    -0.049 A 
ATOM      7  H   UNL     1       2.667   4.763  19.944  0.00  0.00    +0.062 HD
ATOM      8  H   UNL     1       1.308   5.524  21.856  0.00  0.00    +0.062 HD
ATOM      9  H   UNL     1       0.463   7.834  21.952  0.00  0.00    +0.062 HD
ATOM     10  H   UNL     1       2.343   8.669  18.166  0.00  0.00    +0.063 HD
ENDROOT
BRANCH   5  11
ATOM     11  C   UNL     1       0.824   9.809  20.134  0.00  0.00    +0.118 A 
ATOM     12  N   UNL     1       1.342  10.693  21.014  0.00  0.00    -0.171 NA
ATOM     13  N   UNL     1       0.646  11.822  20.798  0.00  0.00    -0.273 N 
ATOM     14  C   UNL     1      -0.298  11.729  19.821  0.00  0.00    +0.106 A 
ATOM     15  C   UNL     1      -0.216  10.428  19.363  0.00  0.00    +0.118 A 
ATOM     16  N   UNL     1      -1.018   9.954  18.376  0.00  0.00    -0.240 NA
ATOM     17  C   UNL     1      -1.918  10.839  17.870  0.00  0.00    +0.128 A 
ATOM     18  C   UNL     1      -2.028  12.167  18.308  0.00  0.00    -0.010 A 
ATOM     19  C   UNL     1      -1.200  12.662  19.320  0.00  0.00    +0.059 A 
ATOM     20  H   UNL     1       0.855  12.642  21.355  0.00  0.00    +0.189 HD
ATOM     21  H   UNL     1      -2.766  12.823  17.850  0.00  0.00    +0.066 HD
BRANCH  19  22
ATOM     22  N   UNL     1      -1.233  13.961  19.814  0.00  0.00    -0.326 N 
ATOM     23  C   UNL     1      -0.036  14.777  19.506  0.00  0.00    +0.015 C 
ATOM     24  C   UNL     1       0.535  15.195  20.854  0.00  0.00    -0.010 C 
ATOM     25  C   UNL     1      -0.697  15.267  21.738  0.00  0.00    +0.072 C 
ATOM     26  C   UNL     1      -1.491  14.041  21.269  0.00  0.00    +0.038 C 
ATOM     27  H   UNL     1       0.715  14.263  18.895  0.00  0.00    +0.046 HD
ATOM     28  H   UNL     1      -0.367  15.662  18.948  0.00  0.00    +0.046 HD
ATOM     29  H   UNL     1       1.073  16.147  20.804  0.00  0.00    +0.031 HD
ATOM     30  H   UNL     1       1.240  14.442  21.230  0.00  0.00    +0.031 HD
ATOM     31  H   UNL     1      -1.253  16.194  21.552  0.00  0.00    +0.061 HD
ATOM     32  H   UNL     1      -2.562  14.173  21.462  0.00  0.00    +0.049 HD
ATOM     33  H   UNL     1      -1.164  13.148  21.817  0.00  0.00    +0.049 HD
BRANCH  25  34
ATOM     34  O   UNL     1      -0.325  15.202  23.104  0.00  0.00    -0.390 OA
ATOM     35  H   UNL     1      -0.730  14.401  23.483  0.00  0.00    +0.210 HD
ENDBRANCH  25  34
ENDBRANCH  19  22
BRANCH  17  36
ATOM     36  C   UNL     1      -2.827  10.363  16.741  0.00  0.00    +0.365 C 
ATOM     37  F   UNL     1      -3.304   9.097  16.943  0.00  0.00    -0.181 F 
ATOM     38  F   UNL     1      -2.205  10.322  15.528  0.00  0.00    -0.181 F 
ATOM     39 CL   UNL     1      -4.236  11.457  16.617  0.00  0.00    -0.041 Cl
ENDBRANCH  17  36
ENDBRANCH   5  11
BRANCH   1  40
ATOM     40  C   UNL     1       3.469   6.200  17.755  0.00  0.00    -0.012 C 
ATOM     41  H   UNL     1       2.801   5.866  16.951  0.00  0.00    +0.035 HD
BRANCH  40  42
ATOM     42  C   UNL     1       4.301   7.365  17.206  0.00  0.00    -0.058 C 
ATOM     43  H   UNL     1       3.673   8.230  16.962  0.00  0.00    +0.024 HD
ATOM     44  H   UNL     1       4.833   7.076  16.291  0.00  0.00    +0.024 HD
ATOM     45  H   UNL     1       5.051   7.694  17.931  0.00  0.00    +0.024 HD
ENDBRANCH  40  42
BRANCH  40  46
ATOM     46  C   UNL     1       4.349   5.006  18.187  0.00  0.00    +0.014 C 
ATOM     47  H   UNL     1       5.269   4.968  17.591  0.00  0.00    +0.035 HD
ATOM     48  H   UNL     1       4.666   5.149  19.227  0.00  0.00    +0.035 HD
BRANCH  46  49
ATOM     49  C   UNL     1       3.646   3.694  18.063  0.00  0.00    +0.134 A 
ATOM     50  N   UNL     1       2.814   3.333  17.105  0.00  0.00    -0.135 NA
ATOM     51  N   UNL     1       2.397   2.049  17.356  0.00  0.00    -0.138 NA
ATOM     52  C   UNL     1       2.987   1.647  18.455  0.00  0.00    +0.120 A 
ATOM     53  N   UNL     1       3.784   2.641  18.931  0.00  0.00    -0.320 N 
ATOM     54  H   UNL     1       2.875   0.679  18.921  0.00  0.00    +0.105 HD
BRANCH  53  55
ATOM     55  C   UNL     1       4.610   2.571  20.106  0.00  0.00    +0.014 C 
ATOM     56  H   UNL     1       3.969   2.629  20.987  0.00  0.00    +0.046 HD
ATOM     57  H   UNL     1       5.312   3.407  20.111  0.00  0.00    +0.046 HD
ATOM     58  H   UNL     1       5.157   1.625  20.090  0.00  0.00    +0.046 HD
ENDBRANCH  53  55
ENDBRANCH  46  49
ENDBRANCH  40  46
ENDBRANCH   1  40
TORSDOF 9
ENDMDL
MODEL 27
REMARK VINA RESULT:    -7.954      1.592      2.527
REMARK INTER + INTRA:         -10.928
REMARK INTER:                 -10.416
REMARK INTRA:                  -0.512
REMARK UNBOUND:                 0.514
REMARK  Name = 
REMARK  9 active torsions:
REMARK  status: ('A' for Active; 'I' for Inactive)
REMARK    1  A    between atoms: C_1  and  C_2
REMARK    2  A    between atoms: C_2  and  C_3
REMARK    3  A    between atoms: C_2  and  C_10
REMARK    4  A    between atoms: C_3  and  C_4
REMARK    5  A    between atoms: N_8  and  C_9
REMARK    6  A    between atoms: C_14  and  C_16
REMARK    7  A    between atoms: C_22  and  C_31
REMARK    8  A    between atoms: C_24  and  N_25
REMARK    9  A    between atoms: C_28  and  O_30
REMARK                            x       y       z     vdW  Elec       q    Type
REMARK                         _______ _______ _______ _____ _____    ______ ____
ROOT
ATOM      1  C   UNL     1       0.397  10.275  19.236  0.00  0.00    -0.044 A 
ATOM      2  C   UNL     1       0.874  11.529  18.837  0.00  0.00    -0.058 A 
ATOM      3  C   UNL     1       2.056  11.636  18.107  0.00  0.00    -0.061 A 
ATOM      4  C   UNL     1       2.775  10.489  17.768  0.00  0.00    -0.052 A 
ATOM      5  C   UNL     1       2.322   9.214  18.144  0.00  0.00    +0.004 A 
ATOM      6  C   UNL     1       1.128   9.126  18.878  0.00  0.00    -0.049 A 
ATOM      7  H   UNL     1       0.327  12.435  19.091  0.00  0.00    +0.062 HD
ATOM      8  H   UNL     1       2.422  12.612  17.801  0.00  0.00    +0.062 HD
ATOM      9  H   UNL     1       3.697  10.594  17.199  0.00  0.00    +0.062 HD
ATOM     10  H   UNL     1       0.755   8.154  19.189  0.00  0.00    +0.063 HD
ENDROOT
BRANCH   5  11
ATOM     11  C   UNL     1       3.095   8.017  17.779  0.00  0.00    +0.118 A 
ATOM     12  N   UNL     1       4.140   8.102  16.927  0.00  0.00    -0.171 NA
ATOM     13  N   UNL     1       4.593   6.841  16.832  0.00  0.00    -0.273 N 
ATOM     14  C   UNL     1       3.905   5.933  17.578  0.00  0.00    +0.106 A 
ATOM     15  C   UNL     1       2.916   6.661  18.211  0.00  0.00    +0.118 A 
ATOM     16  N   UNL     1       2.016   6.087  19.049  0.00  0.00    -0.240 NA
ATOM     17  C   UNL     1       2.141   4.744  19.221  0.00  0.00    +0.128 A 
ATOM     18  C   UNL     1       3.134   3.973  18.599  0.00  0.00    -0.010 A 
ATOM     19  C   UNL     1       4.068   4.560  17.739  0.00  0.00    +0.059 A 
ATOM     20  H   UNL     1       5.385   6.647  16.232  0.00  0.00    +0.189 HD
ATOM     21  H   UNL     1       3.180   2.903  18.790  0.00  0.00    +0.066 HD
BRANCH  19  22
ATOM     22  N   UNL     1       5.086   3.880  17.083  0.00  0.00    -0.326 N 
ATOM     23  C   UNL     1       6.453   4.182  17.568  0.00  0.00    +0.015 C 
ATOM     24  C   UNL     1       7.207   4.725  16.363  0.00  0.00    -0.010 C 
ATOM     25  C   UNL     1       6.542   4.016  15.197  0.00  0.00    +0.072 C 
ATOM     26  C   UNL     1       5.066   4.046  15.613  0.00  0.00    +0.038 C 
ATOM     27  H   UNL     1       6.488   4.882  18.411  0.00  0.00    +0.046 HD
ATOM     28  H   UNL     1       6.907   3.241  17.901  0.00  0.00    +0.046 HD
ATOM     29  H   UNL     1       8.283   4.528  16.417  0.00  0.00    +0.031 HD
ATOM     30  H   UNL     1       7.079   5.812  16.279  0.00  0.00    +0.031 HD
ATOM     31  H   UNL     1       6.908   2.985  15.112  0.00  0.00    +0.061 HD
ATOM     32  H   UNL     1       4.511   3.225  15.141  0.00  0.00    +0.049 HD
ATOM     33  H   UNL     1       4.603   4.986  15.288  0.00  0.00    +0.049 HD
BRANCH  25  34
ATOM     34  O   UNL     1       6.796   4.711  13.988  0.00  0.00    -0.390 OA
ATOM     35  H   UNL     1       6.239   5.511  13.984  0.00  0.00    +0.210 HD
ENDBRANCH  25  34
ENDBRANCH  19  22
BRANCH  17  36
ATOM     36  C   UNL     1       1.169   4.054  20.173  0.00  0.00    +0.365 C 
ATOM     37  F   UNL     1       0.434   3.076  19.562  0.00  0.00    -0.181 F 
ATOM     38  F   UNL     1       0.251   4.904  20.716  0.00  0.00    -0.181 F 
ATOM     39 CL   UNL     1       2.087   3.288  21.502  0.00  0.00    -0.041 Cl
ENDBRANCH  17  36
ENDBRANCH   5  11
BRANCH   1  40
ATOM     40  C   UNL     1      -0.884  10.177  20.057  0.00  0.00    -0.012 C 
ATOM     41  H   UNL     1      -1.384   9.235  19.793  0.00  0.00    +0.035 HD
BRANCH  40  42
ATOM     42  C   UNL     1      -0.553  10.117  21.553  0.00  0.00    -0.058 C 
ATOM     43  H   UNL     1       0.371  10.660  21.784  0.00  0.00    +0.024 HD
ATOM     44  H   UNL     1      -0.418   9.082  21.888  0.00  0.00    +0.024 HD
ATOM     45  H   UNL     1      -1.355  10.555  22.154  0.00  0.00    +0.024 HD
ENDBRANCH  40  42
BRANCH  40  46
ATOM     46  C   UNL     1      -1.833  11.347  19.714  0.00  0.00    +0.014 C 
ATOM     47  H   UNL     1      -2.489  11.574  20.563  0.00  0.00    +0.035 HD
ATOM     48  H   UNL     1      -1.240  12.252  19.537  0.00  0.00    +0.035 HD
BRANCH  46  49
ATOM     49  C   UNL     1      -2.681  11.072  18.516  0.00  0.00    +0.134 A 
ATOM     50  N   UNL     1      -2.346  10.360  17.459  0.00  0.00    -0.135 NA
ATOM     51  N   UNL     1      -3.411  10.344  16.591  0.00  0.00    -0.138 NA
ATOM     52  C   UNL     1      -4.379  11.040  17.138  0.00  0.00    +0.120 A 
ATOM     53  N   UNL     1      -3.971  11.511  18.347  0.00  0.00    -0.320 N 
ATOM     54  H   UNL     1      -5.355  11.217  16.712  0.00  0.00    +0.105 HD
BRANCH  53  55
ATOM     55  C   UNL     1      -4.759  12.298  19.256  0.00  0.00    +0.014 C 
ATOM     56  H   UNL     1      -5.739  11.830  19.364  0.00  0.00    +0.046 HD
ATOM     57  H   UNL     1      -4.880  13.308  18.857  0.00  0.00    +0.046 HD
ATOM     58  H   UNL     1      -4.243  12.337  20.219  0.00  0.00    +0.046 HD
ENDBRANCH  53  55
ENDBRANCH  46  49
ENDBRANCH  40  46
ENDBRANCH   1  40
TORSDOF 9
ENDMDL
MODEL 28
REMARK VINA RESULT:    -7.868      5.019      9.622
REMARK INTER + INTRA:         -10.804
REMARK INTER:                  -9.919
REMARK INTRA:                  -0.886
REMARK UNBOUND:                 0.514
REMARK  Name = 
REMARK  9 active torsions:
REMARK  status: ('A' for Active; 'I' for Inactive)
REMARK    1  A    between atoms: C_1  and  C_2
REMARK    2  A    between atoms: C_2  and  C_3
REMARK    3  A    between atoms: C_2  and  C_10
REMARK    4  A    between atoms: C_3  and  C_4
REMARK    5  A    between atoms: N_8  and  C_9
REMARK    6  A    between atoms: C_14  and  C_16
REMARK    7  A    between atoms: C_22  and  C_31
REMARK    8  A    between atoms: C_24  and  N_25
REMARK    9  A    between atoms: C_28  and  O_30
REMARK                            x       y       z     vdW  Elec       q    Type
REMARK                         _______ _______ _______ _____ _____    ______ ____
ROOT
ATOM      1  C   UNL     1       2.761   6.704  18.833  0.00  0.00    -0.044 A 
ATOM      2  C   UNL     1       2.638   5.385  19.286  0.00  0.00    -0.058 A 
ATOM      3  C   UNL     1       1.867   5.094  20.411  0.00  0.00    -0.061 A 
ATOM      4  C   UNL     1       1.212   6.119  21.095  0.00  0.00    -0.052 A 
ATOM      5  C   UNL     1       1.307   7.452  20.663  0.00  0.00    +0.004 A 
ATOM      6  C   UNL     1       2.086   7.726  19.528  0.00  0.00    -0.049 A 
ATOM      7  H   UNL     1       3.140   4.572  18.766  0.00  0.00    +0.062 HD
ATOM      8  H   UNL     1       1.776   4.069  20.759  0.00  0.00    +0.062 HD
ATOM      9  H   UNL     1       0.617   5.871  21.972  0.00  0.00    +0.062 HD
ATOM     10  H   UNL     1       2.184   8.749  19.173  0.00  0.00    +0.063 HD
ENDROOT
BRANCH   5  11
ATOM     11  C   UNL     1       0.611   8.518  21.399  0.00  0.00    +0.118 A 
ATOM     12  N   UNL     1      -0.027   8.255  22.560  0.00  0.00    -0.171 NA
ATOM     13  N   UNL     1      -0.534   9.441  22.936  0.00  0.00    -0.273 N 
ATOM     14  C   UNL     1      -0.260  10.470  22.087  0.00  0.00    +0.106 A 
ATOM     15  C   UNL     1       0.485   9.909  21.067  0.00  0.00    +0.118 A 
ATOM     16  N   UNL     1       0.944  10.637  20.018  0.00  0.00    -0.240 NA
ATOM     17  C   UNL     1       0.616  11.957  20.027  0.00  0.00    +0.128 A 
ATOM     18  C   UNL     1      -0.134  12.562  21.046  0.00  0.00    -0.010 A 
ATOM     19  C   UNL     1      -0.605  11.818  22.132  0.00  0.00    +0.059 A 
ATOM     20  H   UNL     1      -1.072   9.496  23.792  0.00  0.00    +0.189 HD
ATOM     21  H   UNL     1      -0.351  13.627  20.991  0.00  0.00    +0.066 HD
BRANCH  19  22
ATOM     22  N   UNL     1      -1.350  12.329  23.187  0.00  0.00    -0.326 N 
ATOM     23  C   UNL     1      -2.688  11.719  23.361  0.00  0.00    +0.015 C 
ATOM     24  C   UNL     1      -3.682  12.864  23.232  0.00  0.00    -0.010 C 
ATOM     25  C   UNL     1      -2.898  14.057  23.748  0.00  0.00    +0.072 C 
ATOM     26  C   UNL     1      -1.509  13.800  23.151  0.00  0.00    +0.038 C 
ATOM     27  H   UNL     1      -2.911  10.913  22.653  0.00  0.00    +0.046 HD
ATOM     28  H   UNL     1      -2.735  11.294  24.371  0.00  0.00    +0.046 HD
ATOM     29  H   UNL     1      -4.602  12.688  23.800  0.00  0.00    +0.031 HD
ATOM     30  H   UNL     1      -3.971  13.014  22.183  0.00  0.00    +0.031 HD
ATOM     31  H   UNL     1      -2.864  14.052  24.844  0.00  0.00    +0.061 HD
ATOM     32  H   UNL     1      -0.730  14.286  23.751  0.00  0.00    +0.049 HD
ATOM     33  H   UNL     1      -1.452  14.217  22.137  0.00  0.00    +0.049 HD
BRANCH  25  34
ATOM     34  O   UNL     1      -3.485  15.265  23.296  0.00  0.00    -0.390 OA
ATOM     35  H   UNL     1      -3.619  15.838  24.073  0.00  0.00    +0.210 HD
ENDBRANCH  25  34
ENDBRANCH  19  22
BRANCH  17  36
ATOM     36  C   UNL     1       1.129  12.825  18.882  0.00  0.00    +0.365 C 
ATOM     37  F   UNL     1       1.483  14.082  19.288  0.00  0.00    -0.181 F 
ATOM     38  F   UNL     1       0.208  13.014  17.894  0.00  0.00    -0.181 F 
ATOM     39 CL   UNL     1       2.578  12.061  18.166  0.00  0.00    -0.041 Cl
ENDBRANCH  17  36
ENDBRANCH   5  11
BRANCH   1  40
ATOM     40  C   UNL     1       3.628   7.009  17.617  0.00  0.00    -0.012 C 
ATOM     41  H   UNL     1       3.221   6.452  16.763  0.00  0.00    +0.035 HD
BRANCH  40  42
ATOM     42  C   UNL     1       3.552   8.501  17.271  0.00  0.00    -0.058 C 
ATOM     43  H   UNL     1       4.517   8.883  16.917  0.00  0.00    +0.024 HD
ATOM     44  H   UNL     1       3.262   9.097  18.144  0.00  0.00    +0.024 HD
ATOM     45  H   UNL     1       2.814   8.688  16.485  0.00  0.00    +0.024 HD
ENDBRANCH  40  42
BRANCH  40  46
ATOM     46  C   UNL     1       5.079   6.538  17.861  0.00  0.00    +0.014 C 
ATOM     47  H   UNL     1       5.728   7.391  18.097  0.00  0.00    +0.035 HD
ATOM     48  H   UNL     1       5.103   5.885  18.742  0.00  0.00    +0.035 HD
BRANCH  46  49
ATOM     49  C   UNL     1       5.656   5.810  16.692  0.00  0.00    +0.134 A 
ATOM     50  N   UNL     1       5.211   5.834  15.451  0.00  0.00    -0.135 NA
ATOM     51  N   UNL     1       6.027   5.039  14.683  0.00  0.00    -0.138 NA
ATOM     52  C   UNL     1       6.959   4.552  15.467  0.00  0.00    +0.120 A 
ATOM     53  N   UNL     1       6.771   5.011  16.733  0.00  0.00    -0.320 N 
ATOM     54  H   UNL     1       7.760   3.892  15.170  0.00  0.00    +0.105 HD
BRANCH  53  55
ATOM     55  C   UNL     1       7.601   4.716  17.869  0.00  0.00    +0.014 C 
ATOM     56  H   UNL     1       7.247   3.793  18.330  0.00  0.00    +0.046 HD
ATOM     57  H   UNL     1       7.536   5.532  18.593  0.00  0.00    +0.046 HD
ATOM     58  H   UNL     1       8.633   4.603  17.527  0.00  0.00    +0.046 HD
ENDBRANCH  53  55
ENDBRANCH  46  49
ENDBRANCH  40  46
ENDBRANCH   1  40
TORSDOF 9
ENDMDL
MODEL 29
REMARK VINA RESULT:    -7.741      3.197      4.674
REMARK INTER + INTRA:         -10.622
REMARK INTER:                 -10.066
REMARK INTRA:                  -0.556
REMARK UNBOUND:                 0.514
REMARK  Name = 
REMARK  9 active torsions:
REMARK  status: ('A' for Active; 'I' for Inactive)
REMARK    1  A    between atoms: C_1  and  C_2
REMARK    2  A    between atoms: C_2  and  C_3
REMARK    3  A    between atoms: C_2  and  C_10
REMARK    4  A    between atoms: C_3  and  C_4
REMARK    5  A    between atoms: N_8  and  C_9
REMARK    6  A    between atoms: C_14  and  C_16
REMARK    7  A    between atoms: C_22  and  C_31
REMARK    8  A    between atoms: C_24  and  N_25
REMARK    9  A    between atoms: C_28  and  O_30
REMARK                            x       y       z     vdW  Elec       q    Type
REMARK                         _______ _______ _______ _____ _____    ______ ____
ROOT
ATOM      1  C   UNL     1       1.480  11.486  18.602  0.00  0.00    -0.044 A 
ATOM      2  C   UNL     1       0.239  11.158  19.160  0.00  0.00    -0.058 A 
ATOM      3  C   UNL     1      -0.137   9.825  19.314  0.00  0.00    -0.061 A 
ATOM      4  C   UNL     1       0.725   8.804  18.910  0.00  0.00    -0.052 A 
ATOM      5  C   UNL     1       1.981   9.096  18.353  0.00  0.00    +0.004 A 
ATOM      6  C   UNL     1       2.342  10.445  18.208  0.00  0.00    -0.049 A 
ATOM      7  H   UNL     1      -0.446  11.939  19.482  0.00  0.00    +0.062 HD
ATOM      8  H   UNL     1      -1.101   9.576  19.747  0.00  0.00    +0.062 HD
ATOM      9  H   UNL     1       0.413   7.770  19.036  0.00  0.00    +0.062 HD
ATOM     10  H   UNL     1       3.305  10.703  17.774  0.00  0.00    +0.063 HD
ENDROOT
BRANCH   5  11
ATOM     11  C   UNL     1       2.874   8.007  17.931  0.00  0.00    +0.118 A 
ATOM     12  N   UNL     1       3.922   8.249  17.115  0.00  0.00    -0.171 NA
ATOM     13  N   UNL     1       4.498   7.046  16.949  0.00  0.00    -0.273 N 
ATOM     14  C   UNL     1       3.887   6.028  17.616  0.00  0.00    +0.106 A 
ATOM     15  C   UNL     1       2.818   6.613  18.268  0.00  0.00    +0.118 A 
ATOM     16  N   UNL     1       1.962   5.900  19.043  0.00  0.00    -0.240 NA
ATOM     17  C   UNL     1       2.214   4.567  19.129  0.00  0.00    +0.128 A 
ATOM     18  C   UNL     1       3.289   3.938  18.484  0.00  0.00    -0.010 A 
ATOM     19  C   UNL     1       4.178   4.669  17.690  0.00  0.00    +0.059 A 
ATOM     20  H   UNL     1       5.317   6.970  16.359  0.00  0.00    +0.189 HD
ATOM     21  H   UNL     1       3.435   2.867  18.606  0.00  0.00    +0.066 HD
BRANCH  19  22
ATOM     22  N   UNL     1       5.271   4.136  17.018  0.00  0.00    -0.326 N 
ATOM     23  C   UNL     1       6.585   4.403  17.649  0.00  0.00    +0.015 C 
ATOM     24  C   UNL     1       7.398   5.154  16.604  0.00  0.00    -0.010 C 
ATOM     25  C   UNL     1       6.851   4.615  15.295  0.00  0.00    +0.072 C 
ATOM     26  C   UNL     1       5.349   4.530  15.594  0.00  0.00    +0.038 C 
ATOM     27  H   UNL     1       6.527   4.962  18.589  0.00  0.00    +0.046 HD
ATOM     28  H   UNL     1       7.055   3.437  17.866  0.00  0.00    +0.046 HD
ATOM     29  H   UNL     1       8.474   4.987  16.711  0.00  0.00    +0.031 HD
ATOM     30  H   UNL     1       7.227   6.236  16.681  0.00  0.00    +0.031 HD
ATOM     31  H   UNL     1       7.269   3.624  15.080  0.00  0.00    +0.061 HD
ATOM     32  H   UNL     1       4.867   3.776  14.960  0.00  0.00    +0.049 HD
ATOM     33  H   UNL     1       4.867   5.494  15.384  0.00  0.00    +0.049 HD
BRANCH  25  34
ATOM     34  O   UNL     1       7.159   5.501  14.232  0.00  0.00    -0.390 OA
ATOM     35  H   UNL     1       6.318   5.799  13.841  0.00  0.00    +0.210 HD
ENDBRANCH  25  34
ENDBRANCH  19  22
BRANCH  17  36
ATOM     36  C   UNL     1       1.294   3.724  20.007  0.00  0.00    +0.365 C 
ATOM     37  F   UNL     1       0.240   4.437  20.507  0.00  0.00    -0.181 F 
ATOM     38  F   UNL     1       1.921   3.199  21.099  0.00  0.00    -0.181 F 
ATOM     39 CL   UNL     1       0.624   2.378  19.039  0.00  0.00    -0.041 Cl
ENDBRANCH  17  36
ENDBRANCH   5  11
BRANCH   1  40
ATOM     40  C   UNL     1       1.865  12.949  18.416  0.00  0.00    -0.012 C 
ATOM     41  H   UNL     1       2.500  13.022  17.523  0.00  0.00    +0.035 HD
BRANCH  40  42
ATOM     42  C   UNL     1       0.615  13.799  18.159  0.00  0.00    -0.058 C 
ATOM     43  H   UNL     1      -0.292  13.183  18.123  0.00  0.00    +0.024 HD
ATOM     44  H   UNL     1       0.687  14.334  17.205  0.00  0.00    +0.024 HD
ATOM     45  H   UNL     1       0.475  14.547  18.946  0.00  0.00    +0.024 HD
ENDBRANCH  40  42
BRANCH  40  46
ATOM     46  C   UNL     1       2.674  13.451  19.633  0.00  0.00    +0.014 C 
ATOM     47  H   UNL     1       2.072  14.139  20.239  0.00  0.00    +0.035 HD
ATOM     48  H   UNL     1       2.911  12.600  20.283  0.00  0.00    +0.035 HD
BRANCH  46  49
ATOM     49  C   UNL     1       3.939  14.141  19.243  0.00  0.00    +0.134 A 
ATOM     50  N   UNL     1       4.412  14.288  18.021  0.00  0.00    -0.135 NA
ATOM     51  N   UNL     1       5.591  14.988  18.095  0.00  0.00    -0.138 NA
ATOM     52  C   UNL     1       5.812  15.262  19.358  0.00  0.00    +0.120 A 
ATOM     53  N   UNL     1       4.801  14.757  20.115  0.00  0.00    -0.320 N 
ATOM     54  H   UNL     1       6.656  15.808  19.753  0.00  0.00    +0.105 HD
BRANCH  53  55
ATOM     55  C   UNL     1       4.676  14.872  21.542  0.00  0.00    +0.014 C 
ATOM     56  H   UNL     1       4.321  13.920  21.940  0.00  0.00    +0.046 HD
ATOM     57  H   UNL     1       3.959  15.659  21.785  0.00  0.00    +0.046 HD
ATOM     58  H   UNL     1       5.657  15.120  21.958  0.00  0.00    +0.046 HD
ENDBRANCH  53  55
ENDBRANCH  46  49
ENDBRANCH  40  46
ENDBRANCH   1  40
TORSDOF 9
ENDMDL
MODEL 30
REMARK VINA RESULT:    -7.562      4.629      9.509
REMARK INTER + INTRA:         -10.365
REMARK INTER:                  -9.317
REMARK INTRA:                  -1.047
REMARK UNBOUND:                 0.514
REMARK  Name = 
REMARK  9 active torsions:
REMARK  status: ('A' for Active; 'I' for Inactive)
REMARK    1  A    between atoms: C_1  and  C_2
REMARK    2  A    between atoms: C_2  and  C_3
REMARK    3  A    between atoms: C_2  and  C_10
REMARK    4  A    between atoms: C_3  and  C_4
REMARK    5  A    between atoms: N_8  and  C_9
REMARK    6  A    between atoms: C_14  and  C_16
REMARK    7  A    between atoms: C_22  and  C_31
REMARK    8  A    between atoms: C_24  and  N_25
REMARK    9  A    between atoms: C_28  and  O_30
REMARK                            x       y       z     vdW  Elec       q    Type
REMARK                         _______ _______ _______ _____ _____    ______ ____
ROOT
ATOM      1  C   UNL     1       3.007   6.056  18.728  0.00  0.00    -0.044 A 
ATOM      2  C   UNL     1       3.071   4.918  19.542  0.00  0.00    -0.058 A 
ATOM      3  C   UNL     1       2.366   4.869  20.743  0.00  0.00    -0.061 A 
ATOM      4  C   UNL     1       1.589   5.957  21.143  0.00  0.00    -0.052 A 
ATOM      5  C   UNL     1       1.495   7.110  20.348  0.00  0.00    +0.004 A 
ATOM      6  C   UNL     1       2.211   7.141  19.141  0.00  0.00    -0.049 A 
ATOM      7  H   UNL     1       3.670   4.060  19.246  0.00  0.00    +0.062 HD
ATOM      8  H   UNL     1       2.420   3.984  21.371  0.00  0.00    +0.062 HD
ATOM      9  H   UNL     1       1.047   5.899  22.086  0.00  0.00    +0.062 HD
ATOM     10  H   UNL     1       2.164   8.023  18.507  0.00  0.00    +0.063 HD
ENDROOT
BRANCH   5  11
ATOM     11  C   UNL     1       0.673   8.247  20.789  0.00  0.00    +0.118 A 
ATOM     12  N   UNL     1      -0.308   8.079  21.702  0.00  0.00    -0.171 NA
ATOM     13  N   UNL     1      -0.832   9.306  21.856  0.00  0.00    -0.273 N 
ATOM     14  C   UNL     1      -0.246  10.273  21.097  0.00  0.00    +0.106 A 
ATOM     15  C   UNL     1       0.742   9.621  20.382  0.00  0.00    +0.118 A 
ATOM     16  N   UNL     1       1.547  10.268  19.501  0.00  0.00    -0.240 NA
ATOM     17  C   UNL     1       1.315  11.600  19.356  0.00  0.00    +0.128 A 
ATOM     18  C   UNL     1       0.325  12.295  20.067  0.00  0.00    -0.010 A 
ATOM     19  C   UNL     1      -0.503  11.636  20.980  0.00  0.00    +0.059 A 
ATOM     20  H   UNL     1      -1.603   9.434  22.500  0.00  0.00    +0.189 HD
ATOM     21  H   UNL     1       0.202  13.365  19.907  0.00  0.00    +0.066 HD
BRANCH  19  22
ATOM     22  N   UNL     1      -1.505  12.239  21.730  0.00  0.00    -0.326 N 
ATOM     23  C   UNL     1      -2.120  13.434  21.105  0.00  0.00    +0.015 C 
ATOM     24  C   UNL     1      -1.887  14.576  22.084  0.00  0.00    -0.010 C 
ATOM     25  C   UNL     1      -1.871  13.873  23.430  0.00  0.00    +0.072 C 
ATOM     26  C   UNL     1      -1.092  12.593  23.106  0.00  0.00    +0.038 C 
ATOM     27  H   UNL     1      -1.729  13.673  20.110  0.00  0.00    +0.046 HD
ATOM     28  H   UNL     1      -3.195  13.242  21.002  0.00  0.00    +0.046 HD
ATOM     29  H   UNL     1      -2.661  15.347  22.021  0.00  0.00    +0.031 HD
ATOM     30  H   UNL     1      -0.923  15.065  21.891  0.00  0.00    +0.031 HD
ATOM     31  H   UNL     1      -2.893  13.643  23.757  0.00  0.00    +0.061 HD
ATOM     32  H   UNL     1      -1.354  11.789  23.804  0.00  0.00    +0.049 HD
ATOM     33  H   UNL     1      -0.013  12.774  23.202  0.00  0.00    +0.049 HD
BRANCH  25  34
ATOM     34  O   UNL     1      -1.233  14.685  24.401  0.00  0.00    -0.390 OA
ATOM     35  H   UNL     1      -1.106  14.145  25.202  0.00  0.00    +0.210 HD
ENDBRANCH  25  34
ENDBRANCH  19  22
BRANCH  17  36
ATOM     36  C   UNL     1       2.209  12.378  18.396  0.00  0.00    +0.365 C 
ATOM     37  F   UNL     1       1.500  13.040  17.432  0.00  0.00    -0.181 F 
ATOM     38  F   UNL     1       3.087  11.587  17.715  0.00  0.00    -0.181 F 
ATOM     39 CL   UNL     1       3.140  13.597  19.314  0.00  0.00    -0.041 Cl
ENDBRANCH  17  36
ENDBRANCH   5  11
BRANCH   1  40
ATOM     40  C   UNL     1       3.805   6.104  17.430  0.00  0.00    -0.012 C 
ATOM     41  H   UNL     1       3.112   6.351  16.615  0.00  0.00    +0.035 HD
BRANCH  40  42
ATOM     42  C   UNL     1       4.854   7.221  17.493  0.00  0.00    -0.058 C 
ATOM     43  H   UNL     1       5.768   6.947  16.954  0.00  0.00    +0.024 HD
ATOM     44  H   UNL     1       5.137   7.442  18.529  0.00  0.00    +0.024 HD
ATOM     45  H   UNL     1       4.474   8.147  17.051  0.00  0.00    +0.024 HD
ENDBRANCH  40  42
BRANCH  40  46
ATOM     46  C   UNL     1       4.435   4.725  17.135  0.00  0.00    +0.014 C 
ATOM     47  H   UNL     1       4.910   4.317  18.036  0.00  0.00    +0.035 HD
ATOM     48  H   UNL     1       3.643   4.018  16.861  0.00  0.00    +0.035 HD
BRANCH  46  49
ATOM     49  C   UNL     1       5.452   4.774  16.042  0.00  0.00    +0.134 A 
ATOM     50  N   UNL     1       5.215   4.889  14.750  0.00  0.00    -0.135 NA
ATOM     51  N   UNL     1       6.419   4.905  14.089  0.00  0.00    -0.138 NA
ATOM     52  C   UNL     1       7.368   4.809  14.989  0.00  0.00    +0.120 A 
ATOM     53  N   UNL     1       6.811   4.731  16.228  0.00  0.00    -0.320 N 
ATOM     54  H   UNL     1       8.430   4.798  14.796  0.00  0.00    +0.105 HD
BRANCH  53  55
ATOM     55  C   UNL     1       7.527   4.636  17.470  0.00  0.00    +0.014 C 
ATOM     56  H   UNL     1       7.672   3.582  17.711  0.00  0.00    +0.046 HD
ATOM     57  H   UNL     1       6.948   5.114  18.264  0.00  0.00    +0.046 HD
ATOM     58  H   UNL     1       8.490   5.141  17.356  0.00  0.00    +0.046 HD
ENDBRANCH  53  55
ENDBRANCH  46  49
ENDBRANCH  40  46
ENDBRANCH   1  40
TORSDOF 9
ENDMDL
MODEL 31
REMARK VINA RESULT:    -7.557      4.696      9.481
REMARK INTER + INTRA:         -10.357
REMARK INTER:                  -9.986
REMARK INTRA:                  -0.371
REMARK UNBOUND:                 0.514
REMARK  Name = 
REMARK  9 active torsions:
REMARK  status: ('A' for Active; 'I' for Inactive)
REMARK    1  A    between atoms: C_1  and  C_2
REMARK    2  A    between atoms: C_2  and  C_3
REMARK    3  A    between atoms: C_2  and  C_10
REMARK    4  A    between atoms: C_3  and  C_4
REMARK    5  A    between atoms: N_8  and  C_9
REMARK    6  A    between atoms: C_14  and  C_16
REMARK    7  A    between atoms: C_22  and  C_31
REMARK    8  A    between atoms: C_24  and  N_25
REMARK    9  A    between atoms: C_28  and  O_30
REMARK                            x       y       z     vdW  Elec       q    Type
REMARK                         _______ _______ _______ _____ _____    ______ ____
ROOT
ATOM      1  C   UNL     1       2.879   6.319  18.766  0.00  0.00    -0.044 A 
ATOM      2  C   UNL     1       2.817   5.177  19.575  0.00  0.00    -0.058 A 
ATOM      3  C   UNL     1       2.069   5.185  20.751  0.00  0.00    -0.061 A 
ATOM      4  C   UNL     1       1.375   6.334  21.131  0.00  0.00    -0.052 A 
ATOM      5  C   UNL     1       1.408   7.494  20.340  0.00  0.00    +0.004 A 
ATOM      6  C   UNL     1       2.166   7.467  19.159  0.00  0.00    -0.049 A 
ATOM      7  H   UNL     1       3.350   4.271  19.295  0.00  0.00    +0.062 HD
ATOM      8  H   UNL     1       2.025   4.297  21.375  0.00  0.00    +0.062 HD
ATOM      9  H   UNL     1       0.799   6.321  22.054  0.00  0.00    +0.062 HD
ATOM     10  H   UNL     1       2.216   8.351  18.529  0.00  0.00    +0.063 HD
ENDROOT
BRANCH   5  11
ATOM     11  C   UNL     1       0.672   8.696  20.760  0.00  0.00    +0.118 A 
ATOM     12  N   UNL     1      -0.300   8.621  21.694  0.00  0.00    -0.171 NA
ATOM     13  N   UNL     1      -0.738   9.885  21.819  0.00  0.00    -0.273 N 
ATOM     14  C   UNL     1      -0.104  10.787  21.020  0.00  0.00    +0.106 A 
ATOM     15  C   UNL     1       0.824  10.050  20.309  0.00  0.00    +0.118 A 
ATOM     16  N   UNL     1       1.653  10.615  19.395  0.00  0.00    -0.240 NA
ATOM     17  C   UNL     1       1.508  11.954  19.214  0.00  0.00    +0.128 A 
ATOM     18  C   UNL     1       0.580  12.735  19.919  0.00  0.00    -0.010 A 
ATOM     19  C   UNL     1      -0.273  12.160  20.866  0.00  0.00    +0.059 A 
ATOM     20  H   UNL     1      -1.487  10.083  22.472  0.00  0.00    +0.189 HD
ATOM     21  H   UNL     1       0.525  13.805  19.728  0.00  0.00    +0.066 HD
BRANCH  19  22
ATOM     22  N   UNL     1      -1.218  12.851  21.614  0.00  0.00    -0.326 N 
ATOM     23  C   UNL     1      -1.268  12.487  23.049  0.00  0.00    +0.015 C 
ATOM     24  C   UNL     1      -2.687  11.998  23.300  0.00  0.00    -0.010 C 
ATOM     25  C   UNL     1      -3.503  12.791  22.296  0.00  0.00    +0.072 C 
ATOM     26  C   UNL     1      -2.589  12.774  21.065  0.00  0.00    +0.038 C 
ATOM     27  H   UNL     1      -0.527  11.738  23.349  0.00  0.00    +0.046 HD
ATOM     28  H   UNL     1      -1.075  13.395  23.633  0.00  0.00    +0.046 HD
ATOM     29  H   UNL     1      -3.012  12.164  24.332  0.00  0.00    +0.031 HD
ATOM     30  H   UNL     1      -2.769  10.921  23.102  0.00  0.00    +0.031 HD
ATOM     31  H   UNL     1      -3.666  13.816  22.654  0.00  0.00    +0.061 HD
ATOM     32  H   UNL     1      -2.792  13.635  20.416  0.00  0.00    +0.049 HD
ATOM     33  H   UNL     1      -2.770  11.867  20.475  0.00  0.00    +0.049 HD
BRANCH  25  34
ATOM     34  O   UNL     1      -4.754  12.162  22.072  0.00  0.00    -0.390 OA
ATOM     35  H   UNL     1      -4.637  11.520  21.349  0.00  0.00    +0.210 HD
ENDBRANCH  25  34
ENDBRANCH  19  22
BRANCH  17  36
ATOM     36  C   UNL     1       2.433  12.642  18.215  0.00  0.00    +0.365 C 
ATOM     37  F   UNL     1       1.752  13.347  17.261  0.00  0.00    -0.181 F 
ATOM     38  F   UNL     1       3.221  11.771  17.521  0.00  0.00    -0.181 F 
ATOM     39 CL   UNL     1       3.490  13.792  19.084  0.00  0.00    -0.041 Cl
ENDBRANCH  17  36
ENDBRANCH   5  11
BRANCH   1  40
ATOM     40  C   UNL     1       3.723   6.302  17.497  0.00  0.00    -0.012 C 
ATOM     41  H   UNL     1       3.068   6.554  16.652  0.00  0.00    +0.035 HD
BRANCH  40  42
ATOM     42  C   UNL     1       4.812   7.379  17.569  0.00  0.00    -0.058 C 
ATOM     43  H   UNL     1       4.488   8.242  18.162  0.00  0.00    +0.024 HD
ATOM     44  H   UNL     1       5.074   7.746  16.570  0.00  0.00    +0.024 HD
ATOM     45  H   UNL     1       5.727   6.988  18.025  0.00  0.00    +0.024 HD
ENDBRANCH  40  42
BRANCH  40  46
ATOM     46  C   UNL     1       4.308   4.893  17.258  0.00  0.00    +0.014 C 
ATOM     47  H   UNL     1       4.745   4.495  18.183  0.00  0.00    +0.035 HD
ATOM     48  H   UNL     1       3.496   4.207  16.986  0.00  0.00    +0.035 HD
BRANCH  46  49
ATOM     49  C   UNL     1       5.350   4.871  16.190  0.00  0.00    +0.134 A 
ATOM     50  N   UNL     1       5.152   4.992  14.891  0.00  0.00    -0.135 NA
ATOM     51  N   UNL     1       6.369   4.928  14.259  0.00  0.00    -0.138 NA
ATOM     52  C   UNL     1       7.289   4.779  15.182  0.00  0.00    +0.120 A 
ATOM     53  N   UNL     1       6.699   4.744  16.407  0.00  0.00    -0.320 N 
ATOM     54  H   UNL     1       8.353   4.700  15.014  0.00  0.00    +0.105 HD
BRANCH  53  55
ATOM     55  C   UNL     1       7.379   4.613  17.667  0.00  0.00    +0.014 C 
ATOM     56  H   UNL     1       8.192   3.895  17.553  0.00  0.00    +0.046 HD
ATOM     57  H   UNL     1       6.680   4.253  18.426  0.00  0.00    +0.046 HD
ATOM     58  H   UNL     1       7.769   5.593  17.955  0.00  0.00    +0.046 HD
ENDBRANCH  53  55
ENDBRANCH  46  49
ENDBRANCH  40  46
ENDBRANCH   1  40
TORSDOF 9
ENDMDL
MODEL 32
REMARK VINA RESULT:    -7.411      4.013      8.732
REMARK INTER + INTRA:         -10.147
REMARK INTER:                  -9.073
REMARK INTRA:                  -1.074
REMARK UNBOUND:                 0.514
REMARK  Name = 
REMARK  9 active torsions:
REMARK  status: ('A' for Active; 'I' for Inactive)
REMARK    1  A    between atoms: C_1  and  C_2
REMARK    2  A    between atoms: C_2  and  C_3
REMARK    3  A    between atoms: C_2  and  C_10
REMARK    4  A    between atoms: C_3  and  C_4
REMARK    5  A    between atoms: N_8  and  C_9
REMARK    6  A    between atoms: C_14  and  C_16
REMARK    7  A    between atoms: C_22  and  C_31
REMARK    8  A    between atoms: C_24  and  N_25
REMARK    9  A    between atoms: C_28  and  O_30
REMARK                            x       y       z     vdW  Elec       q    Type
REMARK                         _______ _______ _______ _____ _____    ______ ____
ROOT
ATOM      1  C   UNL     1       3.613   4.559  18.762  0.00  0.00    -0.044 A 
ATOM      2  C   UNL     1       2.581   3.740  18.288  0.00  0.00    -0.058 A 
ATOM      3  C   UNL     1       1.405   4.300  17.793  0.00  0.00    -0.061 A 
ATOM      4  C   UNL     1       1.248   5.686  17.767  0.00  0.00    -0.052 A 
ATOM      5  C   UNL     1       2.265   6.538  18.227  0.00  0.00    +0.004 A 
ATOM      6  C   UNL     1       3.442   5.956  18.721  0.00  0.00    -0.049 A 
ATOM      7  H   UNL     1       2.686   2.657  18.299  0.00  0.00    +0.062 HD
ATOM      8  H   UNL     1       0.608   3.659  17.426  0.00  0.00    +0.062 HD
ATOM      9  H   UNL     1       0.321   6.104  17.378  0.00  0.00    +0.062 HD
ATOM     10  H   UNL     1       4.245   6.589  19.090  0.00  0.00    +0.063 HD
ENDROOT
BRANCH   5  11
ATOM     11  C   UNL     1       2.078   7.997  18.194  0.00  0.00    +0.118 A 
ATOM     12  N   UNL     1       2.356   8.704  17.077  0.00  0.00    -0.171 NA
ATOM     13  N   UNL     1       2.072   9.975  17.410  0.00  0.00    -0.273 N 
ATOM     14  C   UNL     1       1.618  10.139  18.684  0.00  0.00    +0.106 A 
ATOM     15  C   UNL     1       1.610   8.870  19.231  0.00  0.00    +0.118 A 
ATOM     16  N   UNL     1       1.216   8.633  20.508  0.00  0.00    -0.240 NA
ATOM     17  C   UNL     1       0.838   9.726  21.223  0.00  0.00    +0.128 A 
ATOM     18  C   UNL     1       0.830  11.028  20.700  0.00  0.00    -0.010 A 
ATOM     19  C   UNL     1       1.229  11.278  19.384  0.00  0.00    +0.059 A 
ATOM     20  H   UNL     1       2.210  10.706  16.723  0.00  0.00    +0.189 HD
ATOM     21  H   UNL     1       0.506  11.856  21.328  0.00  0.00    +0.066 HD
BRANCH  19  22
ATOM     22  N   UNL     1       1.251  12.529  18.780  0.00  0.00    -0.326 N 
ATOM     23  C   UNL     1       2.056  13.551  19.487  0.00  0.00    +0.015 C 
ATOM     24  C   UNL     1       1.090  14.679  19.818  0.00  0.00    -0.010 C 
ATOM     25  C   UNL     1       0.080  14.606  18.687  0.00  0.00    +0.072 C 
ATOM     26  C   UNL     1      -0.092  13.091  18.519  0.00  0.00    +0.038 C 
ATOM     27  H   UNL     1       2.564  13.182  20.385  0.00  0.00    +0.046 HD
ATOM     28  H   UNL     1       2.828  13.910  18.795  0.00  0.00    +0.046 HD
ATOM     29  H   UNL     1       1.586  15.653  19.877  0.00  0.00    +0.031 HD
ATOM     30  H   UNL     1       0.602  14.503  20.786  0.00  0.00    +0.031 HD
ATOM     31  H   UNL     1       0.487  15.062  17.776  0.00  0.00    +0.061 HD
ATOM     32  H   UNL     1      -0.420  12.847  17.501  0.00  0.00    +0.049 HD
ATOM     33  H   UNL     1      -0.860  12.720  19.211  0.00  0.00    +0.049 HD
BRANCH  25  34
ATOM     34  O   UNL     1      -1.119  15.267  19.055  0.00  0.00    -0.390 OA
ATOM     35  H   UNL     1      -1.156  16.108  18.564  0.00  0.00    +0.210 HD
ENDBRANCH  25  34
ENDBRANCH  19  22
BRANCH  17  36
ATOM     36  C   UNL     1       0.363   9.511  22.656  0.00  0.00    +0.365 C 
ATOM     37  F   UNL     1      -0.279  10.603  23.171  0.00  0.00    -0.181 F 
ATOM     38  F   UNL     1       1.379   9.250  23.528  0.00  0.00    -0.181 F 
ATOM     39 CL   UNL     1      -0.784   8.140  22.698  0.00  0.00    -0.041 Cl
ENDBRANCH  17  36
ENDBRANCH   5  11
BRANCH   1  40
ATOM     40  C   UNL     1       4.882   3.930  19.325  0.00  0.00    -0.012 C 
ATOM     41  H   UNL     1       5.270   4.594  20.109  0.00  0.00    +0.035 HD
BRANCH  40  42
ATOM     42  C   UNL     1       4.561   2.583  19.983  0.00  0.00    -0.058 C 
ATOM     43  H   UNL     1       5.416   1.899  19.941  0.00  0.00    +0.024 HD
ATOM     44  H   UNL     1       3.719   2.088  19.484  0.00  0.00    +0.024 HD
ATOM     45  H   UNL     1       4.289   2.710  21.036  0.00  0.00    +0.024 HD
ENDBRANCH  40  42
BRANCH  40  46
ATOM     46  C   UNL     1       5.954   3.801  18.220  0.00  0.00    +0.014 C 
ATOM     47  H   UNL     1       6.833   3.263  18.596  0.00  0.00    +0.035 HD
ATOM     48  H   UNL     1       5.554   3.194  17.399  0.00  0.00    +0.035 HD
BRANCH  46  49
ATOM     49  C   UNL     1       6.397   5.123  17.686  0.00  0.00    +0.134 A 
ATOM     50  N   UNL     1       5.990   5.699  16.571  0.00  0.00    -0.135 NA
ATOM     51  N   UNL     1       6.632   6.907  16.450  0.00  0.00    -0.138 NA
ATOM     52  C   UNL     1       7.411   7.050  17.494  0.00  0.00    +0.120 A 
ATOM     53  N   UNL     1       7.294   5.960  18.300  0.00  0.00    -0.320 N 
ATOM     54  H   UNL     1       8.050   7.896  17.702  0.00  0.00    +0.105 HD
BRANCH  53  55
ATOM     55  C   UNL     1       7.974   5.757  19.549  0.00  0.00    +0.014 C 
ATOM     56  H   UNL     1       8.430   6.700  19.857  0.00  0.00    +0.046 HD
ATOM     57  H   UNL     1       8.752   5.000  19.425  0.00  0.00    +0.046 HD
ATOM     58  H   UNL     1       7.245   5.423  20.292  0.00  0.00    +0.046 HD
ENDBRANCH  53  55
ENDBRANCH  46  49
ENDBRANCH  40  46
ENDBRANCH   1  40
TORSDOF 9
ENDMDL
