MODEL 1
REMARK VINA RESULT:    -8.972      0.000      0.000
REMARK INTER + INTRA:         -13.457
REMARK INTER:                 -12.063
REMARK INTRA:                  -1.393
REMARK UNBOUND:                 0.498
REMARK  Name = 
REMARK  12 active torsions:
REMARK  status: ('A' for Active; 'I' for Inactive)
REMARK    1  A    between atoms: C_1  and  C_2
REMARK    2  A    between atoms: C_2  and  C_3
REMARK    3  A    between atoms: C_2  and  C_10
REMARK    4  A    between atoms: C_3  and  C_4
REMARK    5  A    between atoms: N_8  and  C_9
REMARK    6  A    between atoms: C_12  and  N_13
REMARK    7  A    between atoms: C_14  and  C_16
REMARK    8  A    between atoms: C_19  and  C_20
REMARK    9  A    between atoms: C_20  and  C_21
REMARK   10  A    between atoms: C_20  and  C_22
REMARK   11  A    between atoms: C_20  and  C_23
REMARK   12  A    between atoms: C_27  and  C_28
REMARK                            x       y       z     vdW  Elec       q    Type
REMARK                         _______ _______ _______ _____ _____    ______ ____
ROOT
ATOM      1  C   UNL     1       5.489   4.799  18.771  0.00  0.00    -0.042 A 
ATOM      2  C   UNL     1       4.656   5.866  19.148  0.00  0.00    -0.037 A 
ATOM      3  C   UNL     1       3.280   5.687  19.333  0.00  0.00    +0.035 A 
ATOM      4  C   UNL     1       2.727   4.422  19.137  0.00  0.00    -0.029 A 
ATOM      5  C   UNL     1       3.536   3.334  18.765  0.00  0.00    +0.057 A 
ATOM      6  C   UNL     1       4.912   3.536  18.579  0.00  0.00    -0.047 A 
ATOM      7  H   UNL     1       5.092   6.853  19.296  0.00  0.00    +0.064 HD
ATOM      8  H   UNL     1       1.662   4.249  19.269  0.00  0.00    +0.064 HD
ATOM      9  H   UNL     1       5.535   2.691  18.283  0.00  0.00    +0.063 HD
ENDROOT
BRANCH   3  10
ATOM     10  N   UNL     1       2.535   6.814  19.716  0.00  0.00    -0.280 N 
ATOM     11  C   UNL     1       2.173   7.908  18.953  0.00  0.00    +0.267 C 
ATOM     12  O   UNL     1       2.453   8.116  17.778  0.00  0.00    -0.268 OA
ATOM     13  H   UNL     1       2.204   6.865  20.677  0.00  0.00    +0.155 HD
BRANCH  11  14
ATOM     14  C   UNL     1       1.343   8.897  19.718  0.00  0.00    +0.126 A 
ATOM     15  C   UNL     1       1.004   8.652  21.038  0.00  0.00    -0.031 A 
ATOM     16  C   UNL     1       0.246   9.609  21.713  0.00  0.00    -0.054 A 
ATOM     17  C   UNL     1      -0.160  10.784  21.067  0.00  0.00    -0.024 A 
ATOM     18  C   UNL     1       0.239  10.919  19.732  0.00  0.00    +0.032 A 
ATOM     19  N   UNL     1       0.974  10.018  19.039  0.00  0.00    -0.250 NA
ATOM     20  H   UNL     1       1.321   7.741  21.536  0.00  0.00    +0.064 HD
ATOM     21  H   UNL     1      -0.011   9.408  22.750  0.00  0.00    +0.062 HD
ATOM     22  H   UNL     1      -0.030  11.801  19.153  0.00  0.00    +0.083 HD
BRANCH  17  23
ATOM     23  C   UNL     1      -0.974  11.888  21.757  0.00  0.00    -0.011 C 
BRANCH  23  24
ATOM     24  C   UNL     1      -2.160  12.286  20.852  0.00  0.00    -0.056 C 
ATOM     25  H   UNL     1      -1.858  12.327  19.798  0.00  0.00    +0.024 HD
ATOM     26  H   UNL     1      -2.562  13.272  21.110  0.00  0.00    +0.024 HD
ATOM     27  H   UNL     1      -2.981  11.563  20.934  0.00  0.00    +0.024 HD
ENDBRANCH  23  24
BRANCH  23  28
ATOM     28  C   UNL     1      -1.520  11.380  23.109  0.00  0.00    -0.056 C 
ATOM     29  H   UNL     1      -0.704  11.154  23.806  0.00  0.00    +0.024 HD
ATOM     30  H   UNL     1      -2.122  10.471  23.000  0.00  0.00    +0.024 HD
ATOM     31  H   UNL     1      -2.164  12.132  23.582  0.00  0.00    +0.024 HD
ENDBRANCH  23  28
BRANCH  23  32
ATOM     32  C   UNL     1      -0.162  13.170  22.046  0.00  0.00    -0.056 C 
ATOM     33  H   UNL     1       0.909  13.018  21.876  0.00  0.00    +0.024 HD
ATOM     34  H   UNL     1      -0.478  13.989  21.389  0.00  0.00    +0.024 HD
ATOM     35  H   UNL     1      -0.301  13.510  23.079  0.00  0.00    +0.024 HD
ENDBRANCH  23  32
ENDBRANCH  17  23
ENDBRANCH  11  14
ENDBRANCH   3  10
BRANCH   5  36
ATOM     36  C   UNL     1       2.914   1.978  18.540  0.00  0.00    +0.417 C 
ATOM     37  F   UNL     1       2.339   1.849  17.310  0.00  0.00    -0.166 F 
ATOM     38  F   UNL     1       3.811   0.957  18.633  0.00  0.00    -0.166 F 
ATOM     39  F   UNL     1       1.930   1.700  19.440  0.00  0.00    -0.166 F 
ENDBRANCH   5  36
BRANCH   1  40
ATOM     40  C   UNL     1       6.983   5.032  18.595  0.00  0.00    -0.012 C 
ATOM     41  H   UNL     1       7.466   4.053  18.470  0.00  0.00    +0.035 HD
BRANCH  40  42
ATOM     42  C   UNL     1       7.593   5.663  19.853  0.00  0.00    -0.058 C 
ATOM     43  H   UNL     1       7.137   6.637  20.059  0.00  0.00    +0.024 HD
ATOM     44  H   UNL     1       8.671   5.812  19.753  0.00  0.00    +0.024 HD
ATOM     45  H   UNL     1       7.425   5.030  20.732  0.00  0.00    +0.024 HD
ENDBRANCH  40  42
BRANCH  40  46
ATOM     46  C   UNL     1       7.249   5.870  17.327  0.00  0.00    +0.014 C 
ATOM     47  H   UNL     1       8.325   6.049  17.203  0.00  0.00    +0.035 HD
ATOM     48  H   UNL     1       6.792   6.864  17.429  0.00  0.00    +0.035 HD
BRANCH  46  49
ATOM     49  C   UNL     1       6.722   5.215  16.096  0.00  0.00    +0.134 A 
ATOM     50  N   UNL     1       7.176   4.109  15.544  0.00  0.00    -0.135 NA
ATOM     51  N   UNL     1       6.413   3.838  14.433  0.00  0.00    -0.138 NA
ATOM     52  C   UNL     1       5.516   4.786  14.327  0.00  0.00    +0.120 A 
ATOM     53  N   UNL     1       5.670   5.673  15.347  0.00  0.00    -0.320 N 
ATOM     54  H   UNL     1       4.763   4.866  13.555  0.00  0.00    +0.105 HD
BRANCH  53  55
ATOM     55  C   UNL     1       4.868   6.842  15.580  0.00  0.00    +0.014 C 
ATOM     56  H   UNL     1       3.825   6.592  15.370  0.00  0.00    +0.046 HD
ATOM     57  H   UNL     1       4.970   7.157  16.621  0.00  0.00    +0.046 HD
ATOM     58  H   UNL     1       5.207   7.644  14.923  0.00  0.00    +0.046 HD
ENDBRANCH  53  55
ENDBRANCH  46  49
ENDBRANCH  40  46
ENDBRANCH   1  40
TORSDOF 12
ENDMDL
MODEL 2
REMARK VINA RESULT:    -8.760      1.654      2.490
REMARK INTER + INTRA:         -13.127
REMARK INTER:                 -12.662
REMARK INTRA:                  -0.466
REMARK UNBOUND:                 0.498
REMARK  Name = 
REMARK  12 active torsions:
REMARK  status: ('A' for Active; 'I' for Inactive)
REMARK    1  A    between atoms: C_1  and  C_2
REMARK    2  A    between atoms: C_2  and  C_3
REMARK    3  A    between atoms: C_2  and  C_10
REMARK    4  A    between atoms: C_3  and  C_4
REMARK    5  A    between atoms: N_8  and  C_9
REMARK    6  A    between atoms: C_12  and  N_13
REMARK    7  A    between atoms: C_14  and  C_16
REMARK    8  A    between atoms: C_19  and  C_20
REMARK    9  A    between atoms: C_20  and  C_21
REMARK   10  A    between atoms: C_20  and  C_22
REMARK   11  A    between atoms: C_20  and  C_23
REMARK   12  A    between atoms: C_27  and  C_28
REMARK                            x       y       z     vdW  Elec       q    Type
REMARK                         _______ _______ _______ _____ _____    ______ ____
ROOT
ATOM      1  C   UNL     1       3.427   5.489  18.997  0.00  0.00    -0.042 A 
ATOM      2  C   UNL     1       2.696   6.593  19.466  0.00  0.00    -0.037 A 
ATOM      3  C   UNL     1       1.738   6.457  20.478  0.00  0.00    +0.035 A 
ATOM      4  C   UNL     1       1.508   5.197  21.030  0.00  0.00    -0.029 A 
ATOM      5  C   UNL     1       2.227   4.075  20.584  0.00  0.00    +0.057 A 
ATOM      6  C   UNL     1       3.179   4.231  19.564  0.00  0.00    -0.047 A 
ATOM      7  H   UNL     1       2.876   7.574  19.029  0.00  0.00    +0.064 HD
ATOM      8  H   UNL     1       0.770   5.055  21.815  0.00  0.00    +0.064 HD
ATOM      9  H   UNL     1       3.730   3.357  19.216  0.00  0.00    +0.063 HD
ENDROOT
BRANCH   3  10
ATOM     10  N   UNL     1       1.066   7.621  20.882  0.00  0.00    -0.280 N 
ATOM     11  C   UNL     1       1.000   8.844  20.242  0.00  0.00    +0.267 C 
ATOM     12  O   UNL     1       1.541   9.158  19.188  0.00  0.00    -0.268 OA
ATOM     13  H   UNL     1       0.550   7.596  21.759  0.00  0.00    +0.155 HD
BRANCH  11  14
ATOM     14  C   UNL     1       0.149   9.836  20.979  0.00  0.00    +0.126 A 
ATOM     15  C   UNL     1      -0.120   9.663  22.326  0.00  0.00    -0.031 A 
ATOM     16  C   UNL     1      -0.901  10.622  22.972  0.00  0.00    -0.054 A 
ATOM     17  C   UNL     1      -1.399  11.728  22.270  0.00  0.00    -0.024 A 
ATOM     18  C   UNL     1      -1.065  11.794  20.912  0.00  0.00    +0.032 A 
ATOM     19  N   UNL     1      -0.312  10.888  20.247  0.00  0.00    -0.250 NA
ATOM     20  H   UNL     1       0.269   8.806  22.867  0.00  0.00    +0.064 HD
ATOM     21  H   UNL     1      -1.102  10.477  24.030  0.00  0.00    +0.062 HD
ATOM     22  H   UNL     1      -1.408  12.619  20.290  0.00  0.00    +0.083 HD
BRANCH  17  23
ATOM     23  C   UNL     1      -2.245  12.830  22.924  0.00  0.00    -0.011 C 
BRANCH  23  24
ATOM     24  C   UNL     1      -2.940  13.659  21.822  0.00  0.00    -0.056 C 
ATOM     25  H   UNL     1      -2.302  13.754  20.935  0.00  0.00    +0.024 HD
ATOM     26  H   UNL     1      -3.177  14.674  22.158  0.00  0.00    +0.024 HD
ATOM     27  H   UNL     1      -3.879  13.188  21.506  0.00  0.00    +0.024 HD
ENDBRANCH  23  24
BRANCH  23  28
ATOM     28  C   UNL     1      -3.319  12.204  23.839  0.00  0.00    -0.056 C 
ATOM     29  H   UNL     1      -3.642  12.911  24.613  0.00  0.00    +0.024 HD
ATOM     30  H   UNL     1      -2.960  11.301  24.345  0.00  0.00    +0.024 HD
ATOM     31  H   UNL     1      -4.206  11.913  23.262  0.00  0.00    +0.024 HD
ENDBRANCH  23  28
BRANCH  23  32
ATOM     32  C   UNL     1      -1.423  13.811  23.791  0.00  0.00    -0.056 C 
ATOM     33  H   UNL     1      -0.346  13.679  23.641  0.00  0.00    +0.024 HD
ATOM     34  H   UNL     1      -1.658  14.851  23.533  0.00  0.00    +0.024 HD
ATOM     35  H   UNL     1      -1.640  13.683  24.858  0.00  0.00    +0.024 HD
ENDBRANCH  23  32
ENDBRANCH  17  23
ENDBRANCH  11  14
ENDBRANCH   3  10
BRANCH   5  36
ATOM     36  C   UNL     1       1.949   2.718  21.183  0.00  0.00    +0.417 C 
ATOM     37  F   UNL     1       0.892   2.719  22.044  0.00  0.00    -0.166 F 
ATOM     38  F   UNL     1       1.657   1.772  20.247  0.00  0.00    -0.166 F 
ATOM     39  F   UNL     1       3.006   2.235  21.894  0.00  0.00    -0.166 F 
ENDBRANCH   5  36
BRANCH   1  40
ATOM     40  C   UNL     1       4.470   5.682  17.904  0.00  0.00    -0.012 C 
ATOM     41  H   UNL     1       5.453   5.771  18.387  0.00  0.00    +0.035 HD
BRANCH  40  42
ATOM     42  C   UNL     1       4.234   6.993  17.145  0.00  0.00    -0.058 C 
ATOM     43  H   UNL     1       4.126   6.806  16.071  0.00  0.00    +0.024 HD
ATOM     44  H   UNL     1       5.060   7.697  17.279  0.00  0.00    +0.024 HD
ATOM     45  H   UNL     1       3.318   7.487  17.486  0.00  0.00    +0.024 HD
ENDBRANCH  40  42
BRANCH  40  46
ATOM     46  C   UNL     1       4.499   4.455  16.968  0.00  0.00    +0.014 C 
ATOM     47  H   UNL     1       3.523   4.316  16.486  0.00  0.00    +0.035 HD
ATOM     48  H   UNL     1       4.676   3.541  17.551  0.00  0.00    +0.035 HD
BRANCH  46  49
ATOM     49  C   UNL     1       5.548   4.572  15.914  0.00  0.00    +0.134 A 
ATOM     50  N   UNL     1       5.344   4.646  14.616  0.00  0.00    -0.135 NA
ATOM     51  N   UNL     1       6.566   4.754  13.995  0.00  0.00    -0.138 NA
ATOM     52  C   UNL     1       7.487   4.735  14.925  0.00  0.00    +0.120 A 
ATOM     53  N   UNL     1       6.897   4.623  16.145  0.00  0.00    -0.320 N 
ATOM     54  H   UNL     1       8.554   4.800  14.765  0.00  0.00    +0.105 HD
BRANCH  53  55
ATOM     55  C   UNL     1       7.573   4.582  17.413  0.00  0.00    +0.014 C 
ATOM     56  H   UNL     1       8.609   4.895  17.260  0.00  0.00    +0.046 HD
ATOM     57  H   UNL     1       7.082   5.259  18.115  0.00  0.00    +0.046 HD
ATOM     58  H   UNL     1       7.537   3.564  17.804  0.00  0.00    +0.046 HD
ENDBRANCH  53  55
ENDBRANCH  46  49
ENDBRANCH  40  46
ENDBRANCH   1  40
TORSDOF 12
ENDMDL
MODEL 3
REMARK VINA RESULT:    -8.527      1.534      2.685
REMARK INTER + INTRA:         -12.765
REMARK INTER:                 -11.885
REMARK INTRA:                  -0.880
REMARK UNBOUND:                 0.498
REMARK  Name = 
REMARK  12 active torsions:
REMARK  status: ('A' for Active; 'I' for Inactive)
REMARK    1  A    between atoms: C_1  and  C_2
REMARK    2  A    between atoms: C_2  and  C_3
REMARK    3  A    between atoms: C_2  and  C_10
REMARK    4  A    between atoms: C_3  and  C_4
REMARK    5  A    between atoms: N_8  and  C_9
REMARK    6  A    between atoms: C_12  and  N_13
REMARK    7  A    between atoms: C_14  and  C_16
REMARK    8  A    between atoms: C_19  and  C_20
REMARK    9  A    between atoms: C_20  and  C_21
REMARK   10  A    between atoms: C_20  and  C_22
REMARK   11  A    between atoms: C_20  and  C_23
REMARK   12  A    between atoms: C_27  and  C_28
REMARK                            x       y       z     vdW  Elec       q    Type
REMARK                         _______ _______ _______ _____ _____    ______ ____
ROOT
ATOM      1  C   UNL     1       4.292   5.066  17.176  0.00  0.00    -0.042 A 
ATOM      2  C   UNL     1       3.647   6.188  17.721  0.00  0.00    -0.037 A 
ATOM      3  C   UNL     1       2.580   6.053  18.617  0.00  0.00    +0.035 A 
ATOM      4  C   UNL     1       2.151   4.775  18.974  0.00  0.00    -0.029 A 
ATOM      5  C   UNL     1       2.780   3.633  18.449  0.00  0.00    +0.057 A 
ATOM      6  C   UNL     1       3.844   3.790  17.547  0.00  0.00    -0.047 A 
ATOM      7  H   UNL     1       3.983   7.184  17.437  0.00  0.00    +0.064 HD
ATOM      8  H   UNL     1       1.324   4.634  19.665  0.00  0.00    +0.064 HD
ATOM      9  H   UNL     1       4.325   2.902  17.136  0.00  0.00    +0.063 HD
ENDROOT
BRANCH   3  10
ATOM     10  N   UNL     1       2.007   7.236  19.111  0.00  0.00    -0.280 N 
ATOM     11  C   UNL     1       1.896   8.465  18.489  0.00  0.00    +0.267 C 
ATOM     12  O   UNL     1       2.300   8.768  17.372  0.00  0.00    -0.268 OA
ATOM     13  H   UNL     1       1.614   7.221  20.050  0.00  0.00    +0.155 HD
BRANCH  11  14
ATOM     14  C   UNL     1       1.186   9.479  19.337  0.00  0.00    +0.126 A 
ATOM     15  C   UNL     1       0.894   9.202  20.662  0.00  0.00    -0.031 A 
ATOM     16  C   UNL     1       0.248  10.183  21.414  0.00  0.00    -0.054 A 
ATOM     17  C   UNL     1      -0.095  11.414  20.839  0.00  0.00    -0.024 A 
ATOM     18  C   UNL     1       0.246  11.577  19.491  0.00  0.00    +0.032 A 
ATOM     19  N   UNL     1       0.872  10.654  18.725  0.00  0.00    -0.250 NA
ATOM     20  H   UNL     1       1.163   8.248  21.105  0.00  0.00    +0.064 HD
ATOM     21  H   UNL     1       0.028   9.956  22.454  0.00  0.00    +0.062 HD
ATOM     22  H   UNL     1       0.019  12.502  18.964  0.00  0.00    +0.083 HD
BRANCH  17  23
ATOM     23  C   UNL     1      -0.786  12.544  21.616  0.00  0.00    -0.011 C 
BRANCH  23  24
ATOM     24  C   UNL     1       0.225  13.688  21.854  0.00  0.00    -0.056 C 
ATOM     25  H   UNL     1       0.784  13.535  22.785  0.00  0.00    +0.024 HD
ATOM     26  H   UNL     1      -0.268  14.663  21.931  0.00  0.00    +0.024 HD
ATOM     27  H   UNL     1       0.953  13.749  21.036  0.00  0.00    +0.024 HD
ENDBRANCH  23  24
BRANCH  23  28
ATOM     28  C   UNL     1      -1.984  13.089  20.809  0.00  0.00    -0.056 C 
ATOM     29  H   UNL     1      -2.555  13.820  21.393  0.00  0.00    +0.024 HD
ATOM     30  H   UNL     1      -2.676  12.296  20.506  0.00  0.00    +0.024 HD
ATOM     31  H   UNL     1      -1.647  13.585  19.890  0.00  0.00    +0.024 HD
ENDBRANCH  23  28
BRANCH  23  32
ATOM     32  C   UNL     1      -1.325  12.109  22.997  0.00  0.00    -0.056 C 
ATOM     33  H   UNL     1      -2.232  12.661  23.269  0.00  0.00    +0.024 HD
ATOM     34  H   UNL     1      -1.587  11.045  22.997  0.00  0.00    +0.024 HD
ATOM     35  H   UNL     1      -0.580  12.262  23.786  0.00  0.00    +0.024 HD
ENDBRANCH  23  32
ENDBRANCH  17  23
ENDBRANCH  11  14
ENDBRANCH   3  10
BRANCH   5  36
ATOM     36  C   UNL     1       2.287   2.260  18.834  0.00  0.00    +0.417 C 
ATOM     37  F   UNL     1       2.152   2.098  20.181  0.00  0.00    -0.166 F 
ATOM     38  F   UNL     1       1.067   1.962  18.306  0.00  0.00    -0.166 F 
ATOM     39  F   UNL     1       3.129   1.270  18.425  0.00  0.00    -0.166 F 
ENDBRANCH   5  36
BRANCH   1  40
ATOM     40  C   UNL     1       5.459   5.256  16.215  0.00  0.00    -0.012 C 
ATOM     41  H   UNL     1       5.418   6.285  15.833  0.00  0.00    +0.035 HD
BRANCH  40  42
ATOM     42  C   UNL     1       5.326   4.330  15.000  0.00  0.00    -0.058 C 
ATOM     43  H   UNL     1       5.135   3.299  15.315  0.00  0.00    +0.024 HD
ATOM     44  H   UNL     1       6.231   4.330  14.386  0.00  0.00    +0.024 HD
ATOM     45  H   UNL     1       4.491   4.638  14.360  0.00  0.00    +0.024 HD
ENDBRANCH  40  42
BRANCH  40  46
ATOM     46  C   UNL     1       6.799   5.066  16.957  0.00  0.00    +0.014 C 
ATOM     47  H   UNL     1       7.536   4.583  16.303  0.00  0.00    +0.035 HD
ATOM     48  H   UNL     1       6.665   4.386  17.809  0.00  0.00    +0.035 HD
BRANCH  46  49
ATOM     49  C   UNL     1       7.361   6.358  17.448  0.00  0.00    +0.134 A 
ATOM     50  N   UNL     1       7.369   7.503  16.798  0.00  0.00    -0.135 NA
ATOM     51  N   UNL     1       7.968   8.447  17.598  0.00  0.00    -0.138 NA
ATOM     52  C   UNL     1       8.319   7.857  18.713  0.00  0.00    +0.120 A 
ATOM     53  N   UNL     1       7.959   6.546  18.666  0.00  0.00    -0.320 N 
ATOM     54  H   UNL     1       8.816   8.325  19.551  0.00  0.00    +0.105 HD
BRANCH  53  55
ATOM     55  C   UNL     1       8.163   5.574  19.704  0.00  0.00    +0.014 C 
ATOM     56  H   UNL     1       8.222   4.585  19.243  0.00  0.00    +0.046 HD
ATOM     57  H   UNL     1       9.092   5.791  20.235  0.00  0.00    +0.046 HD
ATOM     58  H   UNL     1       7.327   5.618  20.404  0.00  0.00    +0.046 HD
ENDBRANCH  53  55
ENDBRANCH  46  49
ENDBRANCH  40  46
ENDBRANCH   1  40
TORSDOF 12
ENDMDL
MODEL 4
REMARK VINA RESULT:    -8.247      1.411      1.996
REMARK INTER + INTRA:         -12.330
REMARK INTER:                 -11.981
REMARK INTRA:                  -0.349
REMARK UNBOUND:                 0.498
REMARK  Name = 
REMARK  12 active torsions:
REMARK  status: ('A' for Active; 'I' for Inactive)
REMARK    1  A    between atoms: C_1  and  C_2
REMARK    2  A    between atoms: C_2  and  C_3
REMARK    3  A    between atoms: C_2  and  C_10
REMARK    4  A    between atoms: C_3  and  C_4
REMARK    5  A    between atoms: N_8  and  C_9
REMARK    6  A    between atoms: C_12  and  N_13
REMARK    7  A    between atoms: C_14  and  C_16
REMARK    8  A    between atoms: C_19  and  C_20
REMARK    9  A    between atoms: C_20  and  C_21
REMARK   10  A    between atoms: C_20  and  C_22
REMARK   11  A    between atoms: C_20  and  C_23
REMARK   12  A    between atoms: C_27  and  C_28
REMARK                            x       y       z     vdW  Elec       q    Type
REMARK                         _______ _______ _______ _____ _____    ______ ____
ROOT
ATOM      1  C   UNL     1       4.323   5.010  17.176  0.00  0.00    -0.042 A 
ATOM      2  C   UNL     1       3.646   6.103  17.742  0.00  0.00    -0.037 A 
ATOM      3  C   UNL     1       2.613   5.922  18.669  0.00  0.00    +0.035 A 
ATOM      4  C   UNL     1       2.249   4.626  19.035  0.00  0.00    -0.029 A 
ATOM      5  C   UNL     1       2.911   3.513  18.490  0.00  0.00    +0.057 A 
ATOM      6  C   UNL     1       3.941   3.716  17.558  0.00  0.00    -0.047 A 
ATOM      7  H   UNL     1       3.931   7.113  17.450  0.00  0.00    +0.064 HD
ATOM      8  H   UNL     1       1.450   4.449  19.750  0.00  0.00    +0.064 HD
ATOM      9  H   UNL     1       4.447   2.850  17.131  0.00  0.00    +0.063 HD
ENDROOT
BRANCH   3  10
ATOM     10  N   UNL     1       2.004   7.079  19.182  0.00  0.00    -0.280 N 
ATOM     11  C   UNL     1       1.901   8.328  18.600  0.00  0.00    +0.267 C 
ATOM     12  O   UNL     1       2.345   8.678  17.512  0.00  0.00    -0.268 OA
ATOM     13  H   UNL     1       1.574   7.025  20.102  0.00  0.00    +0.155 HD
BRANCH  11  14
ATOM     14  C   UNL     1       1.143   9.301  19.455  0.00  0.00    +0.126 A 
ATOM     15  C   UNL     1       0.839   8.989  20.768  0.00  0.00    -0.031 A 
ATOM     16  C   UNL     1       0.148   9.934  21.528  0.00  0.00    -0.054 A 
ATOM     17  C   UNL     1      -0.226  11.164  20.971  0.00  0.00    -0.024 A 
ATOM     18  C   UNL     1       0.132  11.365  19.633  0.00  0.00    +0.032 A 
ATOM     19  N   UNL     1       0.801  10.478  18.859  0.00  0.00    -0.250 NA
ATOM     20  H   UNL     1       1.131   8.037  21.198  0.00  0.00    +0.064 HD
ATOM     21  H   UNL     1      -0.082   9.680  22.560  0.00  0.00    +0.062 HD
ATOM     22  H   UNL     1      -0.116  12.292  19.119  0.00  0.00    +0.083 HD
BRANCH  17  23
ATOM     23  C   UNL     1      -0.966  12.256  21.756  0.00  0.00    -0.011 C 
BRANCH  23  24
ATOM     24  C   UNL     1      -2.190  12.728  20.941  0.00  0.00    -0.056 C 
ATOM     25  H   UNL     1      -2.799  11.878  20.612  0.00  0.00    +0.024 HD
ATOM     26  H   UNL     1      -1.897  13.281  20.042  0.00  0.00    +0.024 HD
ATOM     27  H   UNL     1      -2.833  13.387  21.538  0.00  0.00    +0.024 HD
ENDBRANCH  23  24
BRANCH  23  28
ATOM     28  C   UNL     1      -1.448  11.700  23.114  0.00  0.00    -0.056 C 
ATOM     29  H   UNL     1      -2.318  11.045  22.988  0.00  0.00    +0.024 HD
ATOM     30  H   UNL     1      -1.732  12.496  23.812  0.00  0.00    +0.024 HD
ATOM     31  H   UNL     1      -0.658  11.116  23.603  0.00  0.00    +0.024 HD
ENDBRANCH  23  28
BRANCH  23  32
ATOM     32  C   UNL     1      -0.101  13.501  22.055  0.00  0.00    -0.056 C 
ATOM     33  H   UNL     1      -0.348  13.942  23.027  0.00  0.00    +0.024 HD
ATOM     34  H   UNL     1       0.963  13.239  22.083  0.00  0.00    +0.024 HD
ATOM     35  H   UNL     1      -0.227  14.271  21.285  0.00  0.00    +0.024 HD
ENDBRANCH  23  32
ENDBRANCH  17  23
ENDBRANCH  11  14
ENDBRANCH   3  10
BRANCH   5  36
ATOM     36  C   UNL     1       2.489   2.120  18.887  0.00  0.00    +0.417 C 
ATOM     37  F   UNL     1       3.374   1.160  18.493  0.00  0.00    -0.166 F 
ATOM     38  F   UNL     1       2.358   1.965  20.234  0.00  0.00    -0.166 F 
ATOM     39  F   UNL     1       1.292   1.763  18.346  0.00  0.00    -0.166 F 
ENDBRANCH   5  36
BRANCH   1  40
ATOM     40  C   UNL     1       5.451   5.251  16.183  0.00  0.00    -0.012 C 
ATOM     41  H   UNL     1       6.389   5.334  16.749  0.00  0.00    +0.035 HD
BRANCH  40  42
ATOM     42  C   UNL     1       5.262   6.584  15.449  0.00  0.00    -0.058 C 
ATOM     43  H   UNL     1       6.104   7.257  15.643  0.00  0.00    +0.024 HD
ATOM     44  H   UNL     1       4.347   7.095  15.760  0.00  0.00    +0.024 HD
ATOM     45  H   UNL     1       5.206   6.432  14.365  0.00  0.00    +0.024 HD
ENDBRANCH  40  42
BRANCH  40  46
ATOM     46  C   UNL     1       5.576   4.056  15.213  0.00  0.00    +0.014 C 
ATOM     47  H   UNL     1       4.585   3.739  14.864  0.00  0.00    +0.035 HD
ATOM     48  H   UNL     1       5.998   3.188  15.738  0.00  0.00    +0.035 HD
BRANCH  46  49
ATOM     49  C   UNL     1       6.428   4.373  14.031  0.00  0.00    +0.134 A 
ATOM     50  N   UNL     1       7.533   5.088  14.035  0.00  0.00    -0.135 NA
ATOM     51  N   UNL     1       8.019   5.136  12.750  0.00  0.00    -0.138 NA
ATOM     52  C   UNL     1       7.197   4.457  11.990  0.00  0.00    +0.120 A 
ATOM     53  N   UNL     1       6.184   3.959  12.748  0.00  0.00    -0.320 N 
ATOM     54  H   UNL     1       7.295   4.304  10.924  0.00  0.00    +0.105 HD
BRANCH  53  55
ATOM     55  C   UNL     1       5.093   3.150  12.279  0.00  0.00    +0.014 C 
ATOM     56  H   UNL     1       5.506   2.262  11.795  0.00  0.00    +0.046 HD
ATOM     57  H   UNL     1       4.464   2.854  13.121  0.00  0.00    +0.046 HD
ATOM     58  H   UNL     1       4.500   3.729  11.569  0.00  0.00    +0.046 HD
ENDBRANCH  53  55
ENDBRANCH  46  49
ENDBRANCH  40  46
ENDBRANCH   1  40
TORSDOF 12
ENDMDL
MODEL 5
REMARK VINA RESULT:    -8.219      1.530      2.204
REMARK INTER + INTRA:         -12.286
REMARK INTER:                 -11.283
REMARK INTRA:                  -1.004
REMARK UNBOUND:                 0.498
REMARK  Name = 
REMARK  12 active torsions:
REMARK  status: ('A' for Active; 'I' for Inactive)
REMARK    1  A    between atoms: C_1  and  C_2
REMARK    2  A    between atoms: C_2  and  C_3
REMARK    3  A    between atoms: C_2  and  C_10
REMARK    4  A    between atoms: C_3  and  C_4
REMARK    5  A    between atoms: N_8  and  C_9
REMARK    6  A    between atoms: C_12  and  N_13
REMARK    7  A    between atoms: C_14  and  C_16
REMARK    8  A    between atoms: C_19  and  C_20
REMARK    9  A    between atoms: C_20  and  C_21
REMARK   10  A    between atoms: C_20  and  C_22
REMARK   11  A    between atoms: C_20  and  C_23
REMARK   12  A    between atoms: C_27  and  C_28
REMARK                            x       y       z     vdW  Elec       q    Type
REMARK                         _______ _______ _______ _____ _____    ______ ____
ROOT
ATOM      1  C   UNL     1       5.192   4.668  17.384  0.00  0.00    -0.042 A 
ATOM      2  C   UNL     1       4.491   5.837  17.721  0.00  0.00    -0.037 A 
ATOM      3  C   UNL     1       3.222   5.783  18.311  0.00  0.00    +0.035 A 
ATOM      4  C   UNL     1       2.645   4.539  18.566  0.00  0.00    -0.029 A 
ATOM      5  C   UNL     1       3.325   3.352  18.243  0.00  0.00    +0.057 A 
ATOM      6  C   UNL     1       4.594   3.428  17.648  0.00  0.00    -0.047 A 
ATOM      7  H   UNL     1       4.944   6.806  17.517  0.00  0.00    +0.064 HD
ATOM      8  H   UNL     1       1.660   4.460  19.020  0.00  0.00    +0.064 HD
ATOM      9  H   UNL     1       5.115   2.505  17.393  0.00  0.00    +0.063 HD
ENDROOT
BRANCH   3  10
ATOM     10  N   UNL     1       2.607   7.007  18.617  0.00  0.00    -0.280 N 
ATOM     11  C   UNL     1       1.956   7.377  19.778  0.00  0.00    +0.267 C 
ATOM     12  O   UNL     1       1.773   6.690  20.777  0.00  0.00    -0.268 OA
ATOM     13  H   UNL     1       2.621   7.740  17.911  0.00  0.00    +0.155 HD
BRANCH  11  14
ATOM     14  C   UNL     1       1.456   8.792  19.734  0.00  0.00    +0.126 A 
ATOM     15  C   UNL     1       1.504   9.514  18.554  0.00  0.00    -0.031 A 
ATOM     16  C   UNL     1       1.012  10.819  18.558  0.00  0.00    -0.054 A 
ATOM     17  C   UNL     1       0.485  11.380  19.729  0.00  0.00    -0.024 A 
ATOM     18  C   UNL     1       0.493  10.556  20.861  0.00  0.00    +0.032 A 
ATOM     19  N   UNL     1       0.960   9.287  20.902  0.00  0.00    -0.250 NA
ATOM     20  H   UNL     1       1.911   9.077  17.648  0.00  0.00    +0.064 HD
ATOM     21  H   UNL     1       1.050  11.375  17.625  0.00  0.00    +0.062 HD
ATOM     22  H   UNL     1       0.102  10.909  21.814  0.00  0.00    +0.083 HD
BRANCH  17  23
ATOM     23  C   UNL     1      -0.094  12.800  19.798  0.00  0.00    -0.011 C 
BRANCH  23  24
ATOM     24  C   UNL     1      -1.477  12.753  20.483  0.00  0.00    -0.056 C 
ATOM     25  H   UNL     1      -1.867  11.728  20.519  0.00  0.00    +0.024 HD
ATOM     26  H   UNL     1      -2.220  13.361  19.954  0.00  0.00    +0.024 HD
ATOM     27  H   UNL     1      -1.421  13.123  21.514  0.00  0.00    +0.024 HD
ENDBRANCH  23  24
BRANCH  23  28
ATOM     28  C   UNL     1       0.842  13.718  20.613  0.00  0.00    -0.056 C 
ATOM     29  H   UNL     1       0.671  14.774  20.373  0.00  0.00    +0.024 HD
ATOM     30  H   UNL     1       1.901  13.504  20.426  0.00  0.00    +0.024 HD
ATOM     31  H   UNL     1       0.678  13.590  21.691  0.00  0.00    +0.024 HD
ENDBRANCH  23  28
BRANCH  23  32
ATOM     32  C   UNL     1      -0.287  13.460  18.413  0.00  0.00    -0.056 C 
ATOM     33  H   UNL     1      -0.818  12.798  17.720  0.00  0.00    +0.024 HD
ATOM     34  H   UNL     1      -0.879  14.379  18.498  0.00  0.00    +0.024 HD
ATOM     35  H   UNL     1       0.674  13.732  17.961  0.00  0.00    +0.024 HD
ENDBRANCH  23  32
ENDBRANCH  17  23
ENDBRANCH  11  14
ENDBRANCH   3  10
BRANCH   5  36
ATOM     36  C   UNL     1       2.674   2.017  18.511  0.00  0.00    +0.417 C 
ATOM     37  F   UNL     1       3.516   0.962  18.318  0.00  0.00    -0.166 F 
ATOM     38  F   UNL     1       2.220   1.892  19.790  0.00  0.00    -0.166 F 
ATOM     39  F   UNL     1       1.602   1.788  17.704  0.00  0.00    -0.166 F 
ENDBRANCH   5  36
BRANCH   1  40
ATOM     40  C   UNL     1       6.577   4.771  16.758  0.00  0.00    -0.012 C 
ATOM     41  H   UNL     1       6.902   3.757  16.486  0.00  0.00    +0.035 HD
BRANCH  40  42
ATOM     42  C   UNL     1       7.599   5.302  17.770  0.00  0.00    -0.058 C 
ATOM     43  H   UNL     1       7.187   5.283  18.785  0.00  0.00    +0.024 HD
ATOM     44  H   UNL     1       7.895   6.331  17.549  0.00  0.00    +0.024 HD
ATOM     45  H   UNL     1       8.507   4.689  17.772  0.00  0.00    +0.024 HD
ENDBRANCH  40  42
BRANCH  40  46
ATOM     46  C   UNL     1       6.522   5.623  15.473  0.00  0.00    +0.014 C 
ATOM     47  H   UNL     1       7.409   6.265  15.398  0.00  0.00    +0.035 HD
ATOM     48  H   UNL     1       5.662   6.306  15.510  0.00  0.00    +0.035 HD
BRANCH  46  49
ATOM     49  C   UNL     1       6.426   4.786  14.242  0.00  0.00    +0.134 A 
ATOM     50  N   UNL     1       5.517   3.867  13.993  0.00  0.00    -0.135 NA
ATOM     51  N   UNL     1       5.773   3.334  12.752  0.00  0.00    -0.138 NA
ATOM     52  C   UNL     1       6.835   3.933  12.275  0.00  0.00    +0.120 A 
ATOM     53  N   UNL     1       7.280   4.851  13.173  0.00  0.00    -0.320 N 
ATOM     54  H   UNL     1       7.298   3.740  11.317  0.00  0.00    +0.105 HD
BRANCH  53  55
ATOM     55  C   UNL     1       8.415   5.718  13.008  0.00  0.00    +0.014 C 
ATOM     56  H   UNL     1       9.296   5.098  12.825  0.00  0.00    +0.046 HD
ATOM     57  H   UNL     1       8.249   6.385  12.160  0.00  0.00    +0.046 HD
ATOM     58  H   UNL     1       8.547   6.310  13.915  0.00  0.00    +0.046 HD
ENDBRANCH  53  55
ENDBRANCH  46  49
ENDBRANCH  40  46
ENDBRANCH   1  40
TORSDOF 12
ENDMDL
MODEL 6
REMARK VINA RESULT:    -8.216      1.799      2.897
REMARK INTER + INTRA:         -12.282
REMARK INTER:                 -11.329
REMARK INTRA:                  -0.952
REMARK UNBOUND:                 0.498
REMARK  Name = 
REMARK  12 active torsions:
REMARK  status: ('A' for Active; 'I' for Inactive)
REMARK    1  A    between atoms: C_1  and  C_2
REMARK    2  A    between atoms: C_2  and  C_3
REMARK    3  A    between atoms: C_2  and  C_10
REMARK    4  A    between atoms: C_3  and  C_4
REMARK    5  A    between atoms: N_8  and  C_9
REMARK    6  A    between atoms: C_12  and  N_13
REMARK    7  A    between atoms: C_14  and  C_16
REMARK    8  A    between atoms: C_19  and  C_20
REMARK    9  A    between atoms: C_20  and  C_21
REMARK   10  A    between atoms: C_20  and  C_22
REMARK   11  A    between atoms: C_20  and  C_23
REMARK   12  A    between atoms: C_27  and  C_28
REMARK                            x       y       z     vdW  Elec       q    Type
REMARK                         _______ _______ _______ _____ _____    ______ ____
ROOT
ATOM      1  C   UNL     1       3.843   5.144  18.172  0.00  0.00    -0.042 A 
ATOM      2  C   UNL     1       3.303   6.390  18.530  0.00  0.00    -0.037 A 
ATOM      3  C   UNL     1       2.357   6.507  19.556  0.00  0.00    +0.035 A 
ATOM      4  C   UNL     1       1.945   5.360  20.234  0.00  0.00    -0.029 A 
ATOM      5  C   UNL     1       2.472   4.101  19.901  0.00  0.00    +0.057 A 
ATOM      6  C   UNL     1       3.415   4.004  18.865  0.00  0.00    -0.047 A 
ATOM      7  H   UNL     1       3.624   7.282  17.996  0.00  0.00    +0.064 HD
ATOM      8  H   UNL     1       1.210   5.415  21.033  0.00  0.00    +0.064 HD
ATOM      9  H   UNL     1       3.816   3.024  18.605  0.00  0.00    +0.063 HD
ENDROOT
BRANCH   3  10
ATOM     10  N   UNL     1       1.882   7.797  19.843  0.00  0.00    -0.280 N 
ATOM     11  C   UNL     1       1.563   8.813  18.963  0.00  0.00    +0.267 C 
ATOM     12  O   UNL     1       1.651   8.789  17.740  0.00  0.00    -0.268 OA
ATOM     13  H   UNL     1       1.745   8.050  20.819  0.00  0.00    +0.155 HD
BRANCH  11  14
ATOM     14  C   UNL     1       1.054  10.041  19.659  0.00  0.00    +0.126 A 
ATOM     15  C   UNL     1       0.374   9.933  20.860  0.00  0.00    -0.031 A 
ATOM     16  C   UNL     1      -0.064  11.104  21.478  0.00  0.00    -0.054 A 
ATOM     17  C   UNL     1       0.179  12.354  20.893  0.00  0.00    -0.024 A 
ATOM     18  C   UNL     1       0.871  12.338  19.677  0.00  0.00    +0.032 A 
ATOM     19  N   UNL     1       1.314  11.228  19.043  0.00  0.00    -0.250 NA
ATOM     20  H   UNL     1       0.189   8.964  21.312  0.00  0.00    +0.064 HD
ATOM     21  H   UNL     1      -0.593  11.008  22.423  0.00  0.00    +0.062 HD
ATOM     22  H   UNL     1       1.104  13.264  19.152  0.00  0.00    +0.083 HD
BRANCH  17  23
ATOM     23  C   UNL     1      -0.255  13.682  21.531  0.00  0.00    -0.011 C 
BRANCH  23  24
ATOM     24  C   UNL     1      -0.948  13.396  22.881  0.00  0.00    -0.056 C 
ATOM     25  H   UNL     1      -1.661  14.189  23.137  0.00  0.00    +0.024 HD
ATOM     26  H   UNL     1      -0.231  13.329  23.706  0.00  0.00    +0.024 HD
ATOM     27  H   UNL     1      -1.502  12.449  22.849  0.00  0.00    +0.024 HD
ENDBRANCH  23  24
BRANCH  23  28
ATOM     28  C   UNL     1       0.975  14.582  21.775  0.00  0.00    -0.056 C 
ATOM     29  H   UNL     1       0.773  15.619  21.483  0.00  0.00    +0.024 HD
ATOM     30  H   UNL     1       1.854  14.246  21.214  0.00  0.00    +0.024 HD
ATOM     31  H   UNL     1       1.257  14.583  22.836  0.00  0.00    +0.024 HD
ENDBRANCH  23  28
BRANCH  23  32
ATOM     32  C   UNL     1      -1.247  14.492  20.666  0.00  0.00    -0.056 C 
ATOM     33  H   UNL     1      -0.738  15.012  19.846  0.00  0.00    +0.024 HD
ATOM     34  H   UNL     1      -1.996  13.833  20.211  0.00  0.00    +0.024 HD
ATOM     35  H   UNL     1      -1.787  15.236  21.262  0.00  0.00    +0.024 HD
ENDBRANCH  23  32
ENDBRANCH  17  23
ENDBRANCH  11  14
ENDBRANCH   3  10
BRANCH   5  36
ATOM     36  C   UNL     1       1.999   2.870  20.635  0.00  0.00    +0.417 C 
ATOM     37  F   UNL     1       0.778   3.033  21.221  0.00  0.00    -0.166 F 
ATOM     38  F   UNL     1       1.873   1.781  19.827  0.00  0.00    -0.166 F 
ATOM     39  F   UNL     1       2.845   2.503  21.637  0.00  0.00    -0.166 F 
ENDBRANCH   5  36
BRANCH   1  40
ATOM     40  C   UNL     1       4.881   5.062  17.060  0.00  0.00    -0.012 C 
ATOM     41  H   UNL     1       4.872   6.016  16.517  0.00  0.00    +0.035 HD
BRANCH  40  42
ATOM     42  C   UNL     1       4.512   3.975  16.044  0.00  0.00    -0.058 C 
ATOM     43  H   UNL     1       4.535   2.983  16.509  0.00  0.00    +0.024 HD
ATOM     44  H   UNL     1       5.200   3.960  15.194  0.00  0.00    +0.024 HD
ATOM     45  H   UNL     1       3.501   4.130  15.650  0.00  0.00    +0.024 HD
ENDBRANCH  40  42
BRANCH  40  46
ATOM     46  C   UNL     1       6.290   4.857  17.657  0.00  0.00    +0.014 C 
ATOM     47  H   UNL     1       6.880   4.180  17.027  0.00  0.00    +0.035 HD
ATOM     48  H   UNL     1       6.216   4.363  18.636  0.00  0.00    +0.035 HD
BRANCH  46  49
ATOM     49  C   UNL     1       7.030   6.142  17.814  0.00  0.00    +0.134 A 
ATOM     50  N   UNL     1       6.966   7.183  17.009  0.00  0.00    -0.135 NA
ATOM     51  N   UNL     1       7.789   8.164  17.510  0.00  0.00    -0.138 NA
ATOM     52  C   UNL     1       8.342   7.699  18.602  0.00  0.00    +0.120 A 
ATOM     53  N   UNL     1       7.896   6.435  18.834  0.00  0.00    -0.320 N 
ATOM     54  H   UNL     1       9.043   8.226  19.233  0.00  0.00    +0.105 HD
BRANCH  53  55
ATOM     55  C   UNL     1       8.264   5.598  19.941  0.00  0.00    +0.014 C 
ATOM     56  H   UNL     1       9.126   6.047  20.441  0.00  0.00    +0.046 HD
ATOM     57  H   UNL     1       7.429   5.523  20.641  0.00  0.00    +0.046 HD
ATOM     58  H   UNL     1       8.515   4.603  19.569  0.00  0.00    +0.046 HD
ENDBRANCH  53  55
ENDBRANCH  46  49
ENDBRANCH  40  46
ENDBRANCH   1  40
TORSDOF 12
ENDMDL
MODEL 7
REMARK VINA RESULT:    -8.064      4.289     10.133
REMARK INTER + INTRA:         -12.045
REMARK INTER:                 -10.694
REMARK INTRA:                  -1.351
REMARK UNBOUND:                 0.498
REMARK  Name = 
REMARK  12 active torsions:
REMARK  status: ('A' for Active; 'I' for Inactive)
REMARK    1  A    between atoms: C_1  and  C_2
REMARK    2  A    between atoms: C_2  and  C_3
REMARK    3  A    between atoms: C_2  and  C_10
REMARK    4  A    between atoms: C_3  and  C_4
REMARK    5  A    between atoms: N_8  and  C_9
REMARK    6  A    between atoms: C_12  and  N_13
REMARK    7  A    between atoms: C_14  and  C_16
REMARK    8  A    between atoms: C_19  and  C_20
REMARK    9  A    between atoms: C_20  and  C_21
REMARK   10  A    between atoms: C_20  and  C_22
REMARK   11  A    between atoms: C_20  and  C_23
REMARK   12  A    between atoms: C_27  and  C_28
REMARK                            x       y       z     vdW  Elec       q    Type
REMARK                         _______ _______ _______ _____ _____    ______ ____
ROOT
ATOM      1  C   UNL     1      -0.664  12.636  19.668  0.00  0.00    -0.042 A 
ATOM      2  C   UNL     1       0.226  11.576  19.434  0.00  0.00    -0.037 A 
ATOM      3  C   UNL     1      -0.175  10.425  18.746  0.00  0.00    +0.035 A 
ATOM      4  C   UNL     1      -1.487  10.332  18.284  0.00  0.00    -0.029 A 
ATOM      5  C   UNL     1      -2.399  11.380  18.498  0.00  0.00    +0.057 A 
ATOM      6  C   UNL     1      -1.980  12.523  19.196  0.00  0.00    -0.047 A 
ATOM      7  H   UNL     1       1.249  11.651  19.800  0.00  0.00    +0.064 HD
ATOM      8  H   UNL     1      -1.832   9.452  17.748  0.00  0.00    +0.064 HD
ATOM      9  H   UNL     1      -2.692  13.330  19.366  0.00  0.00    +0.063 HD
ENDROOT
BRANCH   3  10
ATOM     10  N   UNL     1       0.792   9.424  18.557  0.00  0.00    -0.280 N 
ATOM     11  C   UNL     1       1.415   8.638  19.508  0.00  0.00    +0.267 C 
ATOM     12  O   UNL     1       1.252   8.676  20.723  0.00  0.00    -0.268 OA
ATOM     13  H   UNL     1       1.098   9.227  17.607  0.00  0.00    +0.155 HD
BRANCH  11  14
ATOM     14  C   UNL     1       2.372   7.652  18.905  0.00  0.00    +0.126 A 
ATOM     15  C   UNL     1       3.074   7.972  17.755  0.00  0.00    -0.031 A 
ATOM     16  C   UNL     1       3.965   7.029  17.242  0.00  0.00    -0.054 A 
ATOM     17  C   UNL     1       4.141   5.793  17.877  0.00  0.00    -0.024 A 
ATOM     18  C   UNL     1       3.374   5.580  19.029  0.00  0.00    +0.032 A 
ATOM     19  N   UNL     1       2.499   6.465  19.561  0.00  0.00    -0.250 NA
ATOM     20  H   UNL     1       2.937   8.931  17.266  0.00  0.00    +0.064 HD
ATOM     21  H   UNL     1       4.514   7.293  16.342  0.00  0.00    +0.062 HD
ATOM     22  H   UNL     1       3.447   4.648  19.588  0.00  0.00    +0.083 HD
BRANCH  17  23
ATOM     23  C   UNL     1       5.121   4.721  17.380  0.00  0.00    -0.011 C 
BRANCH  23  24
ATOM     24  C   UNL     1       4.512   3.322  17.623  0.00  0.00    -0.056 C 
ATOM     25  H   UNL     1       3.424   3.335  17.487  0.00  0.00    +0.024 HD
ATOM     26  H   UNL     1       4.706   2.959  18.638  0.00  0.00    +0.024 HD
ATOM     27  H   UNL     1       4.925   2.584  16.924  0.00  0.00    +0.024 HD
ENDBRANCH  23  24
BRANCH  23  28
ATOM     28  C   UNL     1       5.385   4.901  15.870  0.00  0.00    -0.056 C 
ATOM     29  H   UNL     1       5.554   3.936  15.378  0.00  0.00    +0.024 HD
ATOM     30  H   UNL     1       6.261   5.529  15.672  0.00  0.00    +0.024 HD
ATOM     31  H   UNL     1       4.532   5.383  15.376  0.00  0.00    +0.024 HD
ENDBRANCH  23  28
BRANCH  23  32
ATOM     32  C   UNL     1       6.493   4.757  18.090  0.00  0.00    -0.056 C 
ATOM     33  H   UNL     1       6.953   5.749  18.032  0.00  0.00    +0.024 HD
ATOM     34  H   UNL     1       6.389   4.513  19.154  0.00  0.00    +0.024 HD
ATOM     35  H   UNL     1       7.189   4.030  17.656  0.00  0.00    +0.024 HD
ENDBRANCH  23  32
ENDBRANCH  17  23
ENDBRANCH  11  14
ENDBRANCH   3  10
BRANCH   5  36
ATOM     36  C   UNL     1      -3.820  11.251  18.005  0.00  0.00    +0.417 C 
ATOM     37  F   UNL     1      -4.731  11.827  18.841  0.00  0.00    -0.166 F 
ATOM     38  F   UNL     1      -4.019  11.835  16.791  0.00  0.00    -0.166 F 
ATOM     39  F   UNL     1      -4.210   9.953  17.870  0.00  0.00    -0.166 F 
ENDBRANCH   5  36
BRANCH   1  40
ATOM     40  C   UNL     1      -0.185  13.878  20.408  0.00  0.00    -0.012 C 
ATOM     41  H   UNL     1      -0.961  14.649  20.315  0.00  0.00    +0.035 HD
BRANCH  40  42
ATOM     42  C   UNL     1       1.081  14.450  19.759  0.00  0.00    -0.058 C 
ATOM     43  H   UNL     1       0.875  15.419  19.293  0.00  0.00    +0.024 HD
ATOM     44  H   UNL     1       1.480  13.786  18.987  0.00  0.00    +0.024 HD
ATOM     45  H   UNL     1       1.871  14.604  20.503  0.00  0.00    +0.024 HD
ENDBRANCH  40  42
BRANCH  40  46
ATOM     46  C   UNL     1       0.011  13.566  21.907  0.00  0.00    +0.014 C 
ATOM     47  H   UNL     1       0.499  14.407  22.415  0.00  0.00    +0.035 HD
ATOM     48  H   UNL     1       0.689  12.710  22.028  0.00  0.00    +0.035 HD
BRANCH  46  49
ATOM     49  C   UNL     1      -1.278  13.267  22.595  0.00  0.00    +0.134 A 
ATOM     50  N   UNL     1      -2.231  14.131  22.876  0.00  0.00    -0.135 NA
ATOM     51  N   UNL     1      -3.252  13.456  23.502  0.00  0.00    -0.138 NA
ATOM     52  C   UNL     1      -2.898  12.199  23.596  0.00  0.00    +0.120 A 
ATOM     53  N   UNL     1      -1.668  12.032  23.041  0.00  0.00    -0.320 N 
ATOM     54  H   UNL     1      -3.481  11.405  24.042  0.00  0.00    +0.105 HD
BRANCH  53  55
ATOM     55  C   UNL     1      -0.945  10.794  22.941  0.00  0.00    +0.014 C 
ATOM     56  H   UNL     1      -0.094  10.836  23.625  0.00  0.00    +0.046 HD
ATOM     57  H   UNL     1      -1.598   9.962  23.214  0.00  0.00    +0.046 HD
ATOM     58  H   UNL     1      -0.601  10.663  21.914  0.00  0.00    +0.046 HD
ENDBRANCH  53  55
ENDBRANCH  46  49
ENDBRANCH  40  46
ENDBRANCH   1  40
TORSDOF 12
ENDMDL
MODEL 8
REMARK VINA RESULT:    -8.002      4.193      9.919
REMARK INTER + INTRA:         -11.948
REMARK INTER:                 -10.667
REMARK INTRA:                  -1.281
REMARK UNBOUND:                 0.498
REMARK  Name = 
REMARK  12 active torsions:
REMARK  status: ('A' for Active; 'I' for Inactive)
REMARK    1  A    between atoms: C_1  and  C_2
REMARK    2  A    between atoms: C_2  and  C_3
REMARK    3  A    between atoms: C_2  and  C_10
REMARK    4  A    between atoms: C_3  and  C_4
REMARK    5  A    between atoms: N_8  and  C_9
REMARK    6  A    between atoms: C_12  and  N_13
REMARK    7  A    between atoms: C_14  and  C_16
REMARK    8  A    between atoms: C_19  and  C_20
REMARK    9  A    between atoms: C_20  and  C_21
REMARK   10  A    between atoms: C_20  and  C_22
REMARK   11  A    between atoms: C_20  and  C_23
REMARK   12  A    between atoms: C_27  and  C_28
REMARK                            x       y       z     vdW  Elec       q    Type
REMARK                         _______ _______ _______ _____ _____    ______ ____
ROOT
ATOM      1  C   UNL     1      -0.328  12.245  19.251  0.00  0.00    -0.042 A 
ATOM      2  C   UNL     1       0.558  11.189  18.979  0.00  0.00    -0.037 A 
ATOM      3  C   UNL     1       0.155  10.071  18.240  0.00  0.00    +0.035 A 
ATOM      4  C   UNL     1      -1.155  10.007  17.765  0.00  0.00    -0.029 A 
ATOM      5  C   UNL     1      -2.062  11.050  18.017  0.00  0.00    +0.057 A 
ATOM      6  C   UNL     1      -1.640  12.160  18.765  0.00  0.00    -0.047 A 
ATOM      7  H   UNL     1       1.578  11.242  19.355  0.00  0.00    +0.064 HD
ATOM      8  H   UNL     1      -1.502   9.152  17.190  0.00  0.00    +0.064 HD
ATOM      9  H   UNL     1      -2.349  12.965  18.965  0.00  0.00    +0.063 HD
ENDROOT
BRANCH   3  10
ATOM     10  N   UNL     1       1.116   9.072  18.016  0.00  0.00    -0.280 N 
ATOM     11  C   UNL     1       1.722   8.238  18.936  0.00  0.00    +0.267 C 
ATOM     12  O   UNL     1       1.545   8.221  20.149  0.00  0.00    -0.268 OA
ATOM     13  H   UNL     1       1.432   8.918  17.061  0.00  0.00    +0.155 HD
BRANCH  11  14
ATOM     14  C   UNL     1       2.679   7.274  18.299  0.00  0.00    +0.126 A 
ATOM     15  C   UNL     1       2.477   5.909  18.414  0.00  0.00    -0.031 A 
ATOM     16  C   UNL     1       3.385   5.053  17.789  0.00  0.00    -0.054 A 
ATOM     17  C   UNL     1       4.470   5.566  17.067  0.00  0.00    -0.024 A 
ATOM     18  C   UNL     1       4.573   6.962  17.024  0.00  0.00    +0.032 A 
ATOM     19  N   UNL     1       3.717   7.829  17.614  0.00  0.00    -0.250 NA
ATOM     20  H   UNL     1       1.635   5.514  18.973  0.00  0.00    +0.064 HD
ATOM     21  H   UNL     1       3.214   3.984  17.883  0.00  0.00    +0.062 HD
ATOM     22  H   UNL     1       5.384   7.448  16.484  0.00  0.00    +0.083 HD
BRANCH  17  23
ATOM     23  C   UNL     1       5.491   4.682  16.337  0.00  0.00    -0.011 C 
BRANCH  23  24
ATOM     24  C   UNL     1       6.848   4.762  17.069  0.00  0.00    -0.056 C 
ATOM     25  H   UNL     1       6.731   5.174  18.078  0.00  0.00    +0.024 HD
ATOM     26  H   UNL     1       7.564   5.403  16.541  0.00  0.00    +0.024 HD
ATOM     27  H   UNL     1       7.304   3.769  17.166  0.00  0.00    +0.024 HD
ENDBRANCH  23  24
BRANCH  23  28
ATOM     28  C   UNL     1       5.010   3.215  16.323  0.00  0.00    -0.056 C 
ATOM     29  H   UNL     1       3.917   3.155  16.382  0.00  0.00    +0.024 HD
ATOM     30  H   UNL     1       5.418   2.636  17.158  0.00  0.00    +0.024 HD
ATOM     31  H   UNL     1       5.323   2.707  15.401  0.00  0.00    +0.024 HD
ENDBRANCH  23  28
BRANCH  23  32
ATOM     32  C   UNL     1       5.733   5.096  14.868  0.00  0.00    -0.056 C 
ATOM     33  H   UNL     1       5.642   6.180  14.732  0.00  0.00    +0.024 HD
ATOM     34  H   UNL     1       6.743   4.817  14.545  0.00  0.00    +0.024 HD
ATOM     35  H   UNL     1       5.026   4.605  14.190  0.00  0.00    +0.024 HD
ENDBRANCH  23  32
ENDBRANCH  17  23
ENDBRANCH  11  14
ENDBRANCH   3  10
BRANCH   5  36
ATOM     36  C   UNL     1      -3.480  10.952  17.509  0.00  0.00    +0.417 C 
ATOM     37  F   UNL     1      -4.320  11.857  18.088  0.00  0.00    -0.166 F 
ATOM     38  F   UNL     1      -3.583  11.164  16.167  0.00  0.00    -0.166 F 
ATOM     39  F   UNL     1      -4.034   9.730  17.743  0.00  0.00    -0.166 F 
ENDBRANCH   5  36
BRANCH   1  40
ATOM     40  C   UNL     1       0.154  13.451  20.046  0.00  0.00    -0.012 C 
ATOM     41  H   UNL     1      -0.634  14.215  20.014  0.00  0.00    +0.035 HD
BRANCH  40  42
ATOM     42  C   UNL     1       1.396  14.075  19.398  0.00  0.00    -0.058 C 
ATOM     43  H   UNL     1       2.309  13.599  19.770  0.00  0.00    +0.024 HD
ATOM     44  H   UNL     1       1.470  15.146  19.606  0.00  0.00    +0.024 HD
ATOM     45  H   UNL     1       1.379  13.948  18.310  0.00  0.00    +0.024 HD
ENDBRANCH  40  42
BRANCH  40  46
ATOM     46  C   UNL     1       0.392  13.060  21.520  0.00  0.00    +0.014 C 
ATOM     47  H   UNL     1       0.980  13.832  22.033  0.00  0.00    +0.035 HD
ATOM     48  H   UNL     1       0.993  12.142  21.575  0.00  0.00    +0.035 HD
BRANCH  46  49
ATOM     49  C   UNL     1      -0.885  12.852  22.263  0.00  0.00    +0.134 A 
ATOM     50  N   UNL     1      -1.803  13.763  22.508  0.00  0.00    -0.135 NA
ATOM     51  N   UNL     1      -2.825  13.167  23.208  0.00  0.00    -0.138 NA
ATOM     52  C   UNL     1      -2.505  11.909  23.381  0.00  0.00    +0.120 A 
ATOM     53  N   UNL     1      -1.298  11.664  22.806  0.00  0.00    -0.320 N 
ATOM     54  H   UNL     1      -3.099  11.167  23.897  0.00  0.00    +0.105 HD
BRANCH  53  55
ATOM     55  C   UNL     1      -0.616  10.400  22.774  0.00  0.00    +0.014 C 
ATOM     56  H   UNL     1      -1.343   9.623  22.526  0.00  0.00    +0.046 HD
ATOM     57  H   UNL     1       0.172  10.424  22.018  0.00  0.00    +0.046 HD
ATOM     58  H   UNL     1      -0.173  10.208  23.753  0.00  0.00    +0.046 HD
ENDBRANCH  53  55
ENDBRANCH  46  49
ENDBRANCH  40  46
ENDBRANCH   1  40
TORSDOF 12
ENDMDL
MODEL 9
REMARK VINA RESULT:    -7.993      3.887      9.306
REMARK INTER + INTRA:         -11.934
REMARK INTER:                 -11.056
REMARK INTRA:                  -0.878
REMARK UNBOUND:                 0.498
REMARK  Name = 
REMARK  12 active torsions:
REMARK  status: ('A' for Active; 'I' for Inactive)
REMARK    1  A    between atoms: C_1  and  C_2
REMARK    2  A    between atoms: C_2  and  C_3
REMARK    3  A    between atoms: C_2  and  C_10
REMARK    4  A    between atoms: C_3  and  C_4
REMARK    5  A    between atoms: N_8  and  C_9
REMARK    6  A    between atoms: C_12  and  N_13
REMARK    7  A    between atoms: C_14  and  C_16
REMARK    8  A    between atoms: C_19  and  C_20
REMARK    9  A    between atoms: C_20  and  C_21
REMARK   10  A    between atoms: C_20  and  C_22
REMARK   11  A    between atoms: C_20  and  C_23
REMARK   12  A    between atoms: C_27  and  C_28
REMARK                            x       y       z     vdW  Elec       q    Type
REMARK                         _______ _______ _______ _____ _____    ______ ____
ROOT
ATOM      1  C   UNL     1      -0.277  10.986  19.369  0.00  0.00    -0.042 A 
ATOM      2  C   UNL     1       0.631  10.050  18.848  0.00  0.00    -0.037 A 
ATOM      3  C   UNL     1       1.196   9.054  19.654  0.00  0.00    +0.035 A 
ATOM      4  C   UNL     1       0.847   8.993  21.003  0.00  0.00    -0.029 A 
ATOM      5  C   UNL     1      -0.063   9.913  21.551  0.00  0.00    +0.057 A 
ATOM      6  C   UNL     1      -0.613  10.908  20.728  0.00  0.00    -0.047 A 
ATOM      7  H   UNL     1       0.903  10.104  17.795  0.00  0.00    +0.064 HD
ATOM      8  H   UNL     1       1.269   8.234  21.657  0.00  0.00    +0.064 HD
ATOM      9  H   UNL     1      -1.314  11.624  21.159  0.00  0.00    +0.063 HD
ENDROOT
BRANCH   3  10
ATOM     10  N   UNL     1       2.088   8.162  19.037  0.00  0.00    -0.280 N 
ATOM     11  C   UNL     1       2.356   6.847  19.365  0.00  0.00    +0.267 C 
ATOM     12  O   UNL     1       1.869   6.199  20.285  0.00  0.00    -0.268 OA
ATOM     13  H   UNL     1       2.626   8.498  18.241  0.00  0.00    +0.155 HD
BRANCH  11  14
ATOM     14  C   UNL     1       3.354   6.213  18.441  0.00  0.00    +0.126 A 
ATOM     15  C   UNL     1       3.476   4.836  18.381  0.00  0.00    -0.031 A 
ATOM     16  C   UNL     1       4.406   4.293  17.493  0.00  0.00    -0.054 A 
ATOM     17  C   UNL     1       5.194   5.126  16.688  0.00  0.00    -0.024 A 
ATOM     18  C   UNL     1       4.985   6.502  16.838  0.00  0.00    +0.032 A 
ATOM     19  N   UNL     1       4.096   7.070  17.685  0.00  0.00    -0.250 NA
ATOM     20  H   UNL     1       2.863   4.193  19.005  0.00  0.00    +0.064 HD
ATOM     21  H   UNL     1       4.490   3.210  17.452  0.00  0.00    +0.062 HD
ATOM     22  H   UNL     1       5.552   7.223  16.252  0.00  0.00    +0.083 HD
BRANCH  17  23
ATOM     23  C   UNL     1       6.218   4.595  15.674  0.00  0.00    -0.011 C 
BRANCH  23  24
ATOM     24  C   UNL     1       7.581   4.413  16.377  0.00  0.00    -0.056 C 
ATOM     25  H   UNL     1       7.559   3.565  17.073  0.00  0.00    +0.024 HD
ATOM     26  H   UNL     1       7.867   5.298  16.957  0.00  0.00    +0.024 HD
ATOM     27  H   UNL     1       8.380   4.224  15.649  0.00  0.00    +0.024 HD
ENDBRANCH  23  24
BRANCH  23  28
ATOM     28  C   UNL     1       5.754   3.234  15.112  0.00  0.00    -0.056 C 
ATOM     29  H   UNL     1       6.110   3.087  14.086  0.00  0.00    +0.024 HD
ATOM     30  H   UNL     1       4.663   3.139  15.101  0.00  0.00    +0.024 HD
ATOM     31  H   UNL     1       6.139   2.405  15.721  0.00  0.00    +0.024 HD
ENDBRANCH  23  28
BRANCH  23  32
ATOM     32  C   UNL     1       6.442   5.534  14.468  0.00  0.00    -0.056 C 
ATOM     33  H   UNL     1       6.584   4.971  13.538  0.00  0.00    +0.024 HD
ATOM     34  H   UNL     1       5.576   6.189  14.317  0.00  0.00    +0.024 HD
ATOM     35  H   UNL     1       7.316   6.178  14.616  0.00  0.00    +0.024 HD
ENDBRANCH  23  32
ENDBRANCH  17  23
ENDBRANCH  11  14
ENDBRANCH   3  10
BRANCH   5  36
ATOM     36  C   UNL     1      -0.412   9.840  23.017  0.00  0.00    +0.417 C 
ATOM     37  F   UNL     1      -0.978  10.987  23.491  0.00  0.00    -0.166 F 
ATOM     38  F   UNL     1      -1.301   8.849  23.306  0.00  0.00    -0.166 F 
ATOM     39  F   UNL     1       0.677   9.613  23.803  0.00  0.00    -0.166 F 
ENDBRANCH   5  36
BRANCH   1  40
ATOM     40  C   UNL     1      -0.880  12.044  18.456  0.00  0.00    -0.012 C 
ATOM     41  H   UNL     1      -0.454  11.909  17.453  0.00  0.00    +0.035 HD
BRANCH  40  42
ATOM     42  C   UNL     1      -0.487  13.454  18.913  0.00  0.00    -0.058 C 
ATOM     43  H   UNL     1       0.386  13.419  19.574  0.00  0.00    +0.024 HD
ATOM     44  H   UNL     1      -1.297  13.948  19.456  0.00  0.00    +0.024 HD
ATOM     45  H   UNL     1      -0.226  14.087  18.058  0.00  0.00    +0.024 HD
ENDBRANCH  40  42
BRANCH  40  46
ATOM     46  C   UNL     1      -2.410  11.861  18.361  0.00  0.00    +0.014 C 
ATOM     47  H   UNL     1      -2.916  12.835  18.372  0.00  0.00    +0.035 HD
ATOM     48  H   UNL     1      -2.780  11.323  19.244  0.00  0.00    +0.035 HD
BRANCH  46  49
ATOM     49  C   UNL     1      -2.815  11.119  17.132  0.00  0.00    +0.134 A 
ATOM     50  N   UNL     1      -2.080  10.257  16.462  0.00  0.00    -0.135 NA
ATOM     51  N   UNL     1      -2.821   9.791  15.402  0.00  0.00    -0.138 NA
ATOM     52  C   UNL     1      -3.988  10.384  15.443  0.00  0.00    +0.120 A 
ATOM     53  N   UNL     1      -4.031  11.226  16.510  0.00  0.00    -0.320 N 
ATOM     54  H   UNL     1      -4.801  10.237  14.746  0.00  0.00    +0.105 HD
BRANCH  53  55
ATOM     55  C   UNL     1      -5.147  12.045  16.898  0.00  0.00    +0.014 C 
ATOM     56  H   UNL     1      -4.954  12.437  17.900  0.00  0.00    +0.046 HD
ATOM     57  H   UNL     1      -5.260  12.871  16.193  0.00  0.00    +0.046 HD
ATOM     58  H   UNL     1      -6.054  11.438  16.894  0.00  0.00    +0.046 HD
ENDBRANCH  53  55
ENDBRANCH  46  49
ENDBRANCH  40  46
ENDBRANCH   1  40
TORSDOF 12
ENDMDL
MODEL 10
REMARK VINA RESULT:    -7.951      3.967      9.437
REMARK INTER + INTRA:         -11.870
REMARK INTER:                 -10.660
REMARK INTRA:                  -1.209
REMARK UNBOUND:                 0.498
REMARK  Name = 
REMARK  12 active torsions:
REMARK  status: ('A' for Active; 'I' for Inactive)
REMARK    1  A    between atoms: C_1  and  C_2
REMARK    2  A    between atoms: C_2  and  C_3
REMARK    3  A    between atoms: C_2  and  C_10
REMARK    4  A    between atoms: C_3  and  C_4
REMARK    5  A    between atoms: N_8  and  C_9
REMARK    6  A    between atoms: C_12  and  N_13
REMARK    7  A    between atoms: C_14  and  C_16
REMARK    8  A    between atoms: C_19  and  C_20
REMARK    9  A    between atoms: C_20  and  C_21
REMARK   10  A    between atoms: C_20  and  C_22
REMARK   11  A    between atoms: C_20  and  C_23
REMARK   12  A    between atoms: C_27  and  C_28
REMARK                            x       y       z     vdW  Elec       q    Type
REMARK                         _______ _______ _______ _____ _____    ______ ____
ROOT
ATOM      1  C   UNL     1      -0.167  11.093  20.344  0.00  0.00    -0.042 A 
ATOM      2  C   UNL     1       0.808  10.193  19.886  0.00  0.00    -0.037 A 
ATOM      3  C   UNL     1       0.678   9.540  18.654  0.00  0.00    +0.035 A 
ATOM      4  C   UNL     1      -0.447   9.791  17.868  0.00  0.00    -0.029 A 
ATOM      5  C   UNL     1      -1.437  10.691  18.298  0.00  0.00    +0.057 A 
ATOM      6  C   UNL     1      -1.290  11.331  19.539  0.00  0.00    -0.047 A 
ATOM      7  H   UNL     1       1.682   9.996  20.504  0.00  0.00    +0.064 HD
ATOM      8  H   UNL     1      -0.581   9.300  16.908  0.00  0.00    +0.064 HD
ATOM      9  H   UNL     1      -2.064  12.023  19.872  0.00  0.00    +0.063 HD
ENDROOT
BRANCH   3  10
ATOM     10  N   UNL     1       1.710   8.664  18.282  0.00  0.00    -0.280 N 
ATOM     11  C   UNL     1       2.248   7.612  19.000  0.00  0.00    +0.267 C 
ATOM     12  O   UNL     1       1.933   7.247  20.127  0.00  0.00    -0.268 OA
ATOM     13  H   UNL     1       2.143   8.794  17.371  0.00  0.00    +0.155 HD
BRANCH  11  14
ATOM     14  C   UNL     1       3.322   6.887  18.244  0.00  0.00    +0.126 A 
ATOM     15  C   UNL     1       3.887   7.454  17.114  0.00  0.00    -0.031 A 
ATOM     16  C   UNL     1       4.895   6.749  16.456  0.00  0.00    -0.054 A 
ATOM     17  C   UNL     1       5.320   5.501  16.929  0.00  0.00    -0.024 A 
ATOM     18  C   UNL     1       4.674   5.028  18.077  0.00  0.00    +0.032 A 
ATOM     19  N   UNL     1       3.693   5.677  18.747  0.00  0.00    -0.250 NA
ATOM     20  H   UNL     1       3.556   8.422  16.751  0.00  0.00    +0.064 HD
ATOM     21  H   UNL     1       5.333   7.206  15.572  0.00  0.00    +0.062 HD
ATOM     22  H   UNL     1       4.941   4.068  18.516  0.00  0.00    +0.083 HD
BRANCH  17  23
ATOM     23  C   UNL     1       6.439   4.684  16.267  0.00  0.00    -0.011 C 
BRANCH  23  24
ATOM     24  C   UNL     1       7.583   4.472  17.282  0.00  0.00    -0.056 C 
ATOM     25  H   UNL     1       7.196   4.123  18.248  0.00  0.00    +0.024 HD
ATOM     26  H   UNL     1       8.141   5.395  17.473  0.00  0.00    +0.024 HD
ATOM     27  H   UNL     1       8.299   3.723  16.921  0.00  0.00    +0.024 HD
ENDBRANCH  23  24
BRANCH  23  28
ATOM     28  C   UNL     1       5.899   3.309  15.819  0.00  0.00    -0.056 C 
ATOM     29  H   UNL     1       6.715   2.590  15.678  0.00  0.00    +0.024 HD
ATOM     30  H   UNL     1       5.344   3.367  14.876  0.00  0.00    +0.024 HD
ATOM     31  H   UNL     1       5.213   2.893  16.567  0.00  0.00    +0.024 HD
ENDBRANCH  23  28
BRANCH  23  32
ATOM     32  C   UNL     1       7.048   5.363  15.020  0.00  0.00    -0.056 C 
ATOM     33  H   UNL     1       6.321   6.007  14.513  0.00  0.00    +0.024 HD
ATOM     34  H   UNL     1       7.899   5.997  15.296  0.00  0.00    +0.024 HD
ATOM     35  H   UNL     1       7.415   4.624  14.298  0.00  0.00    +0.024 HD
ENDBRANCH  23  32
ENDBRANCH  17  23
ENDBRANCH  11  14
ENDBRANCH   3  10
BRANCH   5  36
ATOM     36  C   UNL     1      -2.654  10.935  17.440  0.00  0.00    +0.417 C 
ATOM     37  F   UNL     1      -3.418   9.819  17.265  0.00  0.00    -0.166 F 
ATOM     38  F   UNL     1      -3.493  11.874  17.958  0.00  0.00    -0.166 F 
ATOM     39  F   UNL     1      -2.332  11.363  16.188  0.00  0.00    -0.166 F 
ENDBRANCH   5  36
BRANCH   1  40
ATOM     40  C   UNL     1       0.020  11.794  21.683  0.00  0.00    -0.012 C 
ATOM     41  H   UNL     1       0.978  11.464  22.106  0.00  0.00    +0.035 HD
BRANCH  40  42
ATOM     42  C   UNL     1      -1.068  11.374  22.679  0.00  0.00    -0.058 C 
ATOM     43  H   UNL     1      -0.679  11.377  23.703  0.00  0.00    +0.024 HD
ATOM     44  H   UNL     1      -1.448  10.371  22.470  0.00  0.00    +0.024 HD
ATOM     45  H   UNL     1      -1.918  12.064  22.649  0.00  0.00    +0.024 HD
ENDBRANCH  40  42
BRANCH  40  46
ATOM     46  C   UNL     1       0.078  13.323  21.483  0.00  0.00    +0.014 C 
ATOM     47  H   UNL     1       0.170  13.834  22.450  0.00  0.00    +0.035 HD
ATOM     48  H   UNL     1      -0.864  13.682  21.045  0.00  0.00    +0.035 HD
BRANCH  46  49
ATOM     49  C   UNL     1       1.212  13.736  20.607  0.00  0.00    +0.134 A 
ATOM     50  N   UNL     1       2.489  13.495  20.817  0.00  0.00    -0.135 NA
ATOM     51  N   UNL     1       3.205  14.033  19.775  0.00  0.00    -0.138 NA
ATOM     52  C   UNL     1       2.353  14.597  18.957  0.00  0.00    +0.120 A 
ATOM     53  N   UNL     1       1.090  14.437  19.436  0.00  0.00    -0.320 N 
ATOM     54  H   UNL     1       2.598  15.112  18.039  0.00  0.00    +0.105 HD
BRANCH  53  55
ATOM     55  C   UNL     1      -0.117  14.906  18.814  0.00  0.00    +0.014 C 
ATOM     56  H   UNL     1      -0.907  14.174  19.002  0.00  0.00    +0.046 HD
ATOM     57  H   UNL     1      -0.399  15.872  19.238  0.00  0.00    +0.046 HD
ATOM     58  H   UNL     1       0.053  15.016  17.742  0.00  0.00    +0.046 HD
ENDBRANCH  53  55
ENDBRANCH  46  49
ENDBRANCH  40  46
ENDBRANCH   1  40
TORSDOF 12
ENDMDL
MODEL 11
REMARK VINA RESULT:    -7.878      4.778     10.599
REMARK INTER + INTRA:         -11.755
REMARK INTER:                 -10.494
REMARK INTRA:                  -1.261
REMARK UNBOUND:                 0.498
REMARK  Name = 
REMARK  12 active torsions:
REMARK  status: ('A' for Active; 'I' for Inactive)
REMARK    1  A    between atoms: C_1  and  C_2
REMARK    2  A    between atoms: C_2  and  C_3
REMARK    3  A    between atoms: C_2  and  C_10
REMARK    4  A    between atoms: C_3  and  C_4
REMARK    5  A    between atoms: N_8  and  C_9
REMARK    6  A    between atoms: C_12  and  N_13
REMARK    7  A    between atoms: C_14  and  C_16
REMARK    8  A    between atoms: C_19  and  C_20
REMARK    9  A    between atoms: C_20  and  C_21
REMARK   10  A    between atoms: C_20  and  C_22
REMARK   11  A    between atoms: C_20  and  C_23
REMARK   12  A    between atoms: C_27  and  C_28
REMARK                            x       y       z     vdW  Elec       q    Type
REMARK                         _______ _______ _______ _____ _____    ______ ____
ROOT
ATOM      1  C   UNL     1      -1.347  11.842  19.477  0.00  0.00    -0.042 A 
ATOM      2  C   UNL     1      -0.727  10.582  19.452  0.00  0.00    -0.037 A 
ATOM      3  C   UNL     1       0.646  10.449  19.211  0.00  0.00    +0.035 A 
ATOM      4  C   UNL     1       1.411  11.595  18.992  0.00  0.00    -0.029 A 
ATOM      5  C   UNL     1       0.819  12.869  19.017  0.00  0.00    +0.057 A 
ATOM      6  C   UNL     1      -0.560  12.980  19.254  0.00  0.00    -0.047 A 
ATOM      7  H   UNL     1      -1.328   9.690  19.619  0.00  0.00    +0.064 HD
ATOM      8  H   UNL     1       2.479  11.528  18.800  0.00  0.00    +0.064 HD
ATOM      9  H   UNL     1      -1.017  13.970  19.265  0.00  0.00    +0.063 HD
ENDROOT
BRANCH   3  10
ATOM     10  N   UNL     1       1.173   9.148  19.212  0.00  0.00    -0.280 N 
ATOM     11  C   UNL     1       1.525   8.362  20.293  0.00  0.00    +0.267 C 
ATOM     12  O   UNL     1       1.459   8.662  21.480  0.00  0.00    -0.268 OA
ATOM     13  H   UNL     1       1.330   8.695  18.315  0.00  0.00    +0.155 HD
BRANCH  11  14
ATOM     14  C   UNL     1       2.023   7.007  19.883  0.00  0.00    +0.126 A 
ATOM     15  C   UNL     1       1.716   5.890  20.641  0.00  0.00    -0.031 A 
ATOM     16  C   UNL     1       2.187   4.650  20.210  0.00  0.00    -0.054 A 
ATOM     17  C   UNL     1       2.952   4.544  19.041  0.00  0.00    -0.024 A 
ATOM     18  C   UNL     1       3.203   5.741  18.361  0.00  0.00    +0.032 A 
ATOM     19  N   UNL     1       2.766   6.964  18.743  0.00  0.00    -0.250 NA
ATOM     20  H   UNL     1       1.121   5.975  21.545  0.00  0.00    +0.064 HD
ATOM     21  H   UNL     1       1.936   3.779  20.810  0.00  0.00    +0.062 HD
ATOM     22  H   UNL     1       3.788   5.753  17.442  0.00  0.00    +0.083 HD
BRANCH  17  23
ATOM     23  C   UNL     1       3.482   3.209  18.498  0.00  0.00    -0.011 C 
BRANCH  23  24
ATOM     24  C   UNL     1       4.387   3.480  17.276  0.00  0.00    -0.056 C 
ATOM     25  H   UNL     1       3.898   4.154  16.562  0.00  0.00    +0.024 HD
ATOM     26  H   UNL     1       4.633   2.560  16.734  0.00  0.00    +0.024 HD
ATOM     27  H   UNL     1       5.332   3.947  17.580  0.00  0.00    +0.024 HD
ENDBRANCH  23  24
BRANCH  23  28
ATOM     28  C   UNL     1       4.304   2.481  19.584  0.00  0.00    -0.056 C 
ATOM     29  H   UNL     1       4.704   3.189  20.319  0.00  0.00    +0.024 HD
ATOM     30  H   UNL     1       5.151   1.928  19.164  0.00  0.00    +0.024 HD
ATOM     31  H   UNL     1       3.685   1.753  20.124  0.00  0.00    +0.024 HD
ENDBRANCH  23  28
BRANCH  23  32
ATOM     32  C   UNL     1       2.369   2.238  18.042  0.00  0.00    -0.056 C 
ATOM     33  H   UNL     1       2.781   1.364  17.525  0.00  0.00    +0.024 HD
ATOM     34  H   UNL     1       1.801   1.864  18.902  0.00  0.00    +0.024 HD
ATOM     35  H   UNL     1       1.657   2.730  17.370  0.00  0.00    +0.024 HD
ENDBRANCH  23  32
ENDBRANCH  17  23
ENDBRANCH  11  14
ENDBRANCH   3  10
BRANCH   5  36
ATOM     36  C   UNL     1       1.661  14.094  18.759  0.00  0.00    +0.417 C 
ATOM     37  F   UNL     1       2.502  13.952  17.695  0.00  0.00    -0.166 F 
ATOM     38  F   UNL     1       0.920  15.206  18.494  0.00  0.00    -0.166 F 
ATOM     39  F   UNL     1       2.456  14.413  19.818  0.00  0.00    -0.166 F 
ENDBRANCH   5  36
BRANCH   1  40
ATOM     40  C   UNL     1      -2.840  11.944  19.758  0.00  0.00    -0.012 C 
ATOM     41  H   UNL     1      -3.123  11.097  20.398  0.00  0.00    +0.035 HD
BRANCH  40  42
ATOM     42  C   UNL     1      -3.653  11.806  18.464  0.00  0.00    -0.058 C 
ATOM     43  H   UNL     1      -4.641  11.382  18.670  0.00  0.00    +0.024 HD
ATOM     44  H   UNL     1      -3.156  11.157  17.737  0.00  0.00    +0.024 HD
ATOM     45  H   UNL     1      -3.806  12.781  17.989  0.00  0.00    +0.024 HD
ENDBRANCH  40  42
BRANCH  40  46
ATOM     46  C   UNL     1      -3.155  13.251  20.515  0.00  0.00    +0.014 C 
ATOM     47  H   UNL     1      -3.902  13.842  19.970  0.00  0.00    +0.035 HD
ATOM     48  H   UNL     1      -2.257  13.882  20.567  0.00  0.00    +0.035 HD
BRANCH  46  49
ATOM     49  C   UNL     1      -3.654  12.998  21.897  0.00  0.00    +0.134 A 
ATOM     50  N   UNL     1      -4.914  12.932  22.273  0.00  0.00    -0.135 NA
ATOM     51  N   UNL     1      -4.947  12.673  23.622  0.00  0.00    -0.138 NA
ATOM     52  C   UNL     1      -3.710  12.594  24.042  0.00  0.00    +0.120 A 
ATOM     53  N   UNL     1      -2.863  12.791  22.997  0.00  0.00    -0.320 N 
ATOM     54  H   UNL     1      -3.394  12.402  25.058  0.00  0.00    +0.105 HD
BRANCH  53  55
ATOM     55  C   UNL     1      -1.427  12.768  23.054  0.00  0.00    +0.014 C 
ATOM     56  H   UNL     1      -1.126  12.709  24.103  0.00  0.00    +0.046 HD
ATOM     57  H   UNL     1      -1.050  11.898  22.512  0.00  0.00    +0.046 HD
ATOM     58  H   UNL     1      -1.037  13.678  22.596  0.00  0.00    +0.046 HD
ENDBRANCH  53  55
ENDBRANCH  46  49
ENDBRANCH  40  46
ENDBRANCH   1  40
TORSDOF 12
ENDMDL
MODEL 12
REMARK VINA RESULT:    -7.872      2.194      3.300
REMARK INTER + INTRA:         -11.746
REMARK INTER:                 -10.843
REMARK INTRA:                  -0.903
REMARK UNBOUND:                 0.498
REMARK  Name = 
REMARK  12 active torsions:
REMARK  status: ('A' for Active; 'I' for Inactive)
REMARK    1  A    between atoms: C_1  and  C_2
REMARK    2  A    between atoms: C_2  and  C_3
REMARK    3  A    between atoms: C_2  and  C_10
REMARK    4  A    between atoms: C_3  and  C_4
REMARK    5  A    between atoms: N_8  and  C_9
REMARK    6  A    between atoms: C_12  and  N_13
REMARK    7  A    between atoms: C_14  and  C_16
REMARK    8  A    between atoms: C_19  and  C_20
REMARK    9  A    between atoms: C_20  and  C_21
REMARK   10  A    between atoms: C_20  and  C_22
REMARK   11  A    between atoms: C_20  and  C_23
REMARK   12  A    between atoms: C_27  and  C_28
REMARK                            x       y       z     vdW  Elec       q    Type
REMARK                         _______ _______ _______ _____ _____    ______ ____
ROOT
ATOM      1  C   UNL     1       3.869   5.196  18.152  0.00  0.00    -0.042 A 
ATOM      2  C   UNL     1       3.344   6.479  18.378  0.00  0.00    -0.037 A 
ATOM      3  C   UNL     1       2.425   6.721  19.407  0.00  0.00    +0.035 A 
ATOM      4  C   UNL     1       2.024   5.662  20.221  0.00  0.00    -0.029 A 
ATOM      5  C   UNL     1       2.535   4.368  20.022  0.00  0.00    +0.057 A 
ATOM      6  C   UNL     1       3.451   4.146  18.982  0.00  0.00    -0.047 A 
ATOM      7  H   UNL     1       3.658   7.301  17.738  0.00  0.00    +0.064 HD
ATOM      8  H   UNL     1       1.310   5.814  21.027  0.00  0.00    +0.064 HD
ATOM      9  H   UNL     1       3.841   3.139  18.826  0.00  0.00    +0.063 HD
ENDROOT
BRANCH   3  10
ATOM     10  N   UNL     1       1.965   8.039  19.556  0.00  0.00    -0.280 N 
ATOM     11  C   UNL     1       1.177   8.568  20.561  0.00  0.00    +0.267 C 
ATOM     12  O   UNL     1       0.707   7.973  21.524  0.00  0.00    -0.268 OA
ATOM     13  H   UNL     1       2.226   8.720  18.846  0.00  0.00    +0.155 HD
BRANCH  11  14
ATOM     14  C   UNL     1       0.925  10.036  20.383  0.00  0.00    +0.126 A 
ATOM     15  C   UNL     1       1.178  10.647  19.167  0.00  0.00    -0.031 A 
ATOM     16  C   UNL     1       0.911  12.011  19.046  0.00  0.00    -0.054 A 
ATOM     17  C   UNL     1       0.401  12.739  20.129  0.00  0.00    -0.024 A 
ATOM     18  C   UNL     1       0.189  12.014  21.308  0.00  0.00    +0.032 A 
ATOM     19  N   UNL     1       0.434  10.693  21.470  0.00  0.00    -0.250 NA
ATOM     20  H   UNL     1       1.572  10.082  18.329  0.00  0.00    +0.064 HD
ATOM     21  H   UNL     1       1.110  12.480  18.085  0.00  0.00    +0.062 HD
ATOM     22  H   UNL     1      -0.207  12.498  22.200  0.00  0.00    +0.083 HD
BRANCH  17  23
ATOM     23  C   UNL     1       0.062  14.235  20.056  0.00  0.00    -0.011 C 
BRANCH  23  24
ATOM     24  C   UNL     1       1.269  15.054  20.563  0.00  0.00    -0.056 C 
ATOM     25  H   UNL     1       1.378  14.968  21.651  0.00  0.00    +0.024 HD
ATOM     26  H   UNL     1       1.169  16.120  20.333  0.00  0.00    +0.024 HD
ATOM     27  H   UNL     1       2.204  14.705  20.107  0.00  0.00    +0.024 HD
ENDBRANCH  23  24
BRANCH  23  28
ATOM     28  C   UNL     1      -0.247  14.640  18.599  0.00  0.00    -0.056 C 
ATOM     29  H   UNL     1      -1.318  14.827  18.459  0.00  0.00    +0.024 HD
ATOM     30  H   UNL     1       0.050  13.868  17.881  0.00  0.00    +0.024 HD
ATOM     31  H   UNL     1       0.291  15.556  18.323  0.00  0.00    +0.024 HD
ENDBRANCH  23  28
BRANCH  23  32
ATOM     32  C   UNL     1      -1.160  14.637  20.911  0.00  0.00    -0.056 C 
ATOM     33  H   UNL     1      -2.085  14.635  20.322  0.00  0.00    +0.024 HD
ATOM     34  H   UNL     1      -1.307  13.933  21.739  0.00  0.00    +0.024 HD
ATOM     35  H   UNL     1      -1.034  15.634  21.349  0.00  0.00    +0.024 HD
ENDBRANCH  23  32
ENDBRANCH  17  23
ENDBRANCH  11  14
ENDBRANCH   3  10
BRANCH   5  36
ATOM     36  C   UNL     1       2.074   3.234  20.904  0.00  0.00    +0.417 C 
ATOM     37  F   UNL     1       0.820   2.793  20.596  0.00  0.00    -0.166 F 
ATOM     38  F   UNL     1       2.877   2.136  20.826  0.00  0.00    -0.166 F 
ATOM     39  F   UNL     1       2.032   3.580  22.220  0.00  0.00    -0.166 F 
ENDBRANCH   5  36
BRANCH   1  40
ATOM     40  C   UNL     1       4.878   4.978  17.033  0.00  0.00    -0.012 C 
ATOM     41  H   UNL     1       4.876   5.874  16.397  0.00  0.00    +0.035 HD
BRANCH  40  42
ATOM     42  C   UNL     1       4.461   3.804  16.138  0.00  0.00    -0.058 C 
ATOM     43  H   UNL     1       3.370   3.712  16.101  0.00  0.00    +0.024 HD
ATOM     44  H   UNL     1       4.864   2.854  16.498  0.00  0.00    +0.024 HD
ATOM     45  H   UNL     1       4.814   3.947  15.111  0.00  0.00    +0.024 HD
ENDBRANCH  40  42
BRANCH  40  46
ATOM     46  C   UNL     1       6.295   4.800  17.616  0.00  0.00    +0.014 C 
ATOM     47  H   UNL     1       6.897   4.145  16.974  0.00  0.00    +0.035 HD
ATOM     48  H   UNL     1       6.241   4.294  18.590  0.00  0.00    +0.035 HD
BRANCH  46  49
ATOM     49  C   UNL     1       7.006   6.101  17.782  0.00  0.00    +0.134 A 
ATOM     50  N   UNL     1       6.915   7.147  16.988  0.00  0.00    -0.135 NA
ATOM     51  N   UNL     1       7.716   8.142  17.494  0.00  0.00    -0.138 NA
ATOM     52  C   UNL     1       8.285   7.680  18.580  0.00  0.00    +0.120 A 
ATOM     53  N   UNL     1       7.870   6.404  18.801  0.00  0.00    -0.320 N 
ATOM     54  H   UNL     1       8.977   8.217  19.213  0.00  0.00    +0.105 HD
BRANCH  53  55
ATOM     55  C   UNL     1       8.262   5.565  19.899  0.00  0.00    +0.014 C 
ATOM     56  H   UNL     1       8.132   4.522  19.599  0.00  0.00    +0.046 HD
ATOM     57  H   UNL     1       9.309   5.749  20.149  0.00  0.00    +0.046 HD
ATOM     58  H   UNL     1       7.638   5.793  20.764  0.00  0.00    +0.046 HD
ENDBRANCH  53  55
ENDBRANCH  46  49
ENDBRANCH  40  46
ENDBRANCH   1  40
TORSDOF 12
ENDMDL
MODEL 13
REMARK VINA RESULT:    -7.847      1.447      1.965
REMARK INTER + INTRA:         -11.707
REMARK INTER:                 -10.980
REMARK INTRA:                  -0.727
REMARK UNBOUND:                 0.498
REMARK  Name = 
REMARK  12 active torsions:
REMARK  status: ('A' for Active; 'I' for Inactive)
REMARK    1  A    between atoms: C_1  and  C_2
REMARK    2  A    between atoms: C_2  and  C_3
REMARK    3  A    between atoms: C_2  and  C_10
REMARK    4  A    between atoms: C_3  and  C_4
REMARK    5  A    between atoms: N_8  and  C_9
REMARK    6  A    between atoms: C_12  and  N_13
REMARK    7  A    between atoms: C_14  and  C_16
REMARK    8  A    between atoms: C_19  and  C_20
REMARK    9  A    between atoms: C_20  and  C_21
REMARK   10  A    between atoms: C_20  and  C_22
REMARK   11  A    between atoms: C_20  and  C_23
REMARK   12  A    between atoms: C_27  and  C_28
REMARK                            x       y       z     vdW  Elec       q    Type
REMARK                         _______ _______ _______ _____ _____    ______ ____
ROOT
ATOM      1  C   UNL     1       4.476   5.157  19.229  0.00  0.00    -0.042 A 
ATOM      2  C   UNL     1       3.746   6.354  19.318  0.00  0.00    -0.037 A 
ATOM      3  C   UNL     1       2.491   6.398  19.936  0.00  0.00    +0.035 A 
ATOM      4  C   UNL     1       1.957   5.227  20.474  0.00  0.00    -0.029 A 
ATOM      5  C   UNL     1       2.667   4.017  20.406  0.00  0.00    +0.057 A 
ATOM      6  C   UNL     1       3.922   3.992  19.776  0.00  0.00    -0.047 A 
ATOM      7  H   UNL     1       4.165   7.264  18.892  0.00  0.00    +0.064 HD
ATOM      8  H   UNL     1       0.984   5.226  20.959  0.00  0.00    +0.064 HD
ATOM      9  H   UNL     1       4.466   3.049  19.719  0.00  0.00    +0.063 HD
ENDROOT
BRANCH   3  10
ATOM     10  N   UNL     1       1.843   7.643  19.979  0.00  0.00    -0.280 N 
ATOM     11  C   UNL     1       1.603   8.526  18.943  0.00  0.00    +0.267 C 
ATOM     12  O   UNL     1       1.930   8.396  17.769  0.00  0.00    -0.268 OA
ATOM     13  H   UNL     1       1.494   7.970  20.877  0.00  0.00    +0.155 HD
BRANCH  11  14
ATOM     14  C   UNL     1       0.848   9.745  19.386  0.00  0.00    +0.126 A 
ATOM     15  C   UNL     1       0.081  10.459  18.482  0.00  0.00    -0.031 A 
ATOM     16  C   UNL     1      -0.616  11.575  18.946  0.00  0.00    -0.054 A 
ATOM     17  C   UNL     1      -0.537  11.959  20.291  0.00  0.00    -0.024 A 
ATOM     18  C   UNL     1       0.273  11.162  21.109  0.00  0.00    +0.032 A 
ATOM     19  N   UNL     1       0.966  10.073  20.703  0.00  0.00    -0.250 NA
ATOM     20  H   UNL     1       0.020  10.159  17.441  0.00  0.00    +0.064 HD
ATOM     21  H   UNL     1      -1.219  12.126  18.228  0.00  0.00    +0.062 HD
ATOM     22  H   UNL     1       0.391  11.386  22.168  0.00  0.00    +0.083 HD
BRANCH  17  23
ATOM     23  C   UNL     1      -1.297  13.161  20.871  0.00  0.00    -0.011 C 
BRANCH  23  24
ATOM     24  C   UNL     1      -2.813  12.954  20.663  0.00  0.00    -0.056 C 
ATOM     25  H   UNL     1      -3.392  13.429  21.464  0.00  0.00    +0.024 HD
ATOM     26  H   UNL     1      -3.086  11.893  20.654  0.00  0.00    +0.024 HD
ATOM     27  H   UNL     1      -3.144  13.388  19.711  0.00  0.00    +0.024 HD
ENDBRANCH  23  24
BRANCH  23  28
ATOM     28  C   UNL     1      -1.008  13.293  22.382  0.00  0.00    -0.056 C 
ATOM     29  H   UNL     1      -0.751  14.325  22.648  0.00  0.00    +0.024 HD
ATOM     30  H   UNL     1      -0.180  12.652  22.705  0.00  0.00    +0.024 HD
ATOM     31  H   UNL     1      -1.884  13.003  22.977  0.00  0.00    +0.024 HD
ENDBRANCH  23  28
BRANCH  23  32
ATOM     32  C   UNL     1      -0.920  14.508  20.216  0.00  0.00    -0.056 C 
ATOM     33  H   UNL     1      -0.975  15.336  20.932  0.00  0.00    +0.024 HD
ATOM     34  H   UNL     1       0.107  14.483  19.834  0.00  0.00    +0.024 HD
ATOM     35  H   UNL     1      -1.577  14.742  19.370  0.00  0.00    +0.024 HD
ENDBRANCH  23  32
ENDBRANCH  17  23
ENDBRANCH  11  14
ENDBRANCH   3  10
BRANCH   5  36
ATOM     36  C   UNL     1       2.063   2.758  20.979  0.00  0.00    +0.417 C 
ATOM     37  F   UNL     1       0.855   2.968  21.576  0.00  0.00    -0.166 F 
ATOM     38  F   UNL     1       1.844   1.795  20.040  0.00  0.00    -0.166 F 
ATOM     39  F   UNL     1       2.852   2.187  21.931  0.00  0.00    -0.166 F 
ENDBRANCH   5  36
BRANCH   1  40
ATOM     40  C   UNL     1       5.845   5.155  18.562  0.00  0.00    -0.012 C 
ATOM     41  H   UNL     1       6.060   4.128  18.235  0.00  0.00    +0.035 HD
BRANCH  40  42
ATOM     42  C   UNL     1       6.944   5.536  19.561  0.00  0.00    -0.058 C 
ATOM     43  H   UNL     1       6.958   6.618  19.728  0.00  0.00    +0.024 HD
ATOM     44  H   UNL     1       7.936   5.240  19.209  0.00  0.00    +0.024 HD
ATOM     45  H   UNL     1       6.779   5.056  20.532  0.00  0.00    +0.024 HD
ENDBRANCH  40  42
BRANCH  40  46
ATOM     46  C   UNL     1       5.836   6.068  17.318  0.00  0.00    +0.014 C 
ATOM     47  H   UNL     1       6.563   6.882  17.433  0.00  0.00    +0.035 HD
ATOM     48  H   UNL     1       4.857   6.555  17.215  0.00  0.00    +0.035 HD
BRANCH  46  49
ATOM     49  C   UNL     1       6.143   5.320  16.065  0.00  0.00    +0.134 A 
ATOM     50  N   UNL     1       7.182   5.506  15.278  0.00  0.00    -0.135 NA
ATOM     51  N   UNL     1       7.100   4.610  14.239  0.00  0.00    -0.138 NA
ATOM     52  C   UNL     1       6.012   3.903  14.409  0.00  0.00    +0.120 A 
ATOM     53  N   UNL     1       5.378   4.311  15.540  0.00  0.00    -0.320 N 
ATOM     54  H   UNL     1       5.659   3.113  13.760  0.00  0.00    +0.105 HD
BRANCH  53  55
ATOM     55  C   UNL     1       4.157   3.768  16.070  0.00  0.00    +0.014 C 
ATOM     56  H   UNL     1       3.387   4.542  16.019  0.00  0.00    +0.046 HD
ATOM     57  H   UNL     1       3.851   2.902  15.478  0.00  0.00    +0.046 HD
ATOM     58  H   UNL     1       4.321   3.462  17.104  0.00  0.00    +0.046 HD
ENDBRANCH  53  55
ENDBRANCH  46  49
ENDBRANCH  40  46
ENDBRANCH   1  40
TORSDOF 12
ENDMDL
MODEL 14
REMARK VINA RESULT:    -7.825      3.027      4.542
REMARK INTER + INTRA:         -11.673
REMARK INTER:                 -10.626
REMARK INTRA:                  -1.046
REMARK UNBOUND:                 0.498
REMARK  Name = 
REMARK  12 active torsions:
REMARK  status: ('A' for Active; 'I' for Inactive)
REMARK    1  A    between atoms: C_1  and  C_2
REMARK    2  A    between atoms: C_2  and  C_3
REMARK    3  A    between atoms: C_2  and  C_10
REMARK    4  A    between atoms: C_3  and  C_4
REMARK    5  A    between atoms: N_8  and  C_9
REMARK    6  A    between atoms: C_12  and  N_13
REMARK    7  A    between atoms: C_14  and  C_16
REMARK    8  A    between atoms: C_19  and  C_20
REMARK    9  A    between atoms: C_20  and  C_21
REMARK   10  A    between atoms: C_20  and  C_22
REMARK   11  A    between atoms: C_20  and  C_23
REMARK   12  A    between atoms: C_27  and  C_28
REMARK                            x       y       z     vdW  Elec       q    Type
REMARK                         _______ _______ _______ _____ _____    ______ ____
ROOT
ATOM      1  C   UNL     1       3.118   4.604  17.625  0.00  0.00    -0.042 A 
ATOM      2  C   UNL     1       2.412   5.665  18.215  0.00  0.00    -0.037 A 
ATOM      3  C   UNL     1       3.059   6.841  18.611  0.00  0.00    +0.035 A 
ATOM      4  C   UNL     1       4.435   6.958  18.415  0.00  0.00    -0.029 A 
ATOM      5  C   UNL     1       5.167   5.915  17.823  0.00  0.00    +0.057 A 
ATOM      6  C   UNL     1       4.501   4.742  17.437  0.00  0.00    -0.047 A 
ATOM      7  H   UNL     1       1.338   5.568  18.369  0.00  0.00    +0.064 HD
ATOM      8  H   UNL     1       4.970   7.857  18.714  0.00  0.00    +0.064 HD
ATOM      9  H   UNL     1       5.073   3.932  16.984  0.00  0.00    +0.063 HD
ENDROOT
BRANCH   3  10
ATOM     10  N   UNL     1       2.264   7.846  19.185  0.00  0.00    -0.280 N 
ATOM     11  C   UNL     1       1.774   8.997  18.598  0.00  0.00    +0.267 C 
ATOM     12  O   UNL     1       1.956   9.377  17.447  0.00  0.00    -0.268 OA
ATOM     13  H   UNL     1       1.998   7.746  20.162  0.00  0.00    +0.155 HD
BRANCH  11  14
ATOM     14  C   UNL     1       0.930   9.809  19.537  0.00  0.00    +0.126 A 
ATOM     15  C   UNL     1       0.813   9.442  20.867  0.00  0.00    -0.031 A 
ATOM     16  C   UNL     1       0.031  10.239  21.704  0.00  0.00    -0.054 A 
ATOM     17  C   UNL     1      -0.616  11.378  21.208  0.00  0.00    -0.024 A 
ATOM     18  C   UNL     1      -0.427  11.646  19.847  0.00  0.00    +0.032 A 
ATOM     19  N   UNL     1       0.321  10.901  18.999  0.00  0.00    -0.250 NA
ATOM     20  H   UNL     1       1.316   8.561  21.250  0.00  0.00    +0.064 HD
ATOM     21  H   UNL     1      -0.050   9.944  22.748  0.00  0.00    +0.062 HD
ATOM     22  H   UNL     1      -0.892  12.511  19.376  0.00  0.00    +0.083 HD
BRANCH  17  23
ATOM     23  C   UNL     1      -1.471  12.310  22.079  0.00  0.00    -0.011 C 
BRANCH  23  24
ATOM     24  C   UNL     1      -2.664  12.830  21.248  0.00  0.00    -0.056 C 
ATOM     25  H   UNL     1      -2.795  13.911  21.376  0.00  0.00    +0.024 HD
ATOM     26  H   UNL     1      -3.607  12.355  21.539  0.00  0.00    +0.024 HD
ATOM     27  H   UNL     1      -2.515  12.639  20.178  0.00  0.00    +0.024 HD
ENDBRANCH  23  24
BRANCH  23  28
ATOM     28  C   UNL     1      -2.007  11.545  23.308  0.00  0.00    -0.056 C 
ATOM     29  H   UNL     1      -3.076  11.736  23.459  0.00  0.00    +0.024 HD
ATOM     30  H   UNL     1      -1.488  11.826  24.231  0.00  0.00    +0.024 HD
ATOM     31  H   UNL     1      -1.875  10.462  23.187  0.00  0.00    +0.024 HD
ENDBRANCH  23  28
BRANCH  23  32
ATOM     32  C   UNL     1      -0.704  13.542  22.607  0.00  0.00    -0.056 C 
ATOM     33  H   UNL     1      -1.377  14.382  22.810  0.00  0.00    +0.024 HD
ATOM     34  H   UNL     1      -0.190  13.309  23.548  0.00  0.00    +0.024 HD
ATOM     35  H   UNL     1       0.059  13.878  21.894  0.00  0.00    +0.024 HD
ENDBRANCH  23  32
ENDBRANCH  17  23
ENDBRANCH  11  14
ENDBRANCH   3  10
BRANCH   5  36
ATOM     36  C   UNL     1       6.658   6.056  17.636  0.00  0.00    +0.417 C 
ATOM     37  F   UNL     1       7.138   5.328  16.588  0.00  0.00    -0.166 F 
ATOM     38  F   UNL     1       7.048   7.339  17.398  0.00  0.00    -0.166 F 
ATOM     39  F   UNL     1       7.361   5.642  18.727  0.00  0.00    -0.166 F 
ENDBRANCH   5  36
BRANCH   1  40
ATOM     40  C   UNL     1       2.374   3.347  17.193  0.00  0.00    -0.012 C 
ATOM     41  H   UNL     1       2.670   3.116  16.161  0.00  0.00    +0.035 HD
BRANCH  40  42
ATOM     42  C   UNL     1       0.859   3.586  17.172  0.00  0.00    -0.058 C 
ATOM     43  H   UNL     1       0.325   2.668  16.907  0.00  0.00    +0.024 HD
ATOM     44  H   UNL     1       0.578   4.356  16.448  0.00  0.00    +0.024 HD
ATOM     45  H   UNL     1       0.496   3.906  18.155  0.00  0.00    +0.024 HD
ENDBRANCH  40  42
BRANCH  40  46
ATOM     46  C   UNL     1       2.770   2.156  18.091  0.00  0.00    +0.014 C 
ATOM     47  H   UNL     1       3.849   1.966  18.025  0.00  0.00    +0.035 HD
ATOM     48  H   UNL     1       2.284   1.237  17.734  0.00  0.00    +0.035 HD
BRANCH  46  49
ATOM     49  C   UNL     1       2.404   2.377  19.519  0.00  0.00    +0.134 A 
ATOM     50  N   UNL     1       1.188   2.538  19.998  0.00  0.00    -0.135 NA
ATOM     51  N   UNL     1       1.281   2.704  21.359  0.00  0.00    -0.138 NA
ATOM     52  C   UNL     1       2.549   2.649  21.681  0.00  0.00    +0.120 A 
ATOM     53  N   UNL     1       3.292   2.446  20.560  0.00  0.00    -0.320 N 
ATOM     54  H   UNL     1       2.957   2.747  22.677  0.00  0.00    +0.105 HD
BRANCH  53  55
ATOM     55  C   UNL     1       4.722   2.317  20.505  0.00  0.00    +0.014 C 
ATOM     56  H   UNL     1       5.013   1.450  21.103  0.00  0.00    +0.046 HD
ATOM     57  H   UNL     1       5.040   2.175  19.470  0.00  0.00    +0.046 HD
ATOM     58  H   UNL     1       5.178   3.225  20.903  0.00  0.00    +0.046 HD
ENDBRANCH  53  55
ENDBRANCH  46  49
ENDBRANCH  40  46
ENDBRANCH   1  40
TORSDOF 12
ENDMDL
MODEL 15
REMARK VINA RESULT:    -7.768      1.884      2.642
REMARK INTER + INTRA:         -11.585
REMARK INTER:                 -11.447
REMARK INTRA:                  -0.137
REMARK UNBOUND:                 0.498
REMARK  Name = 
REMARK  12 active torsions:
REMARK  status: ('A' for Active; 'I' for Inactive)
REMARK    1  A    between atoms: C_1  and  C_2
REMARK    2  A    between atoms: C_2  and  C_3
REMARK    3  A    between atoms: C_2  and  C_10
REMARK    4  A    between atoms: C_3  and  C_4
REMARK    5  A    between atoms: N_8  and  C_9
REMARK    6  A    between atoms: C_12  and  N_13
REMARK    7  A    between atoms: C_14  and  C_16
REMARK    8  A    between atoms: C_19  and  C_20
REMARK    9  A    between atoms: C_20  and  C_21
REMARK   10  A    between atoms: C_20  and  C_22
REMARK   11  A    between atoms: C_20  and  C_23
REMARK   12  A    between atoms: C_27  and  C_28
REMARK                            x       y       z     vdW  Elec       q    Type
REMARK                         _______ _______ _______ _____ _____    ______ ____
ROOT
ATOM      1  C   UNL     1       3.844   4.863  18.643  0.00  0.00    -0.042 A 
ATOM      2  C   UNL     1       3.287   6.122  18.925  0.00  0.00    -0.037 A 
ATOM      3  C   UNL     1       2.347   6.291  19.948  0.00  0.00    +0.035 A 
ATOM      4  C   UNL     1       1.956   5.184  20.701  0.00  0.00    -0.029 A 
ATOM      5  C   UNL     1       2.499   3.914  20.445  0.00  0.00    +0.057 A 
ATOM      6  C   UNL     1       3.436   3.764  19.411  0.00  0.00    -0.047 A 
ATOM      7  H   UNL     1       3.593   6.982  18.332  0.00  0.00    +0.064 HD
ATOM      8  H   UNL     1       1.226   5.280  21.501  0.00  0.00    +0.064 HD
ATOM      9  H   UNL     1       3.850   2.775  19.211  0.00  0.00    +0.063 HD
ENDROOT
BRANCH   3  10
ATOM     10  N   UNL     1       1.855   7.590  20.155  0.00  0.00    -0.280 N 
ATOM     11  C   UNL     1       1.581   8.567  19.218  0.00  0.00    +0.267 C 
ATOM     12  O   UNL     1       1.733   8.492  18.004  0.00  0.00    -0.268 OA
ATOM     13  H   UNL     1       1.667   7.883  21.112  0.00  0.00    +0.155 HD
BRANCH  11  14
ATOM     14  C   UNL     1       1.034   9.821  19.834  0.00  0.00    +0.126 A 
ATOM     15  C   UNL     1       1.102  11.024  19.152  0.00  0.00    -0.031 A 
ATOM     16  C   UNL     1       0.564  12.159  19.759  0.00  0.00    -0.054 A 
ATOM     17  C   UNL     1      -0.028  12.078  21.026  0.00  0.00    -0.024 A 
ATOM     18  C   UNL     1      -0.035  10.811  21.620  0.00  0.00    +0.032 A 
ATOM     19  N   UNL     1       0.475   9.685  21.069  0.00  0.00    -0.250 NA
ATOM     20  H   UNL     1       1.560  11.083  18.170  0.00  0.00    +0.064 HD
ATOM     21  H   UNL     1       0.620  13.096  19.212  0.00  0.00    +0.062 HD
ATOM     22  H   UNL     1      -0.475  10.655  22.604  0.00  0.00    +0.083 HD
BRANCH  17  23
ATOM     23  C   UNL     1      -0.659  13.282  21.741  0.00  0.00    -0.011 C 
BRANCH  23  24
ATOM     24  C   UNL     1      -1.776  13.872  20.852  0.00  0.00    -0.056 C 
ATOM     25  H   UNL     1      -2.707  13.997  21.418  0.00  0.00    +0.024 HD
ATOM     26  H   UNL     1      -2.004  13.228  19.996  0.00  0.00    +0.024 HD
ATOM     27  H   UNL     1      -1.491  14.856  20.459  0.00  0.00    +0.024 HD
ENDBRANCH  23  24
BRANCH  23  28
ATOM     28  C   UNL     1      -1.266  12.842  23.090  0.00  0.00    -0.056 C 
ATOM     29  H   UNL     1      -1.635  13.703  23.659  0.00  0.00    +0.024 HD
ATOM     30  H   UNL     1      -0.540  12.317  23.721  0.00  0.00    +0.024 HD
ATOM     31  H   UNL     1      -2.109  12.156  22.937  0.00  0.00    +0.024 HD
ENDBRANCH  23  28
BRANCH  23  32
ATOM     32  C   UNL     1       0.342  14.421  22.041  0.00  0.00    -0.056 C 
ATOM     33  H   UNL     1      -0.074  15.403  21.788  0.00  0.00    +0.024 HD
ATOM     34  H   UNL     1       0.597  14.446  23.107  0.00  0.00    +0.024 HD
ATOM     35  H   UNL     1       1.278  14.291  21.485  0.00  0.00    +0.024 HD
ENDBRANCH  23  32
ENDBRANCH  17  23
ENDBRANCH  11  14
ENDBRANCH   3  10
BRANCH   5  36
ATOM     36  C   UNL     1       2.048   2.726  21.260  0.00  0.00    +0.417 C 
ATOM     37  F   UNL     1       1.504   1.732  20.502  0.00  0.00    -0.166 F 
ATOM     38  F   UNL     1       3.062   2.141  21.957  0.00  0.00    -0.166 F 
ATOM     39  F   UNL     1       1.098   3.054  22.179  0.00  0.00    -0.166 F 
ENDBRANCH   5  36
BRANCH   1  40
ATOM     40  C   UNL     1       4.875   4.724  17.531  0.00  0.00    -0.012 C 
ATOM     41  H   UNL     1       4.820   5.624  16.904  0.00  0.00    +0.035 HD
BRANCH  40  42
ATOM     42  C   UNL     1       4.546   3.534  16.622  0.00  0.00    -0.058 C 
ATOM     43  H   UNL     1       3.631   3.723  16.050  0.00  0.00    +0.024 HD
ATOM     44  H   UNL     1       4.399   2.613  17.192  0.00  0.00    +0.024 HD
ATOM     45  H   UNL     1       5.352   3.353  15.902  0.00  0.00    +0.024 HD
ENDBRANCH  40  42
BRANCH  40  46
ATOM     46  C   UNL     1       6.296   4.636  18.127  0.00  0.00    +0.014 C 
ATOM     47  H   UNL     1       6.897   3.896  17.583  0.00  0.00    +0.035 HD
ATOM     48  H   UNL     1       6.248   4.275  19.164  0.00  0.00    +0.035 HD
BRANCH  46  49
ATOM     49  C   UNL     1       7.004   5.948  18.100  0.00  0.00    +0.134 A 
ATOM     50  N   UNL     1       7.972   6.330  18.906  0.00  0.00    -0.135 NA
ATOM     51  N   UNL     1       8.357   7.599  18.544  0.00  0.00    -0.138 NA
ATOM     52  C   UNL     1       7.612   7.967  17.532  0.00  0.00    +0.120 A 
ATOM     53  N   UNL     1       6.748   6.965  17.217  0.00  0.00    -0.320 N 
ATOM     54  H   UNL     1       7.664   8.915  17.016  0.00  0.00    +0.105 HD
BRANCH  53  55
ATOM     55  C   UNL     1       5.778   6.984  16.157  0.00  0.00    +0.014 C 
ATOM     56  H   UNL     1       6.028   7.804  15.478  0.00  0.00    +0.046 HD
ATOM     57  H   UNL     1       5.803   6.036  15.617  0.00  0.00    +0.046 HD
ATOM     58  H   UNL     1       4.785   7.133  16.584  0.00  0.00    +0.046 HD
ENDBRANCH  53  55
ENDBRANCH  46  49
ENDBRANCH  40  46
ENDBRANCH   1  40
TORSDOF 12
ENDMDL
MODEL 16
REMARK VINA RESULT:    -7.728      4.136     10.002
REMARK INTER + INTRA:         -11.522
REMARK INTER:                 -10.348
REMARK INTRA:                  -1.175
REMARK UNBOUND:                 0.498
REMARK  Name = 
REMARK  12 active torsions:
REMARK  status: ('A' for Active; 'I' for Inactive)
REMARK    1  A    between atoms: C_1  and  C_2
REMARK    2  A    between atoms: C_2  and  C_3
REMARK    3  A    between atoms: C_2  and  C_10
REMARK    4  A    between atoms: C_3  and  C_4
REMARK    5  A    between atoms: N_8  and  C_9
REMARK    6  A    between atoms: C_12  and  N_13
REMARK    7  A    between atoms: C_14  and  C_16
REMARK    8  A    between atoms: C_19  and  C_20
REMARK    9  A    between atoms: C_20  and  C_21
REMARK   10  A    between atoms: C_20  and  C_22
REMARK   11  A    between atoms: C_20  and  C_23
REMARK   12  A    between atoms: C_27  and  C_28
REMARK                            x       y       z     vdW  Elec       q    Type
REMARK                         _______ _______ _______ _____ _____    ______ ____
ROOT
ATOM      1  C   UNL     1      -0.443  12.445  19.324  0.00  0.00    -0.042 A 
ATOM      2  C   UNL     1       0.473  11.413  19.059  0.00  0.00    -0.037 A 
ATOM      3  C   UNL     1       0.085  10.247  18.389  0.00  0.00    +0.035 A 
ATOM      4  C   UNL     1      -1.241  10.109  17.977  0.00  0.00    -0.029 A 
ATOM      5  C   UNL     1      -2.178  11.127  18.224  0.00  0.00    +0.057 A 
ATOM      6  C   UNL     1      -1.770  12.286  18.902  0.00  0.00    -0.047 A 
ATOM      7  H   UNL     1       1.506  11.523  19.386  0.00  0.00    +0.064 HD
ATOM      8  H   UNL     1      -1.576   9.216  17.457  0.00  0.00    +0.064 HD
ATOM      9  H   UNL     1      -2.503  13.070  19.098  0.00  0.00    +0.063 HD
ENDROOT
BRANCH   3  10
ATOM     10  N   UNL     1       1.076   9.278  18.166  0.00  0.00    -0.280 N 
ATOM     11  C   UNL     1       1.681   8.438  19.082  0.00  0.00    +0.267 C 
ATOM     12  O   UNL     1       1.477   8.390  20.290  0.00  0.00    -0.268 OA
ATOM     13  H   UNL     1       1.418   9.152  17.216  0.00  0.00    +0.155 HD
BRANCH  11  14
ATOM     14  C   UNL     1       2.677   7.513  18.447  0.00  0.00    +0.126 A 
ATOM     15  C   UNL     1       3.467   7.949  17.398  0.00  0.00    -0.031 A 
ATOM     16  C   UNL     1       4.391   7.057  16.852  0.00  0.00    -0.054 A 
ATOM     17  C   UNL     1       4.510   5.755  17.355  0.00  0.00    -0.024 A 
ATOM     18  C   UNL     1       3.656   5.426  18.414  0.00  0.00    +0.032 A 
ATOM     19  N   UNL     1       2.746   6.258  18.973  0.00  0.00    -0.250 NA
ATOM     20  H   UNL     1       3.374   8.959  17.010  0.00  0.00    +0.064 HD
ATOM     21  H   UNL     1       5.009   7.412  16.031  0.00  0.00    +0.062 HD
ATOM     22  H   UNL     1       3.680   4.437  18.868  0.00  0.00    +0.083 HD
BRANCH  17  23
ATOM     23  C   UNL     1       5.520   4.732  16.816  0.00  0.00    -0.011 C 
BRANCH  23  24
ATOM     24  C   UNL     1       4.909   3.317  16.908  0.00  0.00    -0.056 C 
ATOM     25  H   UNL     1       5.340   2.649  16.152  0.00  0.00    +0.024 HD
ATOM     26  H   UNL     1       3.825   3.326  16.749  0.00  0.00    +0.024 HD
ATOM     27  H   UNL     1       5.095   2.868  17.891  0.00  0.00    +0.024 HD
ENDBRANCH  23  24
BRANCH  23  28
ATOM     28  C   UNL     1       5.857   5.043  15.342  0.00  0.00    -0.056 C 
ATOM     29  H   UNL     1       5.957   4.122  14.756  0.00  0.00    +0.024 HD
ATOM     30  H   UNL     1       6.794   5.602  15.238  0.00  0.00    +0.024 HD
ATOM     31  H   UNL     1       5.070   5.651  14.878  0.00  0.00    +0.024 HD
ENDBRANCH  23  28
BRANCH  23  32
ATOM     32  C   UNL     1       6.855   4.709  17.594  0.00  0.00    -0.056 C 
ATOM     33  H   UNL     1       6.966   5.591  18.235  0.00  0.00    +0.024 HD
ATOM     34  H   UNL     1       6.912   3.830  18.247  0.00  0.00    +0.024 HD
ATOM     35  H   UNL     1       7.715   4.667  16.916  0.00  0.00    +0.024 HD
ENDBRANCH  23  32
ENDBRANCH  17  23
ENDBRANCH  11  14
ENDBRANCH   3  10
BRANCH   5  36
ATOM     36  C   UNL     1      -3.611  10.950  17.786  0.00  0.00    +0.417 C 
ATOM     37  F   UNL     1      -4.014   9.647  17.786  0.00  0.00    -0.166 F 
ATOM     38  F   UNL     1      -4.499  11.606  18.583  0.00  0.00    -0.166 F 
ATOM     39  F   UNL     1      -3.830  11.404  16.521  0.00  0.00    -0.166 F 
ENDBRANCH   5  36
BRANCH   1  40
ATOM     40  C   UNL     1       0.023  13.704  20.042  0.00  0.00    -0.012 C 
ATOM     41  H   UNL     1      -0.811  14.418  20.049  0.00  0.00    +0.035 HD
BRANCH  40  42
ATOM     42  C   UNL     1       1.171  14.378  19.281  0.00  0.00    -0.058 C 
ATOM     43  H   UNL     1       0.893  14.556  18.236  0.00  0.00    +0.024 HD
ATOM     44  H   UNL     1       2.078  13.767  19.285  0.00  0.00    +0.024 HD
ATOM     45  H   UNL     1       1.422  15.348  19.724  0.00  0.00    +0.024 HD
ENDBRANCH  40  42
BRANCH  40  46
ATOM     46  C   UNL     1       0.396  13.380  21.504  0.00  0.00    +0.014 C 
ATOM     47  H   UNL     1       0.778  14.274  22.012  0.00  0.00    +0.035 HD
ATOM     48  H   UNL     1       1.216  12.649  21.531  0.00  0.00    +0.035 HD
BRANCH  46  49
ATOM     49  C   UNL     1      -0.761  12.842  22.277  0.00  0.00    +0.134 A 
ATOM     50  N   UNL     1      -0.938  11.592  22.650  0.00  0.00    -0.135 NA
ATOM     51  N   UNL     1      -2.119  11.515  23.348  0.00  0.00    -0.138 NA
ATOM     52  C   UNL     1      -2.641  12.715  23.379  0.00  0.00    +0.120 A 
ATOM     53  N   UNL     1      -1.826  13.582  22.721  0.00  0.00    -0.320 N 
ATOM     54  H   UNL     1      -3.574  12.991  23.852  0.00  0.00    +0.105 HD
BRANCH  53  55
ATOM     55  C   UNL     1      -2.049  14.991  22.550  0.00  0.00    +0.014 C 
ATOM     56  H   UNL     1      -2.778  15.128  21.748  0.00  0.00    +0.046 HD
ATOM     57  H   UNL     1      -2.434  15.418  23.478  0.00  0.00    +0.046 HD
ATOM     58  H   UNL     1      -1.105  15.473  22.293  0.00  0.00    +0.046 HD
ENDBRANCH  53  55
ENDBRANCH  46  49
ENDBRANCH  40  46
ENDBRANCH   1  40
TORSDOF 12
ENDMDL
MODEL 17
REMARK VINA RESULT:    -7.728      3.105      4.732
REMARK INTER + INTRA:         -11.522
REMARK INTER:                 -11.006
REMARK INTRA:                  -0.516
REMARK UNBOUND:                 0.498
REMARK  Name = 
REMARK  12 active torsions:
REMARK  status: ('A' for Active; 'I' for Inactive)
REMARK    1  A    between atoms: C_1  and  C_2
REMARK    2  A    between atoms: C_2  and  C_3
REMARK    3  A    between atoms: C_2  and  C_10
REMARK    4  A    between atoms: C_3  and  C_4
REMARK    5  A    between atoms: N_8  and  C_9
REMARK    6  A    between atoms: C_12  and  N_13
REMARK    7  A    between atoms: C_14  and  C_16
REMARK    8  A    between atoms: C_19  and  C_20
REMARK    9  A    between atoms: C_20  and  C_21
REMARK   10  A    between atoms: C_20  and  C_22
REMARK   11  A    between atoms: C_20  and  C_23
REMARK   12  A    between atoms: C_27  and  C_28
REMARK                            x       y       z     vdW  Elec       q    Type
REMARK                         _______ _______ _______ _____ _____    ______ ____
ROOT
ATOM      1  C   UNL     1       4.256   3.905  17.900  0.00  0.00    -0.042 A 
ATOM      2  C   UNL     1       3.394   4.988  18.139  0.00  0.00    -0.037 A 
ATOM      3  C   UNL     1       3.883   6.229  18.564  0.00  0.00    +0.035 A 
ATOM      4  C   UNL     1       5.255   6.390  18.754  0.00  0.00    -0.029 A 
ATOM      5  C   UNL     1       6.142   5.326  18.518  0.00  0.00    +0.057 A 
ATOM      6  C   UNL     1       5.632   4.087  18.098  0.00  0.00    -0.047 A 
ATOM      7  H   UNL     1       2.323   4.857  17.992  0.00  0.00    +0.064 HD
ATOM      8  H   UNL     1       5.668   7.339  19.086  0.00  0.00    +0.064 HD
ATOM      9  H   UNL     1       6.323   3.262  17.922  0.00  0.00    +0.063 HD
ENDROOT
BRANCH   3  10
ATOM     10  N   UNL     1       2.941   7.251  18.769  0.00  0.00    -0.280 N 
ATOM     11  C   UNL     1       2.058   7.410  19.820  0.00  0.00    +0.267 C 
ATOM     12  O   UNL     1       1.912   6.667  20.784  0.00  0.00    -0.268 OA
ATOM     13  H   UNL     1       2.873   7.986  18.069  0.00  0.00    +0.155 HD
BRANCH  11  14
ATOM     14  C   UNL     1       1.230   8.655  19.694  0.00  0.00    +0.126 A 
ATOM     15  C   UNL     1       1.204   9.360  18.503  0.00  0.00    -0.031 A 
ATOM     16  C   UNL     1       0.405  10.502  18.430  0.00  0.00    -0.054 A 
ATOM     17  C   UNL     1      -0.346  10.920  19.536  0.00  0.00    -0.024 A 
ATOM     18  C   UNL     1      -0.236  10.131  20.686  0.00  0.00    +0.032 A 
ATOM     19  N   UNL     1       0.525   9.017  20.802  0.00  0.00    -0.250 NA
ATOM     20  H   UNL     1       1.785   9.033  17.647  0.00  0.00    +0.064 HD
ATOM     21  H   UNL     1       0.389  11.045  17.488  0.00  0.00    +0.062 HD
ATOM     22  H   UNL     1      -0.785  10.380  21.593  0.00  0.00    +0.083 HD
BRANCH  17  23
ATOM     23  C   UNL     1      -1.262  12.153  19.516  0.00  0.00    -0.011 C 
BRANCH  23  24
ATOM     24  C   UNL     1      -1.488  12.642  20.963  0.00  0.00    -0.056 C 
ATOM     25  H   UNL     1      -2.101  13.551  20.983  0.00  0.00    +0.024 HD
ATOM     26  H   UNL     1      -0.546  12.878  21.470  0.00  0.00    +0.024 HD
ATOM     27  H   UNL     1      -2.003  11.881  21.562  0.00  0.00    +0.024 HD
ENDBRANCH  23  24
BRANCH  23  28
ATOM     28  C   UNL     1      -0.610  13.287  18.695  0.00  0.00    -0.056 C 
ATOM     29  H   UNL     1      -0.056  12.887  17.838  0.00  0.00    +0.024 HD
ATOM     30  H   UNL     1       0.089  13.883  19.292  0.00  0.00    +0.024 HD
ATOM     31  H   UNL     1      -1.369  13.979  18.309  0.00  0.00    +0.024 HD
ENDBRANCH  23  28
BRANCH  23  32
ATOM     32  C   UNL     1      -2.652  11.883  18.897  0.00  0.00    -0.056 C 
ATOM     33  H   UNL     1      -2.955  12.688  18.217  0.00  0.00    +0.024 HD
ATOM     34  H   UNL     1      -2.646  10.955  18.313  0.00  0.00    +0.024 HD
ATOM     35  H   UNL     1      -3.422  11.778  19.669  0.00  0.00    +0.024 HD
ENDBRANCH  23  32
ENDBRANCH  17  23
ENDBRANCH  11  14
ENDBRANCH   3  10
BRANCH   5  36
ATOM     36  C   UNL     1       7.621   5.516  18.748  0.00  0.00    +0.417 C 
ATOM     37  F   UNL     1       8.096   6.688  18.238  0.00  0.00    -0.166 F 
ATOM     38  F   UNL     1       7.960   5.527  20.067  0.00  0.00    -0.166 F 
ATOM     39  F   UNL     1       8.369   4.533  18.173  0.00  0.00    -0.166 F 
ENDBRANCH   5  36
BRANCH   1  40
ATOM     40  C   UNL     1       3.686   2.576  17.423  0.00  0.00    -0.012 C 
ATOM     41  H   UNL     1       4.398   2.137  16.712  0.00  0.00    +0.035 HD
BRANCH  40  42
ATOM     42  C   UNL     1       2.374   2.784  16.657  0.00  0.00    -0.058 C 
ATOM     43  H   UNL     1       2.217   1.981  15.929  0.00  0.00    +0.024 HD
ATOM     44  H   UNL     1       2.364   3.733  16.114  0.00  0.00    +0.024 HD
ATOM     45  H   UNL     1       1.515   2.782  17.338  0.00  0.00    +0.024 HD
ENDBRANCH  40  42
BRANCH  40  46
ATOM     46  C   UNL     1       3.527   1.604  18.612  0.00  0.00    +0.014 C 
ATOM     47  H   UNL     1       4.505   1.225  18.933  0.00  0.00    +0.035 HD
ATOM     48  H   UNL     1       2.953   0.720  18.302  0.00  0.00    +0.035 HD
BRANCH  46  49
ATOM     49  C   UNL     1       2.849   2.242  19.777  0.00  0.00    +0.134 A 
ATOM     50  N   UNL     1       3.429   2.680  20.874  0.00  0.00    -0.135 NA
ATOM     51  N   UNL     1       2.459   3.206  21.694  0.00  0.00    -0.138 NA
ATOM     52  C   UNL     1       1.308   3.071  21.083  0.00  0.00    +0.120 A 
ATOM     53  N   UNL     1       1.502   2.472  19.878  0.00  0.00    -0.320 N 
ATOM     54  H   UNL     1       0.346   3.383  21.464  0.00  0.00    +0.105 HD
BRANCH  53  55
ATOM     55  C   UNL     1       0.483   2.164  18.912  0.00  0.00    +0.014 C 
ATOM     56  H   UNL     1       0.615   1.128  18.592  0.00  0.00    +0.046 HD
ATOM     57  H   UNL     1      -0.503   2.289  19.363  0.00  0.00    +0.046 HD
ATOM     58  H   UNL     1       0.582   2.841  18.061  0.00  0.00    +0.046 HD
ENDBRANCH  53  55
ENDBRANCH  46  49
ENDBRANCH  40  46
ENDBRANCH   1  40
TORSDOF 12
ENDMDL
MODEL 18
REMARK VINA RESULT:    -7.683      3.029      4.732
REMARK INTER + INTRA:         -11.452
REMARK INTER:                 -10.583
REMARK INTRA:                  -0.869
REMARK UNBOUND:                 0.498
REMARK  Name = 
REMARK  12 active torsions:
REMARK  status: ('A' for Active; 'I' for Inactive)
REMARK    1  A    between atoms: C_1  and  C_2
REMARK    2  A    between atoms: C_2  and  C_3
REMARK    3  A    between atoms: C_2  and  C_10
REMARK    4  A    between atoms: C_3  and  C_4
REMARK    5  A    between atoms: N_8  and  C_9
REMARK    6  A    between atoms: C_12  and  N_13
REMARK    7  A    between atoms: C_14  and  C_16
REMARK    8  A    between atoms: C_19  and  C_20
REMARK    9  A    between atoms: C_20  and  C_21
REMARK   10  A    between atoms: C_20  and  C_22
REMARK   11  A    between atoms: C_20  and  C_23
REMARK   12  A    between atoms: C_27  and  C_28
REMARK                            x       y       z     vdW  Elec       q    Type
REMARK                         _______ _______ _______ _____ _____    ______ ____
ROOT
ATOM      1  C   UNL     1       3.486   4.271  17.473  0.00  0.00    -0.042 A 
ATOM      2  C   UNL     1       2.825   5.450  17.854  0.00  0.00    -0.037 A 
ATOM      3  C   UNL     1       3.531   6.630  18.116  0.00  0.00    +0.035 A 
ATOM      4  C   UNL     1       4.921   6.631  17.996  0.00  0.00    -0.029 A 
ATOM      5  C   UNL     1       5.609   5.468  17.612  0.00  0.00    +0.057 A 
ATOM      6  C   UNL     1       4.883   4.293  17.359  0.00  0.00    -0.047 A 
ATOM      7  H   UNL     1       1.741   5.444  17.950  0.00  0.00    +0.064 HD
ATOM      8  H   UNL     1       5.500   7.529  18.195  0.00  0.00    +0.064 HD
ATOM      9  H   UNL     1       5.422   3.391  17.068  0.00  0.00    +0.063 HD
ENDROOT
BRANCH   3  10
ATOM     10  N   UNL     1       2.778   7.757  18.483  0.00  0.00    -0.280 N 
ATOM     11  C   UNL     1       1.987   7.937  19.602  0.00  0.00    +0.267 C 
ATOM     12  O   UNL     1       1.774   7.127  20.497  0.00  0.00    -0.268 OA
ATOM     13  H   UNL     1       2.793   8.565  17.865  0.00  0.00    +0.155 HD
BRANCH  11  14
ATOM     14  C   UNL     1       1.366   9.302  19.655  0.00  0.00    +0.126 A 
ATOM     15  C   UNL     1       1.272  10.073  18.510  0.00  0.00    -0.031 A 
ATOM     16  C   UNL     1       0.670  11.328  18.606  0.00  0.00    -0.054 A 
ATOM     17  C   UNL     1       0.176  11.791  19.833  0.00  0.00    -0.024 A 
ATOM     18  C   UNL     1       0.331  10.926  20.922  0.00  0.00    +0.032 A 
ATOM     19  N   UNL     1       0.908   9.702  20.874  0.00  0.00    -0.250 NA
ATOM     20  H   UNL     1       1.654   9.712  17.560  0.00  0.00    +0.064 HD
ATOM     21  H   UNL     1       0.598  11.923  17.699  0.00  0.00    +0.062 HD
ATOM     22  H   UNL     1      -0.024  11.203  21.913  0.00  0.00    +0.083 HD
BRANCH  17  23
ATOM     23  C   UNL     1      -0.518  13.150  20.004  0.00  0.00    -0.011 C 
BRANCH  23  24
ATOM     24  C   UNL     1      -0.169  14.054  18.801  0.00  0.00    -0.056 C 
ATOM     25  H   UNL     1      -0.960  14.027  18.043  0.00  0.00    +0.024 HD
ATOM     26  H   UNL     1       0.759  13.745  18.309  0.00  0.00    +0.024 HD
ATOM     27  H   UNL     1      -0.044  15.098  19.114  0.00  0.00    +0.024 HD
ENDBRANCH  23  24
BRANCH  23  28
ATOM     28  C   UNL     1      -2.048  12.962  20.067  0.00  0.00    -0.056 C 
ATOM     29  H   UNL     1      -2.556  13.590  19.326  0.00  0.00    +0.024 HD
ATOM     30  H   UNL     1      -2.459  13.215  21.051  0.00  0.00    +0.024 HD
ATOM     31  H   UNL     1      -2.325  11.919  19.866  0.00  0.00    +0.024 HD
ENDBRANCH  23  28
BRANCH  23  32
ATOM     32  C   UNL     1      -0.098  13.905  21.286  0.00  0.00    -0.056 C 
ATOM     33  H   UNL     1       0.807  14.502  21.126  0.00  0.00    +0.024 HD
ATOM     34  H   UNL     1      -0.885  14.597  21.607  0.00  0.00    +0.024 HD
ATOM     35  H   UNL     1       0.088  13.214  22.116  0.00  0.00    +0.024 HD
ENDBRANCH  23  32
ENDBRANCH  17  23
ENDBRANCH  11  14
ENDBRANCH   3  10
BRANCH   5  36
ATOM     36  C   UNL     1       7.114   5.486  17.506  0.00  0.00    +0.417 C 
ATOM     37  F   UNL     1       7.737   5.499  18.719  0.00  0.00    -0.166 F 
ATOM     38  F   UNL     1       7.617   4.404  16.849  0.00  0.00    -0.166 F 
ATOM     39  F   UNL     1       7.577   6.582  16.842  0.00  0.00    -0.166 F 
ENDBRANCH   5  36
BRANCH   1  40
ATOM     40  C   UNL     1       2.680   3.012  17.182  0.00  0.00    -0.012 C 
ATOM     41  H   UNL     1       2.966   2.650  16.185  0.00  0.00    +0.035 HD
BRANCH  40  42
ATOM     42  C   UNL     1       1.180   3.322  17.122  0.00  0.00    -0.058 C 
ATOM     43  H   UNL     1       0.649   2.837  17.949  0.00  0.00    +0.024 HD
ATOM     44  H   UNL     1       0.728   2.977  16.188  0.00  0.00    +0.024 HD
ATOM     45  H   UNL     1       0.996   4.399  17.201  0.00  0.00    +0.024 HD
ENDBRANCH  40  42
BRANCH  40  46
ATOM     46  C   UNL     1       3.014   1.912  18.211  0.00  0.00    +0.014 C 
ATOM     47  H   UNL     1       4.095   1.719  18.232  0.00  0.00    +0.035 HD
ATOM     48  H   UNL     1       2.548   0.963  17.914  0.00  0.00    +0.035 HD
BRANCH  46  49
ATOM     49  C   UNL     1       2.561   2.268  19.587  0.00  0.00    +0.134 A 
ATOM     50  N   UNL     1       1.323   2.515  19.961  0.00  0.00    -0.135 NA
ATOM     51  N   UNL     1       1.328   2.793  21.307  0.00  0.00    -0.138 NA
ATOM     52  C   UNL     1       2.567   2.717  21.724  0.00  0.00    +0.120 A 
ATOM     53  N   UNL     1       3.377   2.390  20.681  0.00  0.00    -0.320 N 
ATOM     54  H   UNL     1       2.910   2.883  22.735  0.00  0.00    +0.105 HD
BRANCH  53  55
ATOM     55  C   UNL     1       4.800   2.202  20.740  0.00  0.00    +0.014 C 
ATOM     56  H   UNL     1       5.107   1.624  19.865  0.00  0.00    +0.046 HD
ATOM     57  H   UNL     1       5.301   3.172  20.737  0.00  0.00    +0.046 HD
ATOM     58  H   UNL     1       5.051   1.667  21.657  0.00  0.00    +0.046 HD
ENDBRANCH  53  55
ENDBRANCH  46  49
ENDBRANCH  40  46
ENDBRANCH   1  40
TORSDOF 12
ENDMDL
MODEL 19
REMARK VINA RESULT:    -7.576      2.176      3.105
REMARK INTER + INTRA:         -11.285
REMARK INTER:                 -10.508
REMARK INTRA:                  -0.777
REMARK UNBOUND:                 0.498
REMARK  Name = 
REMARK  12 active torsions:
REMARK  status: ('A' for Active; 'I' for Inactive)
REMARK    1  A    between atoms: C_1  and  C_2
REMARK    2  A    between atoms: C_2  and  C_3
REMARK    3  A    between atoms: C_2  and  C_10
REMARK    4  A    between atoms: C_3  and  C_4
REMARK    5  A    between atoms: N_8  and  C_9
REMARK    6  A    between atoms: C_12  and  N_13
REMARK    7  A    between atoms: C_14  and  C_16
REMARK    8  A    between atoms: C_19  and  C_20
REMARK    9  A    between atoms: C_20  and  C_21
REMARK   10  A    between atoms: C_20  and  C_22
REMARK   11  A    between atoms: C_20  and  C_23
REMARK   12  A    between atoms: C_27  and  C_28
REMARK                            x       y       z     vdW  Elec       q    Type
REMARK                         _______ _______ _______ _____ _____    ______ ____
ROOT
ATOM      1  C   UNL     1       4.547   5.509  16.498  0.00  0.00    -0.042 A 
ATOM      2  C   UNL     1       4.122   6.791  16.883  0.00  0.00    -0.037 A 
ATOM      3  C   UNL     1       3.240   6.975  17.955  0.00  0.00    +0.035 A 
ATOM      4  C   UNL     1       2.776   5.860  18.652  0.00  0.00    -0.029 A 
ATOM      5  C   UNL     1       3.187   4.565  18.292  0.00  0.00    +0.057 A 
ATOM      6  C   UNL     1       4.067   4.402  17.210  0.00  0.00    -0.047 A 
ATOM      7  H   UNL     1       4.484   7.659  16.334  0.00  0.00    +0.064 HD
ATOM      8  H   UNL     1       2.088   5.967  19.487  0.00  0.00    +0.064 HD
ATOM      9  H   UNL     1       4.379   3.395  16.930  0.00  0.00    +0.063 HD
ENDROOT
BRANCH   3  10
ATOM     10  N   UNL     1       2.880   8.296  18.267  0.00  0.00    -0.280 N 
ATOM     11  C   UNL     1       1.684   8.943  18.024  0.00  0.00    +0.267 C 
ATOM     12  O   UNL     1       0.694   8.485  17.465  0.00  0.00    -0.268 OA
ATOM     13  H   UNL     1       3.570   8.883  18.732  0.00  0.00    +0.155 HD
BRANCH  11  14
ATOM     14  C   UNL     1       1.675  10.353  18.540  0.00  0.00    +0.126 A 
ATOM     15  C   UNL     1       0.962  10.675  19.682  0.00  0.00    -0.031 A 
ATOM     16  C   UNL     1       0.999  11.995  20.132  0.00  0.00    -0.054 A 
ATOM     17  C   UNL     1       1.738  12.965  19.442  0.00  0.00    -0.024 A 
ATOM     18  C   UNL     1       2.413  12.522  18.299  0.00  0.00    +0.032 A 
ATOM     19  N   UNL     1       2.405  11.254  17.826  0.00  0.00    -0.250 NA
ATOM     20  H   UNL     1       0.392   9.921  20.216  0.00  0.00    +0.064 HD
ATOM     21  H   UNL     1       0.440  12.235  21.033  0.00  0.00    +0.062 HD
ATOM     22  H   UNL     1       3.013  13.207  17.701  0.00  0.00    +0.083 HD
BRANCH  17  23
ATOM     23  C   UNL     1       1.840  14.428  19.895  0.00  0.00    -0.011 C 
BRANCH  23  24
ATOM     24  C   UNL     1       0.779  15.267  19.149  0.00  0.00    -0.056 C 
ATOM     25  H   UNL     1      -0.236  14.931  19.394  0.00  0.00    +0.024 HD
ATOM     26  H   UNL     1       0.887  15.195  18.061  0.00  0.00    +0.024 HD
ATOM     27  H   UNL     1       0.851  16.328  19.418  0.00  0.00    +0.024 HD
ENDBRANCH  23  24
BRANCH  23  28
ATOM     28  C   UNL     1       1.589  14.533  21.415  0.00  0.00    -0.056 C 
ATOM     29  H   UNL     1       0.764  15.222  21.634  0.00  0.00    +0.024 HD
ATOM     30  H   UNL     1       2.470  14.890  21.958  0.00  0.00    +0.024 HD
ATOM     31  H   UNL     1       1.329  13.555  21.839  0.00  0.00    +0.024 HD
ENDBRANCH  23  28
BRANCH  23  32
ATOM     32  C   UNL     1       3.217  15.071  19.615  0.00  0.00    -0.056 C 
ATOM     33  H   UNL     1       4.039  14.383  19.845  0.00  0.00    +0.024 HD
ATOM     34  H   UNL     1       3.313  15.342  18.557  0.00  0.00    +0.024 HD
ATOM     35  H   UNL     1       3.360  15.986  20.200  0.00  0.00    +0.024 HD
ENDBRANCH  23  32
ENDBRANCH  17  23
ENDBRANCH  11  14
ENDBRANCH   3  10
BRANCH   5  36
ATOM     36  C   UNL     1       2.658   3.371  19.048  0.00  0.00    +0.417 C 
ATOM     37  F   UNL     1       1.301   3.381  19.182  0.00  0.00    -0.166 F 
ATOM     38  F   UNL     1       2.957   2.185  18.449  0.00  0.00    -0.166 F 
ATOM     39  F   UNL     1       3.155   3.293  20.313  0.00  0.00    -0.166 F 
ENDBRANCH   5  36
BRANCH   1  40
ATOM     40  C   UNL     1       5.519   5.353  15.336  0.00  0.00    -0.012 C 
ATOM     41  H   UNL     1       5.055   5.797  14.444  0.00  0.00    +0.035 HD
BRANCH  40  42
ATOM     42  C   UNL     1       5.758   3.872  15.015  0.00  0.00    -0.058 C 
ATOM     43  H   UNL     1       5.460   3.239  15.857  0.00  0.00    +0.024 HD
ATOM     44  H   UNL     1       6.810   3.666  14.798  0.00  0.00    +0.024 HD
ATOM     45  H   UNL     1       5.172   3.558  14.144  0.00  0.00    +0.024 HD
ENDBRANCH  40  42
BRANCH  40  46
ATOM     46  C   UNL     1       6.830   6.112  15.629  0.00  0.00    +0.014 C 
ATOM     47  H   UNL     1       6.700   7.187  15.454  0.00  0.00    +0.035 HD
ATOM     48  H   UNL     1       7.616   5.790  14.931  0.00  0.00    +0.035 HD
BRANCH  46  49
ATOM     49  C   UNL     1       7.305   5.902  17.027  0.00  0.00    +0.134 A 
ATOM     50  N   UNL     1       7.472   4.744  17.629  0.00  0.00    -0.135 NA
ATOM     51  N   UNL     1       7.930   4.983  18.903  0.00  0.00    -0.138 NA
ATOM     52  C   UNL     1       8.025   6.280  19.053  0.00  0.00    +0.120 A 
ATOM     53  N   UNL     1       7.644   6.899  17.904  0.00  0.00    -0.320 N 
ATOM     54  H   UNL     1       8.354   6.795  19.945  0.00  0.00    +0.105 HD
BRANCH  53  55
ATOM     55  C   UNL     1       7.622   8.317  17.672  0.00  0.00    +0.014 C 
ATOM     56  H   UNL     1       7.889   8.499  16.628  0.00  0.00    +0.046 HD
ATOM     57  H   UNL     1       6.622   8.708  17.871  0.00  0.00    +0.046 HD
ATOM     58  H   UNL     1       8.339   8.799  18.339  0.00  0.00    +0.046 HD
ENDBRANCH  53  55
ENDBRANCH  46  49
ENDBRANCH  40  46
ENDBRANCH   1  40
TORSDOF 12
ENDMDL
MODEL 20
REMARK VINA RESULT:    -7.535      4.238      9.607
REMARK INTER + INTRA:         -11.222
REMARK INTER:                 -10.056
REMARK INTRA:                  -1.166
REMARK UNBOUND:                 0.498
REMARK  Name = 
REMARK  12 active torsions:
REMARK  status: ('A' for Active; 'I' for Inactive)
REMARK    1  A    between atoms: C_1  and  C_2
REMARK    2  A    between atoms: C_2  and  C_3
REMARK    3  A    between atoms: C_2  and  C_10
REMARK    4  A    between atoms: C_3  and  C_4
REMARK    5  A    between atoms: N_8  and  C_9
REMARK    6  A    between atoms: C_12  and  N_13
REMARK    7  A    between atoms: C_14  and  C_16
REMARK    8  A    between atoms: C_19  and  C_20
REMARK    9  A    between atoms: C_20  and  C_21
REMARK   10  A    between atoms: C_20  and  C_22
REMARK   11  A    between atoms: C_20  and  C_23
REMARK   12  A    between atoms: C_27  and  C_28
REMARK                            x       y       z     vdW  Elec       q    Type
REMARK                         _______ _______ _______ _____ _____    ______ ____
ROOT
ATOM      1  C   UNL     1      -0.487  12.228  20.454  0.00  0.00    -0.042 A 
ATOM      2  C   UNL     1       0.390  11.202  20.068  0.00  0.00    -0.037 A 
ATOM      3  C   UNL     1       0.029  10.260  19.096  0.00  0.00    +0.035 A 
ATOM      4  C   UNL     1      -1.231  10.347  18.503  0.00  0.00    -0.029 A 
ATOM      5  C   UNL     1      -2.127  11.366  18.866  0.00  0.00    +0.057 A 
ATOM      6  C   UNL     1      -1.748  12.297  19.846  0.00  0.00    -0.047 A 
ATOM      7  H   UNL     1       1.371  11.136  20.537  0.00  0.00    +0.064 HD
ATOM      8  H   UNL     1      -1.544   9.630  17.747  0.00  0.00    +0.064 HD
ATOM      9  H   UNL     1      -2.449  13.082  20.130  0.00  0.00    +0.063 HD
ENDROOT
BRANCH   3  10
ATOM     10  N   UNL     1       0.978   9.277  18.775  0.00  0.00    -0.280 N 
ATOM     11  C   UNL     1       1.550   8.328  19.601  0.00  0.00    +0.267 C 
ATOM     12  O   UNL     1       1.347   8.171  20.800  0.00  0.00    -0.268 OA
ATOM     13  H   UNL     1       1.312   9.231  17.815  0.00  0.00    +0.155 HD
BRANCH  11  14
ATOM     14  C   UNL     1       2.504   7.429  18.873  0.00  0.00    +0.126 A 
ATOM     15  C   UNL     1       3.182   7.886  17.755  0.00  0.00    -0.031 A 
ATOM     16  C   UNL     1       4.072   7.018  17.123  0.00  0.00    -0.054 A 
ATOM     17  C   UNL     1       4.271   5.719  17.608  0.00  0.00    -0.024 A 
ATOM     18  C   UNL     1       3.527   5.368  18.742  0.00  0.00    +0.032 A 
ATOM     19  N   UNL     1       2.654   6.176  19.386  0.00  0.00    -0.250 NA
ATOM     20  H   UNL     1       3.028   8.893  17.382  0.00  0.00    +0.064 HD
ATOM     21  H   UNL     1       4.602   7.389  16.249  0.00  0.00    +0.062 HD
ATOM     22  H   UNL     1       3.619   4.379  19.188  0.00  0.00    +0.083 HD
BRANCH  17  23
ATOM     23  C   UNL     1       5.251   4.722  16.975  0.00  0.00    -0.011 C 
BRANCH  23  24
ATOM     24  C   UNL     1       4.677   3.293  17.101  0.00  0.00    -0.056 C 
ATOM     25  H   UNL     1       5.360   2.639  17.655  0.00  0.00    +0.024 HD
ATOM     26  H   UNL     1       4.510   2.829  16.123  0.00  0.00    +0.024 HD
ATOM     27  H   UNL     1       3.717   3.298  17.632  0.00  0.00    +0.024 HD
ENDBRANCH  23  24
BRANCH  23  28
ATOM     28  C   UNL     1       5.456   5.053  15.481  0.00  0.00    -0.056 C 
ATOM     29  H   UNL     1       6.514   5.235  15.257  0.00  0.00    +0.024 HD
ATOM     30  H   UNL     1       4.896   5.943  15.172  0.00  0.00    +0.024 HD
ATOM     31  H   UNL     1       5.117   4.227  14.844  0.00  0.00    +0.024 HD
ENDBRANCH  23  28
BRANCH  23  32
ATOM     32  C   UNL     1       6.648   4.718  17.637  0.00  0.00    -0.056 C 
ATOM     33  H   UNL     1       7.152   3.753  17.512  0.00  0.00    +0.024 HD
ATOM     34  H   UNL     1       7.296   5.479  17.186  0.00  0.00    +0.024 HD
ATOM     35  H   UNL     1       6.585   4.937  18.709  0.00  0.00    +0.024 HD
ENDBRANCH  23  32
ENDBRANCH  17  23
ENDBRANCH  11  14
ENDBRANCH   3  10
BRANCH   5  36
ATOM     36  C   UNL     1      -3.491  11.430  18.224  0.00  0.00    +0.417 C 
ATOM     37  F   UNL     1      -3.458  11.883  16.938  0.00  0.00    -0.166 F 
ATOM     38  F   UNL     1      -4.113  10.219  18.168  0.00  0.00    -0.166 F 
ATOM     39  F   UNL     1      -4.342  12.262  18.887  0.00  0.00    -0.166 F 
ENDBRANCH   5  36
BRANCH   1  40
ATOM     40  C   UNL     1      -0.049  13.242  21.503  0.00  0.00    -0.012 C 
ATOM     41  H   UNL     1       0.921  12.918  21.903  0.00  0.00    +0.035 HD
BRANCH  40  42
ATOM     42  C   UNL     1      -1.025  13.264  22.686  0.00  0.00    -0.058 C 
ATOM     43  H   UNL     1      -1.680  14.140  22.633  0.00  0.00    +0.024 HD
ATOM     44  H   UNL     1      -0.502  13.295  23.646  0.00  0.00    +0.024 HD
ATOM     45  H   UNL     1      -1.666  12.375  22.686  0.00  0.00    +0.024 HD
ENDBRANCH  40  42
BRANCH  40  46
ATOM     46  C   UNL     1       0.131  14.633  20.861  0.00  0.00    +0.014 C 
ATOM     47  H   UNL     1       0.176  15.411  21.634  0.00  0.00    +0.035 HD
ATOM     48  H   UNL     1      -0.743  14.879  20.243  0.00  0.00    +0.035 HD
BRANCH  46  49
ATOM     49  C   UNL     1       1.361  14.714  20.022  0.00  0.00    +0.134 A 
ATOM     50  N   UNL     1       1.418  14.622  18.710  0.00  0.00    -0.135 NA
ATOM     51  N   UNL     1       2.731  14.757  18.326  0.00  0.00    -0.138 NA
ATOM     52  C   UNL     1       3.447  14.920  19.410  0.00  0.00    +0.120 A 
ATOM     53  N   UNL     1       2.632  14.901  20.499  0.00  0.00    -0.320 N 
ATOM     54  H   UNL     1       4.519  15.053  19.451  0.00  0.00    +0.105 HD
BRANCH  53  55
ATOM     55  C   UNL     1       3.042  15.061  21.867  0.00  0.00    +0.014 C 
ATOM     56  H   UNL     1       4.097  15.346  21.878  0.00  0.00    +0.046 HD
ATOM     57  H   UNL     1       2.443  15.839  22.343  0.00  0.00    +0.046 HD
ATOM     58  H   UNL     1       2.897  14.117  22.395  0.00  0.00    +0.046 HD
ENDBRANCH  53  55
ENDBRANCH  46  49
ENDBRANCH  40  46
ENDBRANCH   1  40
TORSDOF 12
ENDMDL
MODEL 21
REMARK VINA RESULT:    -7.523      4.446      9.501
REMARK INTER + INTRA:         -11.203
REMARK INTER:                 -10.013
REMARK INTRA:                  -1.191
REMARK UNBOUND:                 0.498
REMARK  Name = 
REMARK  12 active torsions:
REMARK  status: ('A' for Active; 'I' for Inactive)
REMARK    1  A    between atoms: C_1  and  C_2
REMARK    2  A    between atoms: C_2  and  C_3
REMARK    3  A    between atoms: C_2  and  C_10
REMARK    4  A    between atoms: C_3  and  C_4
REMARK    5  A    between atoms: N_8  and  C_9
REMARK    6  A    between atoms: C_12  and  N_13
REMARK    7  A    between atoms: C_14  and  C_16
REMARK    8  A    between atoms: C_19  and  C_20
REMARK    9  A    between atoms: C_20  and  C_21
REMARK   10  A    between atoms: C_20  and  C_22
REMARK   11  A    between atoms: C_20  and  C_23
REMARK   12  A    between atoms: C_27  and  C_28
REMARK                            x       y       z     vdW  Elec       q    Type
REMARK                         _______ _______ _______ _____ _____    ______ ____
ROOT
ATOM      1  C   UNL     1      -0.399  12.508  19.382  0.00  0.00    -0.042 A 
ATOM      2  C   UNL     1       0.495  11.444  19.178  0.00  0.00    -0.037 A 
ATOM      3  C   UNL     1       0.097  10.271  18.526  0.00  0.00    +0.035 A 
ATOM      4  C   UNL     1      -1.218  10.159  18.073  0.00  0.00    -0.029 A 
ATOM      5  C   UNL     1      -2.133  11.208  18.259  0.00  0.00    +0.057 A 
ATOM      6  C   UNL     1      -1.715  12.374  18.919  0.00  0.00    -0.047 A 
ATOM      7  H   UNL     1       1.519  11.535  19.537  0.00  0.00    +0.064 HD
ATOM      8  H   UNL     1      -1.561   9.261  17.566  0.00  0.00    +0.064 HD
ATOM      9  H   UNL     1      -2.431  13.184  19.068  0.00  0.00    +0.063 HD
ENDROOT
BRANCH   3  10
ATOM     10  N   UNL     1       1.066   9.268  18.365  0.00  0.00    -0.280 N 
ATOM     11  C   UNL     1       1.603   8.427  19.321  0.00  0.00    +0.267 C 
ATOM     12  O   UNL     1       1.343   8.405  20.519  0.00  0.00    -0.268 OA
ATOM     13  H   UNL     1       1.447   9.117  17.434  0.00  0.00    +0.155 HD
BRANCH  11  14
ATOM     14  C   UNL     1       2.598   7.461  18.747  0.00  0.00    +0.126 A 
ATOM     15  C   UNL     1       2.760   6.207  19.310  0.00  0.00    -0.031 A 
ATOM     16  C   UNL     1       3.684   5.337  18.729  0.00  0.00    -0.054 A 
ATOM     17  C   UNL     1       4.426   5.729  17.607  0.00  0.00    -0.024 A 
ATOM     18  C   UNL     1       4.179   7.021  17.129  0.00  0.00    +0.032 A 
ATOM     19  N   UNL     1       3.294   7.897  17.660  0.00  0.00    -0.250 NA
ATOM     20  H   UNL     1       2.182   5.905  20.178  0.00  0.00    +0.064 HD
ATOM     21  H   UNL     1       3.800   4.354  19.177  0.00  0.00    +0.062 HD
ATOM     22  H   UNL     1       4.710   7.409  16.261  0.00  0.00    +0.083 HD
BRANCH  17  23
ATOM     23  C   UNL     1       5.441   4.814  16.906  0.00  0.00    -0.011 C 
BRANCH  23  24
ATOM     24  C   UNL     1       5.795   5.411  15.527  0.00  0.00    -0.056 C 
ATOM     25  H   UNL     1       5.480   4.745  14.714  0.00  0.00    +0.024 HD
ATOM     26  H   UNL     1       6.873   5.572  15.411  0.00  0.00    +0.024 HD
ATOM     27  H   UNL     1       5.299   6.378  15.374  0.00  0.00    +0.024 HD
ENDBRANCH  23  24
BRANCH  23  28
ATOM     28  C   UNL     1       6.727   4.701  17.752  0.00  0.00    -0.056 C 
ATOM     29  H   UNL     1       6.796   5.516  18.482  0.00  0.00    +0.024 HD
ATOM     30  H   UNL     1       7.634   4.731  17.138  0.00  0.00    +0.024 HD
ATOM     31  H   UNL     1       6.751   3.754  18.307  0.00  0.00    +0.024 HD
ENDBRANCH  23  28
BRANCH  23  32
ATOM     32  C   UNL     1       4.923   3.378  16.669  0.00  0.00    -0.056 C 
ATOM     33  H   UNL     1       3.879   3.267  16.985  0.00  0.00    +0.024 HD
ATOM     34  H   UNL     1       4.964   3.118  15.605  0.00  0.00    +0.024 HD
ATOM     35  H   UNL     1       5.526   2.639  17.209  0.00  0.00    +0.024 HD
ENDBRANCH  23  32
ENDBRANCH  17  23
ENDBRANCH  11  14
ENDBRANCH   3  10
BRANCH   5  36
ATOM     36  C   UNL     1      -3.555  11.059  17.776  0.00  0.00    +0.417 C 
ATOM     37  F   UNL     1      -4.456  11.733  18.547  0.00  0.00    -0.166 F 
ATOM     38  F   UNL     1      -3.741  11.522  16.509  0.00  0.00    -0.166 F 
ATOM     39  F   UNL     1      -3.970   9.762  17.770  0.00  0.00    -0.166 F 
ENDBRANCH   5  36
BRANCH   1  40
ATOM     40  C   UNL     1       0.079  13.773  20.082  0.00  0.00    -0.012 C 
ATOM     41  H   UNL     1       0.457  13.490  21.073  0.00  0.00    +0.035 HD
BRANCH  40  42
ATOM     42  C   UNL     1      -1.085  14.744  20.317  0.00  0.00    -0.058 C 
ATOM     43  H   UNL     1      -0.714  15.734  20.602  0.00  0.00    +0.024 HD
ATOM     44  H   UNL     1      -1.752  14.396  21.111  0.00  0.00    +0.024 HD
ATOM     45  H   UNL     1      -1.686  14.867  19.409  0.00  0.00    +0.024 HD
ENDBRANCH  40  42
BRANCH  40  46
ATOM     46  C   UNL     1       1.234  14.420  19.288  0.00  0.00    +0.014 C 
ATOM     47  H   UNL     1       0.947  15.419  18.935  0.00  0.00    +0.035 HD
ATOM     48  H   UNL     1       1.444  13.834  18.383  0.00  0.00    +0.035 HD
BRANCH  46  49
ATOM     49  C   UNL     1       2.482  14.533  20.097  0.00  0.00    +0.134 A 
ATOM     50  N   UNL     1       2.571  14.458  21.408  0.00  0.00    -0.135 NA
ATOM     51  N   UNL     1       3.893  14.601  21.758  0.00  0.00    -0.138 NA
ATOM     52  C   UNL     1       4.579  14.768  20.655  0.00  0.00    +0.120 A 
ATOM     53  N   UNL     1       3.738  14.732  19.588  0.00  0.00    -0.320 N 
ATOM     54  H   UNL     1       5.649  14.911  20.587  0.00  0.00    +0.105 HD
BRANCH  53  55
ATOM     55  C   UNL     1       4.115  14.866  18.207  0.00  0.00    +0.014 C 
ATOM     56  H   UNL     1       4.677  13.975  17.917  0.00  0.00    +0.046 HD
ATOM     57  H   UNL     1       3.220  14.957  17.588  0.00  0.00    +0.046 HD
ATOM     58  H   UNL     1       4.730  15.759  18.090  0.00  0.00    +0.046 HD
ENDBRANCH  53  55
ENDBRANCH  46  49
ENDBRANCH  40  46
ENDBRANCH   1  40
TORSDOF 12
ENDMDL
MODEL 22
REMARK VINA RESULT:    -7.422      4.816     10.647
REMARK INTER + INTRA:         -11.047
REMARK INTER:                 -10.194
REMARK INTRA:                  -0.853
REMARK UNBOUND:                 0.498
REMARK  Name = 
REMARK  12 active torsions:
REMARK  status: ('A' for Active; 'I' for Inactive)
REMARK    1  A    between atoms: C_1  and  C_2
REMARK    2  A    between atoms: C_2  and  C_3
REMARK    3  A    between atoms: C_2  and  C_10
REMARK    4  A    between atoms: C_3  and  C_4
REMARK    5  A    between atoms: N_8  and  C_9
REMARK    6  A    between atoms: C_12  and  N_13
REMARK    7  A    between atoms: C_14  and  C_16
REMARK    8  A    between atoms: C_19  and  C_20
REMARK    9  A    between atoms: C_20  and  C_21
REMARK   10  A    between atoms: C_20  and  C_22
REMARK   11  A    between atoms: C_20  and  C_23
REMARK   12  A    between atoms: C_27  and  C_28
REMARK                            x       y       z     vdW  Elec       q    Type
REMARK                         _______ _______ _______ _____ _____    ______ ____
ROOT
ATOM      1  C   UNL     1      -0.939  12.244  20.340  0.00  0.00    -0.042 A 
ATOM      2  C   UNL     1      -0.470  10.922  20.288  0.00  0.00    -0.037 A 
ATOM      3  C   UNL     1       0.780  10.612  19.739  0.00  0.00    +0.035 A 
ATOM      4  C   UNL     1       1.574  11.641  19.233  0.00  0.00    -0.029 A 
ATOM      5  C   UNL     1       1.133  12.975  19.276  0.00  0.00    +0.057 A 
ATOM      6  C   UNL     1      -0.126  13.264  19.825  0.00  0.00    -0.047 A 
ATOM      7  H   UNL     1      -1.094  10.121  20.681  0.00  0.00    +0.064 HD
ATOM      8  H   UNL     1       2.548  11.436  18.797  0.00  0.00    +0.064 HD
ATOM      9  H   UNL     1      -0.468  14.299  19.850  0.00  0.00    +0.063 HD
ENDROOT
BRANCH   3  10
ATOM     10  N   UNL     1       1.162   9.260  19.739  0.00  0.00    -0.280 N 
ATOM     11  C   UNL     1       1.871   8.565  18.779  0.00  0.00    +0.267 C 
ATOM     12  O   UNL     1       2.298   8.998  17.715  0.00  0.00    -0.268 OA
ATOM     13  H   UNL     1       0.893   8.688  20.537  0.00  0.00    +0.155 HD
BRANCH  11  14
ATOM     14  C   UNL     1       2.110   7.134  19.162  0.00  0.00    +0.126 A 
ATOM     15  C   UNL     1       1.793   6.687  20.433  0.00  0.00    -0.031 A 
ATOM     16  C   UNL     1       2.016   5.344  20.735  0.00  0.00    -0.054 A 
ATOM     17  C   UNL     1       2.550   4.474  19.775  0.00  0.00    -0.024 A 
ATOM     18  C   UNL     1       2.835   5.040  18.527  0.00  0.00    +0.032 A 
ATOM     19  N   UNL     1       2.635   6.336  18.190  0.00  0.00    -0.250 NA
ATOM     20  H   UNL     1       1.378   7.362  21.175  0.00  0.00    +0.064 HD
ATOM     21  H   UNL     1       1.759   5.003  21.735  0.00  0.00    +0.062 HD
ATOM     22  H   UNL     1       3.251   4.439  17.720  0.00  0.00    +0.083 HD
BRANCH  17  23
ATOM     23  C   UNL     1       2.799   2.982  20.034  0.00  0.00    -0.011 C 
BRANCH  23  24
ATOM     24  C   UNL     1       2.425   2.650  21.495  0.00  0.00    -0.056 C 
ATOM     25  H   UNL     1       1.760   3.413  21.917  0.00  0.00    +0.024 HD
ATOM     26  H   UNL     1       3.306   2.596  22.144  0.00  0.00    +0.024 HD
ATOM     27  H   UNL     1       1.907   1.685  21.562  0.00  0.00    +0.024 HD
ENDBRANCH  23  24
BRANCH  23  28
ATOM     28  C   UNL     1       1.934   2.125  19.084  0.00  0.00    -0.056 C 
ATOM     29  H   UNL     1       0.882   2.130  19.393  0.00  0.00    +0.024 HD
ATOM     30  H   UNL     1       2.263   1.081  19.050  0.00  0.00    +0.024 HD
ATOM     31  H   UNL     1       1.982   2.507  18.056  0.00  0.00    +0.024 HD
ENDBRANCH  23  28
BRANCH  23  32
ATOM     32  C   UNL     1       4.268   2.552  19.824  0.00  0.00    -0.056 C 
ATOM     33  H   UNL     1       4.575   2.654  18.777  0.00  0.00    +0.024 HD
ATOM     34  H   UNL     1       4.946   3.175  20.419  0.00  0.00    +0.024 HD
ATOM     35  H   UNL     1       4.430   1.511  20.129  0.00  0.00    +0.024 HD
ENDBRANCH  23  32
ENDBRANCH  17  23
ENDBRANCH  11  14
ENDBRANCH   3  10
BRANCH   5  36
ATOM     36  C   UNL     1       1.999  14.071  18.706  0.00  0.00    +0.417 C 
ATOM     37  F   UNL     1       1.316  15.229  18.477  0.00  0.00    -0.166 F 
ATOM     38  F   UNL     1       3.034  14.413  19.524  0.00  0.00    -0.166 F 
ATOM     39  F   UNL     1       2.557  13.728  17.512  0.00  0.00    -0.166 F 
ENDBRANCH   5  36
BRANCH   1  40
ATOM     40  C   UNL     1      -2.298  12.541  20.960  0.00  0.00    -0.012 C 
ATOM     41  H   UNL     1      -3.053  11.958  20.415  0.00  0.00    +0.035 HD
BRANCH  40  42
ATOM     42  C   UNL     1      -2.672  14.018  20.784  0.00  0.00    -0.058 C 
ATOM     43  H   UNL     1      -2.989  14.218  19.755  0.00  0.00    +0.024 HD
ATOM     44  H   UNL     1      -1.832  14.681  21.010  0.00  0.00    +0.024 HD
ATOM     45  H   UNL     1      -3.502  14.295  21.443  0.00  0.00    +0.024 HD
ENDBRANCH  40  42
BRANCH  40  46
ATOM     46  C   UNL     1      -2.320  12.099  22.439  0.00  0.00    +0.014 C 
ATOM     47  H   UNL     1      -1.507  11.390  22.641  0.00  0.00    +0.035 HD
ATOM     48  H   UNL     1      -3.250  11.556  22.656  0.00  0.00    +0.035 HD
BRANCH  46  49
ATOM     49  C   UNL     1      -2.200  13.253  23.375  0.00  0.00    +0.134 A 
ATOM     50  N   UNL     1      -1.106  13.939  23.633  0.00  0.00    -0.135 NA
ATOM     51  N   UNL     1      -1.420  14.924  24.540  0.00  0.00    -0.138 NA
ATOM     52  C   UNL     1      -2.694  14.813  24.821  0.00  0.00    +0.120 A 
ATOM     53  N   UNL     1      -3.226  13.780  24.115  0.00  0.00    -0.320 N 
ATOM     54  H   UNL     1      -3.251  15.438  25.505  0.00  0.00    +0.105 HD
BRANCH  53  55
ATOM     55  C   UNL     1      -4.598  13.352  24.144  0.00  0.00    +0.014 C 
ATOM     56  H   UNL     1      -4.723  12.657  24.978  0.00  0.00    +0.046 HD
ATOM     57  H   UNL     1      -5.251  14.216  24.282  0.00  0.00    +0.046 HD
ATOM     58  H   UNL     1      -4.839  12.862  23.200  0.00  0.00    +0.046 HD
ENDBRANCH  53  55
ENDBRANCH  46  49
ENDBRANCH  40  46
ENDBRANCH   1  40
TORSDOF 12
ENDMDL
MODEL 23
REMARK VINA RESULT:    -7.216      1.955      2.926
REMARK INTER + INTRA:         -10.726
REMARK INTER:                 -10.143
REMARK INTRA:                  -0.582
REMARK UNBOUND:                 0.498
REMARK  Name = 
REMARK  12 active torsions:
REMARK  status: ('A' for Active; 'I' for Inactive)
REMARK    1  A    between atoms: C_1  and  C_2
REMARK    2  A    between atoms: C_2  and  C_3
REMARK    3  A    between atoms: C_2  and  C_10
REMARK    4  A    between atoms: C_3  and  C_4
REMARK    5  A    between atoms: N_8  and  C_9
REMARK    6  A    between atoms: C_12  and  N_13
REMARK    7  A    between atoms: C_14  and  C_16
REMARK    8  A    between atoms: C_19  and  C_20
REMARK    9  A    between atoms: C_20  and  C_21
REMARK   10  A    between atoms: C_20  and  C_22
REMARK   11  A    between atoms: C_20  and  C_23
REMARK   12  A    between atoms: C_27  and  C_28
REMARK                            x       y       z     vdW  Elec       q    Type
REMARK                         _______ _______ _______ _____ _____    ______ ____
ROOT
ATOM      1  C   UNL     1       3.102   4.460  18.293  0.00  0.00    -0.042 A 
ATOM      2  C   UNL     1       2.761   5.817  18.421  0.00  0.00    -0.037 A 
ATOM      3  C   UNL     1       2.221   6.324  19.609  0.00  0.00    +0.035 A 
ATOM      4  C   UNL     1       2.018   5.461  20.686  0.00  0.00    -0.029 A 
ATOM      5  C   UNL     1       2.355   4.100  20.589  0.00  0.00    +0.057 A 
ATOM      6  C   UNL     1       2.890   3.610  19.387  0.00  0.00    -0.047 A 
ATOM      7  H   UNL     1       2.917   6.486  17.577  0.00  0.00    +0.064 HD
ATOM      8  H   UNL     1       1.598   5.821  21.622  0.00  0.00    +0.064 HD
ATOM      9  H   UNL     1       3.144   2.552  19.314  0.00  0.00    +0.063 HD
ENDROOT
BRANCH   3  10
ATOM     10  N   UNL     1       1.919   7.695  19.639  0.00  0.00    -0.280 N 
ATOM     11  C   UNL     1       1.909   8.598  18.594  0.00  0.00    +0.267 C 
ATOM     12  O   UNL     1       2.184   8.376  17.420  0.00  0.00    -0.268 OA
ATOM     13  H   UNL     1       1.672   8.111  20.535  0.00  0.00    +0.155 HD
BRANCH  11  14
ATOM     14  C   UNL     1       1.499   9.976  19.025  0.00  0.00    +0.126 A 
ATOM     15  C   UNL     1       0.700  10.151  20.142  0.00  0.00    -0.031 A 
ATOM     16  C   UNL     1       0.361  11.452  20.514  0.00  0.00    -0.054 A 
ATOM     17  C   UNL     1       0.817  12.549  19.772  0.00  0.00    -0.024 A 
ATOM     18  C   UNL     1       1.614  12.249  18.660  0.00  0.00    +0.032 A 
ATOM     19  N   UNL     1       1.968  11.004  18.264  0.00  0.00    -0.250 NA
ATOM     20  H   UNL     1       0.349   9.299  20.716  0.00  0.00    +0.064 HD
ATOM     21  H   UNL     1      -0.263  11.577  21.395  0.00  0.00    +0.062 HD
ATOM     22  H   UNL     1       2.014  13.039  18.027  0.00  0.00    +0.083 HD
BRANCH  17  23
ATOM     23  C   UNL     1       0.500  14.006  20.138  0.00  0.00    -0.011 C 
BRANCH  23  24
ATOM     24  C   UNL     1       1.043  14.304  21.553  0.00  0.00    -0.056 C 
ATOM     25  H   UNL     1       1.033  13.403  22.179  0.00  0.00    +0.024 HD
ATOM     26  H   UNL     1       0.446  15.062  22.072  0.00  0.00    +0.024 HD
ATOM     27  H   UNL     1       2.077  14.668  21.512  0.00  0.00    +0.024 HD
ENDBRANCH  23  24
BRANCH  23  28
ATOM     28  C   UNL     1       1.168  14.965  19.129  0.00  0.00    -0.056 C 
ATOM     29  H   UNL     1       0.745  14.841  18.125  0.00  0.00    +0.024 HD
ATOM     30  H   UNL     1       2.249  14.805  19.055  0.00  0.00    +0.024 HD
ATOM     31  H   UNL     1       1.021  16.012  19.426  0.00  0.00    +0.024 HD
ENDBRANCH  23  28
BRANCH  23  32
ATOM     32  C   UNL     1      -1.010  14.330  20.145  0.00  0.00    -0.056 C 
ATOM     33  H   UNL     1      -1.533  13.807  20.954  0.00  0.00    +0.024 HD
ATOM     34  H   UNL     1      -1.179  15.403  20.296  0.00  0.00    +0.024 HD
ATOM     35  H   UNL     1      -1.485  14.056  19.195  0.00  0.00    +0.024 HD
ENDBRANCH  23  32
ENDBRANCH  17  23
ENDBRANCH  11  14
ENDBRANCH   3  10
BRANCH   5  36
ATOM     36  C   UNL     1       2.111   3.181  21.760  0.00  0.00    +0.417 C 
ATOM     37  F   UNL     1       2.300   3.788  22.966  0.00  0.00    -0.166 F 
ATOM     38  F   UNL     1       0.842   2.686  21.796  0.00  0.00    -0.166 F 
ATOM     39  F   UNL     1       2.939   2.100  21.756  0.00  0.00    -0.166 F 
ENDBRANCH   5  36
BRANCH   1  40
ATOM     40  C   UNL     1       3.702   3.951  16.989  0.00  0.00    -0.012 C 
ATOM     41  H   UNL     1       3.493   4.695  16.208  0.00  0.00    +0.035 HD
BRANCH  40  42
ATOM     42  C   UNL     1       3.026   2.648  16.546  0.00  0.00    -0.058 C 
ATOM     43  H   UNL     1       3.326   1.816  17.192  0.00  0.00    +0.024 HD
ATOM     44  H   UNL     1       3.286   2.382  15.518  0.00  0.00    +0.024 HD
ATOM     45  H   UNL     1       1.935   2.730  16.602  0.00  0.00    +0.024 HD
ENDBRANCH  40  42
BRANCH  40  46
ATOM     46  C   UNL     1       5.232   3.806  17.123  0.00  0.00    +0.014 C 
ATOM     47  H   UNL     1       5.501   2.771  17.371  0.00  0.00    +0.035 HD
ATOM     48  H   UNL     1       5.596   4.417  17.961  0.00  0.00    +0.035 HD
BRANCH  46  49
ATOM     49  C   UNL     1       5.950   4.208  15.880  0.00  0.00    +0.134 A 
ATOM     50  N   UNL     1       5.863   3.622  14.704  0.00  0.00    -0.135 NA
ATOM     51  N   UNL     1       6.671   4.302  13.824  0.00  0.00    -0.138 NA
ATOM     52  C   UNL     1       7.238   5.281  14.481  0.00  0.00    +0.120 A 
ATOM     53  N   UNL     1       6.817   5.264  15.774  0.00  0.00    -0.320 N 
ATOM     54  H   UNL     1       7.934   6.001  14.074  0.00  0.00    +0.105 HD
BRANCH  53  55
ATOM     55  C   UNL     1       7.206   6.187  16.804  0.00  0.00    +0.014 C 
ATOM     56  H   UNL     1       6.301   6.588  17.266  0.00  0.00    +0.046 HD
ATOM     57  H   UNL     1       7.806   5.669  17.556  0.00  0.00    +0.046 HD
ATOM     58  H   UNL     1       7.796   6.990  16.360  0.00  0.00    +0.046 HD
ENDBRANCH  53  55
ENDBRANCH  46  49
ENDBRANCH  40  46
ENDBRANCH   1  40
TORSDOF 12
ENDMDL
MODEL 24
REMARK VINA RESULT:    -7.046      3.789      9.445
REMARK INTER + INTRA:         -10.462
REMARK INTER:                  -9.419
REMARK INTRA:                  -1.043
REMARK UNBOUND:                 0.498
REMARK  Name = 
REMARK  12 active torsions:
REMARK  status: ('A' for Active; 'I' for Inactive)
REMARK    1  A    between atoms: C_1  and  C_2
REMARK    2  A    between atoms: C_2  and  C_3
REMARK    3  A    between atoms: C_2  and  C_10
REMARK    4  A    between atoms: C_3  and  C_4
REMARK    5  A    between atoms: N_8  and  C_9
REMARK    6  A    between atoms: C_12  and  N_13
REMARK    7  A    between atoms: C_14  and  C_16
REMARK    8  A    between atoms: C_19  and  C_20
REMARK    9  A    between atoms: C_20  and  C_21
REMARK   10  A    between atoms: C_20  and  C_22
REMARK   11  A    between atoms: C_20  and  C_23
REMARK   12  A    between atoms: C_27  and  C_28
REMARK                            x       y       z     vdW  Elec       q    Type
REMARK                         _______ _______ _______ _____ _____    ______ ____
ROOT
ATOM      1  C   UNL     1      -0.751  10.929  19.267  0.00  0.00    -0.042 A 
ATOM      2  C   UNL     1       0.177  10.020  18.733  0.00  0.00    -0.037 A 
ATOM      3  C   UNL     1       0.908   9.155  19.557  0.00  0.00    +0.035 A 
ATOM      4  C   UNL     1       0.708   9.202  20.937  0.00  0.00    -0.029 A 
ATOM      5  C   UNL     1      -0.217  10.097  21.499  0.00  0.00    +0.057 A 
ATOM      6  C   UNL     1      -0.936  10.960  20.656  0.00  0.00    -0.047 A 
ATOM      7  H   UNL     1       0.332   9.990  17.656  0.00  0.00    +0.064 HD
ATOM      8  H   UNL     1       1.261   8.547  21.606  0.00  0.00    +0.064 HD
ATOM      9  H   UNL     1      -1.648  11.658  21.097  0.00  0.00    +0.063 HD
ENDROOT
BRANCH   3  10
ATOM     10  N   UNL     1       1.806   8.279  18.927  0.00  0.00    -0.280 N 
ATOM     11  C   UNL     1       2.204   7.018  19.329  0.00  0.00    +0.267 C 
ATOM     12  O   UNL     1       1.855   6.418  20.339  0.00  0.00    -0.268 OA
ATOM     13  H   UNL     1       2.241   8.583  18.059  0.00  0.00    +0.155 HD
BRANCH  11  14
ATOM     14  C   UNL     1       3.159   6.380  18.363  0.00  0.00    +0.126 A 
ATOM     15  C   UNL     1       2.980   5.066  17.966  0.00  0.00    -0.031 A 
ATOM     16  C   UNL     1       3.884   4.522  17.054  0.00  0.00    -0.054 A 
ATOM     17  C   UNL     1       4.945   5.290  16.556  0.00  0.00    -0.024 A 
ATOM     18  C   UNL     1       5.028   6.604  17.033  0.00  0.00    +0.032 A 
ATOM     19  N   UNL     1       4.174   7.171  17.917  0.00  0.00    -0.250 NA
ATOM     20  H   UNL     1       2.156   4.474  18.352  0.00  0.00    +0.064 HD
ATOM     21  H   UNL     1       3.730   3.491  16.746  0.00  0.00    +0.062 HD
ATOM     22  H   UNL     1       5.820   7.273  16.700  0.00  0.00    +0.083 HD
BRANCH  17  23
ATOM     23  C   UNL     1       5.961   4.762  15.533  0.00  0.00    -0.011 C 
BRANCH  23  24
ATOM     24  C   UNL     1       5.463   5.086  14.108  0.00  0.00    -0.056 C 
ATOM     25  H   UNL     1       5.009   4.205  13.638  0.00  0.00    +0.024 HD
ATOM     26  H   UNL     1       6.276   5.417  13.453  0.00  0.00    +0.024 HD
ATOM     27  H   UNL     1       4.707   5.880  14.124  0.00  0.00    +0.024 HD
ENDBRANCH  23  24
BRANCH  23  28
ATOM     28  C   UNL     1       7.334   5.434  15.753  0.00  0.00    -0.056 C 
ATOM     29  H   UNL     1       7.222   6.497  15.993  0.00  0.00    +0.024 HD
ATOM     30  H   UNL     1       7.979   5.361  14.870  0.00  0.00    +0.024 HD
ATOM     31  H   UNL     1       7.876   4.960  16.581  0.00  0.00    +0.024 HD
ENDBRANCH  23  28
BRANCH  23  32
ATOM     32  C   UNL     1       6.183   3.235  15.610  0.00  0.00    -0.056 C 
ATOM     33  H   UNL     1       6.922   2.896  14.875  0.00  0.00    +0.024 HD
ATOM     34  H   UNL     1       6.558   2.944  16.598  0.00  0.00    +0.024 HD
ATOM     35  H   UNL     1       5.251   2.684  15.439  0.00  0.00    +0.024 HD
ENDBRANCH  23  32
ENDBRANCH  17  23
ENDBRANCH  11  14
ENDBRANCH   3  10
BRANCH   5  36
ATOM     36  C   UNL     1      -0.404  10.143  22.996  0.00  0.00    +0.417 C 
ATOM     37  F   UNL     1      -0.644  11.400  23.467  0.00  0.00    -0.166 F 
ATOM     38  F   UNL     1      -1.452   9.386  23.426  0.00  0.00    -0.166 F 
ATOM     39  F   UNL     1       0.690   9.696  23.672  0.00  0.00    -0.166 F 
ENDBRANCH   5  36
BRANCH   1  40
ATOM     40  C   UNL     1      -1.537  11.841  18.335  0.00  0.00    -0.012 C 
ATOM     41  H   UNL     1      -2.325  12.329  18.924  0.00  0.00    +0.035 HD
BRANCH  40  42
ATOM     42  C   UNL     1      -2.245  11.032  17.241  0.00  0.00    -0.058 C 
ATOM     43  H   UNL     1      -2.818  11.690  16.580  0.00  0.00    +0.024 HD
ATOM     44  H   UNL     1      -2.936  10.296  17.661  0.00  0.00    +0.024 HD
ATOM     45  H   UNL     1      -1.521  10.492  16.620  0.00  0.00    +0.024 HD
ENDBRANCH  40  42
BRANCH  40  46
ATOM     46  C   UNL     1      -0.617  12.937  17.756  0.00  0.00    +0.014 C 
ATOM     47  H   UNL     1      -1.165  13.562  17.040  0.00  0.00    +0.035 HD
ATOM     48  H   UNL     1       0.201  12.478  17.184  0.00  0.00    +0.035 HD
BRANCH  46  49
ATOM     49  C   UNL     1      -0.039  13.810  18.818  0.00  0.00    +0.134 A 
ATOM     50  N   UNL     1      -0.710  14.599  19.630  0.00  0.00    -0.135 NA
ATOM     51  N   UNL     1       0.188  15.222  20.464  0.00  0.00    -0.138 NA
ATOM     52  C   UNL     1       1.386  14.807  20.137  0.00  0.00    +0.120 A 
ATOM     53  N   UNL     1       1.295  13.919  19.111  0.00  0.00    -0.320 N 
ATOM     54  H   UNL     1       2.314  15.110  20.603  0.00  0.00    +0.105 HD
BRANCH  53  55
ATOM     55  C   UNL     1       2.391  13.235  18.483  0.00  0.00    +0.014 C 
ATOM     56  H   UNL     1       3.317  13.752  18.748  0.00  0.00    +0.046 HD
ATOM     57  H   UNL     1       2.431  12.202  18.834  0.00  0.00    +0.046 HD
ATOM     58  H   UNL     1       2.246  13.245  17.401  0.00  0.00    +0.046 HD
ENDBRANCH  53  55
ENDBRANCH  46  49
ENDBRANCH  40  46
ENDBRANCH   1  40
TORSDOF 12
ENDMDL
MODEL 25
REMARK VINA RESULT:    -6.966      4.158      9.585
REMARK INTER + INTRA:         -10.337
REMARK INTER:                 -10.245
REMARK INTRA:                  -0.092
REMARK UNBOUND:                 0.498
REMARK  Name = 
REMARK  12 active torsions:
REMARK  status: ('A' for Active; 'I' for Inactive)
REMARK    1  A    between atoms: C_1  and  C_2
REMARK    2  A    between atoms: C_2  and  C_3
REMARK    3  A    between atoms: C_2  and  C_10
REMARK    4  A    between atoms: C_3  and  C_4
REMARK    5  A    between atoms: N_8  and  C_9
REMARK    6  A    between atoms: C_12  and  N_13
REMARK    7  A    between atoms: C_14  and  C_16
REMARK    8  A    between atoms: C_19  and  C_20
REMARK    9  A    between atoms: C_20  and  C_21
REMARK   10  A    between atoms: C_20  and  C_22
REMARK   11  A    between atoms: C_20  and  C_23
REMARK   12  A    between atoms: C_27  and  C_28
REMARK                            x       y       z     vdW  Elec       q    Type
REMARK                         _______ _______ _______ _____ _____    ______ ____
ROOT
ATOM      1  C   UNL     1      -1.518  11.843  19.320  0.00  0.00    -0.042 A 
ATOM      2  C   UNL     1      -0.540  10.851  19.140  0.00  0.00    -0.037 A 
ATOM      3  C   UNL     1      -0.593   9.963  18.059  0.00  0.00    +0.035 A 
ATOM      4  C   UNL     1      -1.641  10.068  17.144  0.00  0.00    -0.029 A 
ATOM      5  C   UNL     1      -2.631  11.053  17.296  0.00  0.00    +0.057 A 
ATOM      6  C   UNL     1      -2.563  11.931  18.390  0.00  0.00    -0.047 A 
ATOM      7  H   UNL     1       0.274  10.771  19.858  0.00  0.00    +0.064 HD
ATOM      8  H   UNL     1      -1.713   9.392  16.295  0.00  0.00    +0.064 HD
ATOM      9  H   UNL     1      -3.337  12.690  18.508  0.00  0.00    +0.063 HD
ENDROOT
BRANCH   3  10
ATOM     10  N   UNL     1       0.435   9.012  17.963  0.00  0.00    -0.280 N 
ATOM     11  C   UNL     1       1.798   9.222  17.873  0.00  0.00    +0.267 C 
ATOM     12  O   UNL     1       2.381  10.300  17.841  0.00  0.00    -0.268 OA
ATOM     13  H   UNL     1       0.177   8.027  17.954  0.00  0.00    +0.155 HD
BRANCH  11  14
ATOM     14  C   UNL     1       2.578   7.941  17.820  0.00  0.00    +0.126 A 
ATOM     15  C   UNL     1       2.032   6.769  18.316  0.00  0.00    -0.031 A 
ATOM     16  C   UNL     1       2.789   5.600  18.228  0.00  0.00    -0.054 A 
ATOM     17  C   UNL     1       4.066   5.617  17.653  0.00  0.00    -0.024 A 
ATOM     18  C   UNL     1       4.514   6.860  17.190  0.00  0.00    +0.032 A 
ATOM     19  N   UNL     1       3.815   8.018  17.255  0.00  0.00    -0.250 NA
ATOM     20  H   UNL     1       1.042   6.758  18.759  0.00  0.00    +0.064 HD
ATOM     21  H   UNL     1       2.348   4.685  18.617  0.00  0.00    +0.062 HD
ATOM     22  H   UNL     1       5.494   6.967  16.728  0.00  0.00    +0.083 HD
BRANCH  17  23
ATOM     23  C   UNL     1       4.941   4.364  17.504  0.00  0.00    -0.011 C 
BRANCH  23  24
ATOM     24  C   UNL     1       5.341   4.197  16.022  0.00  0.00    -0.056 C 
ATOM     25  H   UNL     1       4.485   4.372  15.358  0.00  0.00    +0.024 HD
ATOM     26  H   UNL     1       5.713   3.189  15.807  0.00  0.00    +0.024 HD
ATOM     27  H   UNL     1       6.129   4.906  15.742  0.00  0.00    +0.024 HD
ENDBRANCH  23  24
BRANCH  23  28
ATOM     28  C   UNL     1       6.219   4.503  18.359  0.00  0.00    -0.056 C 
ATOM     29  H   UNL     1       6.192   3.831  19.225  0.00  0.00    +0.024 HD
ATOM     30  H   UNL     1       6.358   5.522  18.737  0.00  0.00    +0.024 HD
ATOM     31  H   UNL     1       7.113   4.257  17.773  0.00  0.00    +0.024 HD
ENDBRANCH  23  28
BRANCH  23  32
ATOM     32  C   UNL     1       4.238   3.060  17.943  0.00  0.00    -0.056 C 
ATOM     33  H   UNL     1       4.951   2.237  18.063  0.00  0.00    +0.024 HD
ATOM     34  H   UNL     1       3.736   3.193  18.909  0.00  0.00    +0.024 HD
ATOM     35  H   UNL     1       3.475   2.752  17.220  0.00  0.00    +0.024 HD
ENDBRANCH  23  32
ENDBRANCH  17  23
ENDBRANCH  11  14
ENDBRANCH   3  10
BRANCH   5  36
ATOM     36  C   UNL     1      -3.765  11.137  16.305  0.00  0.00    +0.417 C 
ATOM     37  F   UNL     1      -3.350  11.424  15.038  0.00  0.00    -0.166 F 
ATOM     38  F   UNL     1      -4.472   9.977  16.203  0.00  0.00    -0.166 F 
ATOM     39  F   UNL     1      -4.668  12.105  16.626  0.00  0.00    -0.166 F 
ENDBRANCH   5  36
BRANCH   1  40
ATOM     40  C   UNL     1      -1.416  12.800  20.501  0.00  0.00    -0.012 C 
ATOM     41  H   UNL     1      -2.243  12.578  21.189  0.00  0.00    +0.035 HD
BRANCH  40  42
ATOM     42  C   UNL     1      -1.600  14.253  20.048  0.00  0.00    -0.058 C 
ATOM     43  H   UNL     1      -2.178  14.300  19.119  0.00  0.00    +0.024 HD
ATOM     44  H   UNL     1      -0.642  14.750  19.871  0.00  0.00    +0.024 HD
ATOM     45  H   UNL     1      -2.142  14.836  20.801  0.00  0.00    +0.024 HD
ENDBRANCH  40  42
BRANCH  40  46
ATOM     46  C   UNL     1      -0.087  12.581  21.254  0.00  0.00    +0.014 C 
ATOM     47  H   UNL     1       0.102  13.408  21.950  0.00  0.00    +0.035 HD
ATOM     48  H   UNL     1       0.753  12.589  20.546  0.00  0.00    +0.035 HD
BRANCH  46  49
ATOM     49  C   UNL     1      -0.072  11.297  22.013  0.00  0.00    +0.134 A 
ATOM     50  N   UNL     1       0.842  10.353  21.932  0.00  0.00    -0.135 NA
ATOM     51  N   UNL     1       0.494   9.343  22.797  0.00  0.00    -0.138 NA
ATOM     52  C   UNL     1      -0.626   9.688  23.381  0.00  0.00    +0.120 A 
ATOM     53  N   UNL     1      -1.020  10.906  22.922  0.00  0.00    -0.320 N 
ATOM     54  H   UNL     1      -1.165   9.107  24.116  0.00  0.00    +0.105 HD
BRANCH  53  55
ATOM     55  C   UNL     1      -2.193  11.626  23.332  0.00  0.00    +0.014 C 
ATOM     56  H   UNL     1      -1.941  12.222  24.213  0.00  0.00    +0.046 HD
ATOM     57  H   UNL     1      -2.524  12.283  22.525  0.00  0.00    +0.046 HD
ATOM     58  H   UNL     1      -2.985  10.914  23.569  0.00  0.00    +0.046 HD
ENDBRANCH  53  55
ENDBRANCH  46  49
ENDBRANCH  40  46
ENDBRANCH   1  40
TORSDOF 12
ENDMDL
MODEL 26
REMARK VINA RESULT:    -6.939      3.842      9.530
REMARK INTER + INTRA:         -10.295
REMARK INTER:                 -10.505
REMARK INTRA:                   0.210
REMARK UNBOUND:                 0.498
REMARK  Name = 
REMARK  12 active torsions:
REMARK  status: ('A' for Active; 'I' for Inactive)
REMARK    1  A    between atoms: C_1  and  C_2
REMARK    2  A    between atoms: C_2  and  C_3
REMARK    3  A    between atoms: C_2  and  C_10
REMARK    4  A    between atoms: C_3  and  C_4
REMARK    5  A    between atoms: N_8  and  C_9
REMARK    6  A    between atoms: C_12  and  N_13
REMARK    7  A    between atoms: C_14  and  C_16
REMARK    8  A    between atoms: C_19  and  C_20
REMARK    9  A    between atoms: C_20  and  C_21
REMARK   10  A    between atoms: C_20  and  C_22
REMARK   11  A    between atoms: C_20  and  C_23
REMARK   12  A    between atoms: C_27  and  C_28
REMARK                            x       y       z     vdW  Elec       q    Type
REMARK                         _______ _______ _______ _____ _____    ______ ____
ROOT
ATOM      1  C   UNL     1      -0.126  11.183  19.516  0.00  0.00    -0.042 A 
ATOM      2  C   UNL     1       0.729  10.234  18.933  0.00  0.00    -0.037 A 
ATOM      3  C   UNL     1       1.191   9.127  19.654  0.00  0.00    +0.035 A 
ATOM      4  C   UNL     1       0.792   8.966  20.981  0.00  0.00    -0.029 A 
ATOM      5  C   UNL     1      -0.067   9.897  21.590  0.00  0.00    +0.057 A 
ATOM      6  C   UNL     1      -0.514  11.004  20.851  0.00  0.00    -0.047 A 
ATOM      7  H   UNL     1       1.041  10.366  17.898  0.00  0.00    +0.064 HD
ATOM      8  H   UNL     1       1.134   8.120  21.571  0.00  0.00    +0.064 HD
ATOM      9  H   UNL     1      -1.175  11.727  21.330  0.00  0.00    +0.063 HD
ENDROOT
BRANCH   3  10
ATOM     10  N   UNL     1       2.037   8.232  18.979  0.00  0.00    -0.280 N 
ATOM     11  C   UNL     1       2.330   6.919  19.296  0.00  0.00    +0.267 C 
ATOM     12  O   UNL     1       1.914   6.277  20.253  0.00  0.00    -0.268 OA
ATOM     13  H   UNL     1       2.514   8.563  18.144  0.00  0.00    +0.155 HD
BRANCH  11  14
ATOM     14  C   UNL     1       3.259   6.280  18.305  0.00  0.00    +0.126 A 
ATOM     15  C   UNL     1       3.235   4.911  18.106  0.00  0.00    -0.031 A 
ATOM     16  C   UNL     1       4.105   4.366  17.161  0.00  0.00    -0.054 A 
ATOM     17  C   UNL     1       4.979   5.187  16.437  0.00  0.00    -0.024 A 
ATOM     18  C   UNL     1       4.916   6.555  16.728  0.00  0.00    +0.032 A 
ATOM     19  N   UNL     1       4.089   7.126  17.634  0.00  0.00    -0.250 NA
ATOM     20  H   UNL     1       2.556   4.277  18.667  0.00  0.00    +0.064 HD
ATOM     21  H   UNL     1       4.074   3.290  17.010  0.00  0.00    +0.062 HD
ATOM     22  H   UNL     1       5.558   7.268  16.212  0.00  0.00    +0.083 HD
BRANCH  17  23
ATOM     23  C   UNL     1       5.945   4.657  15.368  0.00  0.00    -0.011 C 
BRANCH  23  24
ATOM     24  C   UNL     1       7.392   5.019  15.765  0.00  0.00    -0.056 C 
ATOM     25  H   UNL     1       7.660   6.023  15.413  0.00  0.00    +0.024 HD
ATOM     26  H   UNL     1       8.123   4.323  15.339  0.00  0.00    +0.024 HD
ATOM     27  H   UNL     1       7.519   5.005  16.855  0.00  0.00    +0.024 HD
ENDBRANCH  23  24
BRANCH  23  28
ATOM     28  C   UNL     1       5.821   3.122  15.255  0.00  0.00    -0.056 C 
ATOM     29  H   UNL     1       6.452   2.618  15.997  0.00  0.00    +0.024 HD
ATOM     30  H   UNL     1       6.115   2.753  14.266  0.00  0.00    +0.024 HD
ATOM     31  H   UNL     1       4.786   2.797  15.420  0.00  0.00    +0.024 HD
ENDBRANCH  23  28
BRANCH  23  32
ATOM     32  C   UNL     1       5.693   5.239  13.959  0.00  0.00    -0.056 C 
ATOM     33  H   UNL     1       4.782   5.848  13.930  0.00  0.00    +0.024 HD
ATOM     34  H   UNL     1       6.521   5.888  13.651  0.00  0.00    +0.024 HD
ATOM     35  H   UNL     1       5.601   4.447  13.207  0.00  0.00    +0.024 HD
ENDBRANCH  23  32
ENDBRANCH  17  23
ENDBRANCH  11  14
ENDBRANCH   3  10
BRANCH   5  36
ATOM     36  C   UNL     1      -0.472   9.713  23.032  0.00  0.00    +0.417 C 
ATOM     37  F   UNL     1       0.592   9.587  23.875  0.00  0.00    -0.166 F 
ATOM     38  F   UNL     1      -1.201  10.756  23.519  0.00  0.00    -0.166 F 
ATOM     39  F   UNL     1      -1.231   8.599  23.223  0.00  0.00    -0.166 F 
ENDBRANCH   5  36
BRANCH   1  40
ATOM     40  C   UNL     1      -0.618  12.366  18.692  0.00  0.00    -0.012 C 
ATOM     41  H   UNL     1       0.262  12.914  18.328  0.00  0.00    +0.035 HD
BRANCH  40  42
ATOM     42  C   UNL     1      -1.417  13.346  19.560  0.00  0.00    -0.058 C 
ATOM     43  H   UNL     1      -0.983  13.420  20.563  0.00  0.00    +0.024 HD
ATOM     44  H   UNL     1      -2.460  13.036  19.670  0.00  0.00    +0.024 HD
ATOM     45  H   UNL     1      -1.413  14.351  19.125  0.00  0.00    +0.024 HD
ENDBRANCH  40  42
BRANCH  40  46
ATOM     46  C   UNL     1      -1.420  11.870  17.471  0.00  0.00    +0.014 C 
ATOM     47  H   UNL     1      -1.005  10.927  17.094  0.00  0.00    +0.035 HD
ATOM     48  H   UNL     1      -1.329  12.588  16.644  0.00  0.00    +0.035 HD
BRANCH  46  49
ATOM     49  C   UNL     1      -2.864  11.671  17.786  0.00  0.00    +0.134 A 
ATOM     50  N   UNL     1      -3.451  11.905  18.941  0.00  0.00    -0.135 NA
ATOM     51  N   UNL     1      -4.786  11.603  18.814  0.00  0.00    -0.138 NA
ATOM     52  C   UNL     1      -4.984  11.185  17.590  0.00  0.00    +0.120 A 
ATOM     53  N   UNL     1      -3.808  11.210  16.906  0.00  0.00    -0.320 N 
ATOM     54  H   UNL     1      -5.928  10.866  17.171  0.00  0.00    +0.105 HD
BRANCH  53  55
ATOM     55  C   UNL     1      -3.619  10.835  15.532  0.00  0.00    +0.014 C 
ATOM     56  H   UNL     1      -3.389   9.767  15.495  0.00  0.00    +0.046 HD
ATOM     57  H   UNL     1      -4.531  11.036  14.966  0.00  0.00    +0.046 HD
ATOM     58  H   UNL     1      -2.797  11.417  15.113  0.00  0.00    +0.046 HD
ENDBRANCH  53  55
ENDBRANCH  46  49
ENDBRANCH  40  46
ENDBRANCH   1  40
TORSDOF 12
ENDMDL
MODEL 27
REMARK VINA RESULT:    -6.891      4.359      9.700
REMARK INTER + INTRA:         -10.221
REMARK INTER:                  -9.024
REMARK INTRA:                  -1.197
REMARK UNBOUND:                 0.498
REMARK  Name = 
REMARK  12 active torsions:
REMARK  status: ('A' for Active; 'I' for Inactive)
REMARK    1  A    between atoms: C_1  and  C_2
REMARK    2  A    between atoms: C_2  and  C_3
REMARK    3  A    between atoms: C_2  and  C_10
REMARK    4  A    between atoms: C_3  and  C_4
REMARK    5  A    between atoms: N_8  and  C_9
REMARK    6  A    between atoms: C_12  and  N_13
REMARK    7  A    between atoms: C_14  and  C_16
REMARK    8  A    between atoms: C_19  and  C_20
REMARK    9  A    between atoms: C_20  and  C_21
REMARK   10  A    between atoms: C_20  and  C_22
REMARK   11  A    between atoms: C_20  and  C_23
REMARK   12  A    between atoms: C_27  and  C_28
REMARK                            x       y       z     vdW  Elec       q    Type
REMARK                         _______ _______ _______ _____ _____    ______ ____
ROOT
ATOM      1  C   UNL     1      -0.221  12.024  18.891  0.00  0.00    -0.042 A 
ATOM      2  C   UNL     1       0.420  10.776  18.948  0.00  0.00    -0.037 A 
ATOM      3  C   UNL     1      -0.086   9.664  18.264  0.00  0.00    +0.035 A 
ATOM      4  C   UNL     1      -1.252   9.803  17.511  0.00  0.00    -0.029 A 
ATOM      5  C   UNL     1      -1.912  11.042  17.431  0.00  0.00    +0.057 A 
ATOM      6  C   UNL     1      -1.391  12.143  18.130  0.00  0.00    -0.047 A 
ATOM      7  H   UNL     1       1.327  10.671  19.541  0.00  0.00    +0.064 HD
ATOM      8  H   UNL     1      -1.674   8.960  16.970  0.00  0.00    +0.064 HD
ATOM      9  H   UNL     1      -1.910  13.100  18.071  0.00  0.00    +0.063 HD
ENDROOT
BRANCH   3  10
ATOM     10  N   UNL     1       0.630   8.462  18.379  0.00  0.00    -0.280 N 
ATOM     11  C   UNL     1       1.968   8.229  18.122  0.00  0.00    +0.267 C 
ATOM     12  O   UNL     1       2.797   9.037  17.721  0.00  0.00    -0.268 OA
ATOM     13  H   UNL     1       0.127   7.633  18.688  0.00  0.00    +0.155 HD
BRANCH  11  14
ATOM     14  C   UNL     1       2.369   6.809  18.397  0.00  0.00    +0.126 A 
ATOM     15  C   UNL     1       3.417   6.532  19.258  0.00  0.00    -0.031 A 
ATOM     16  C   UNL     1       3.741   5.196  19.495  0.00  0.00    -0.054 A 
ATOM     17  C   UNL     1       3.022   4.166  18.875  0.00  0.00    -0.024 A 
ATOM     18  C   UNL     1       1.988   4.567  18.022  0.00  0.00    +0.032 A 
ATOM     19  N   UNL     1       1.639   5.849  17.763  0.00  0.00    -0.250 NA
ATOM     20  H   UNL     1       3.971   7.333  19.738  0.00  0.00    +0.064 HD
ATOM     21  H   UNL     1       4.563   4.991  20.177  0.00  0.00    +0.062 HD
ATOM     22  H   UNL     1       1.376   3.834  17.499  0.00  0.00    +0.083 HD
BRANCH  17  23
ATOM     23  C   UNL     1       3.311   2.676  19.110  0.00  0.00    -0.011 C 
BRANCH  23  24
ATOM     24  C   UNL     1       4.545   2.536  20.029  0.00  0.00    -0.056 C 
ATOM     25  H   UNL     1       5.266   3.342  19.849  0.00  0.00    +0.024 HD
ATOM     26  H   UNL     1       5.073   1.590  19.868  0.00  0.00    +0.024 HD
ATOM     27  H   UNL     1       4.257   2.578  21.087  0.00  0.00    +0.024 HD
ENDBRANCH  23  24
BRANCH  23  28
ATOM     28  C   UNL     1       2.099   2.000  19.786  0.00  0.00    -0.056 C 
ATOM     29  H   UNL     1       1.469   2.736  20.298  0.00  0.00    +0.024 HD
ATOM     30  H   UNL     1       2.400   1.251  20.526  0.00  0.00    +0.024 HD
ATOM     31  H   UNL     1       1.474   1.483  19.046  0.00  0.00    +0.024 HD
ENDBRANCH  23  28
BRANCH  23  32
ATOM     32  C   UNL     1       3.609   1.889  17.814  0.00  0.00    -0.056 C 
ATOM     33  H   UNL     1       4.181   0.977  18.017  0.00  0.00    +0.024 HD
ATOM     34  H   UNL     1       2.679   1.581  17.322  0.00  0.00    +0.024 HD
ATOM     35  H   UNL     1       4.172   2.496  17.096  0.00  0.00    +0.024 HD
ENDBRANCH  23  32
ENDBRANCH  17  23
ENDBRANCH  11  14
ENDBRANCH   3  10
BRANCH   5  36
ATOM     36  C   UNL     1      -3.182  11.166  16.625  0.00  0.00    +0.417 C 
ATOM     37  F   UNL     1      -4.044  12.096  17.125  0.00  0.00    -0.166 F 
ATOM     38  F   UNL     1      -2.960  11.530  15.332  0.00  0.00    -0.166 F 
ATOM     39  F   UNL     1      -3.884  10.000  16.575  0.00  0.00    -0.166 F 
ENDBRANCH   5  36
BRANCH   1  40
ATOM     40  C   UNL     1       0.371  13.212  19.638  0.00  0.00    -0.012 C 
ATOM     41  H   UNL     1      -0.344  14.043  19.573  0.00  0.00    +0.035 HD
BRANCH  40  42
ATOM     42  C   UNL     1       1.664  13.693  18.969  0.00  0.00    -0.058 C 
ATOM     43  H   UNL     1       1.755  13.281  17.959  0.00  0.00    +0.024 HD
ATOM     44  H   UNL     1       2.552  13.394  19.533  0.00  0.00    +0.024 HD
ATOM     45  H   UNL     1       1.680  14.785  18.881  0.00  0.00    +0.024 HD
ENDBRANCH  40  42
BRANCH  40  46
ATOM     46  C   UNL     1       0.573  12.862  21.128  0.00  0.00    +0.014 C 
ATOM     47  H   UNL     1       1.224  13.601  21.612  0.00  0.00    +0.035 HD
ATOM     48  H   UNL     1       1.094  11.899  21.221  0.00  0.00    +0.035 HD
BRANCH  46  49
ATOM     49  C   UNL     1      -0.717  12.792  21.872  0.00  0.00    +0.134 A 
ATOM     50  N   UNL     1      -1.620  13.747  21.962  0.00  0.00    -0.135 NA
ATOM     51  N   UNL     1      -2.663  13.282  22.727  0.00  0.00    -0.138 NA
ATOM     52  C   UNL     1      -2.372  12.059  23.093  0.00  0.00    +0.120 A 
ATOM     53  N   UNL     1      -1.162  11.708  22.582  0.00  0.00    -0.320 N 
ATOM     54  H   UNL     1      -2.988  11.415  23.706  0.00  0.00    +0.105 HD
BRANCH  53  55
ATOM     55  C   UNL     1      -0.506  10.441  22.752  0.00  0.00    +0.014 C 
ATOM     56  H   UNL     1      -1.246   9.649  22.612  0.00  0.00    +0.046 HD
ATOM     57  H   UNL     1       0.292  10.336  22.014  0.00  0.00    +0.046 HD
ATOM     58  H   UNL     1      -0.080  10.392  23.756  0.00  0.00    +0.046 HD
ENDBRANCH  53  55
ENDBRANCH  46  49
ENDBRANCH  40  46
ENDBRANCH   1  40
TORSDOF 12
ENDMDL
MODEL 28
REMARK VINA RESULT:    -6.790      2.707      4.178
REMARK INTER + INTRA:         -10.064
REMARK INTER:                  -9.931
REMARK INTRA:                  -0.133
REMARK UNBOUND:                 0.498
REMARK  Name = 
REMARK  12 active torsions:
REMARK  status: ('A' for Active; 'I' for Inactive)
REMARK    1  A    between atoms: C_1  and  C_2
REMARK    2  A    between atoms: C_2  and  C_3
REMARK    3  A    between atoms: C_2  and  C_10
REMARK    4  A    between atoms: C_3  and  C_4
REMARK    5  A    between atoms: N_8  and  C_9
REMARK    6  A    between atoms: C_12  and  N_13
REMARK    7  A    between atoms: C_14  and  C_16
REMARK    8  A    between atoms: C_19  and  C_20
REMARK    9  A    between atoms: C_20  and  C_21
REMARK   10  A    between atoms: C_20  and  C_22
REMARK   11  A    between atoms: C_20  and  C_23
REMARK   12  A    between atoms: C_27  and  C_28
REMARK                            x       y       z     vdW  Elec       q    Type
REMARK                         _______ _______ _______ _____ _____    ______ ____
ROOT
ATOM      1  C   UNL     1       2.179   4.746  20.499  0.00  0.00    -0.042 A 
ATOM      2  C   UNL     1       1.598   6.024  20.493  0.00  0.00    -0.037 A 
ATOM      3  C   UNL     1       2.261   7.125  19.938  0.00  0.00    +0.035 A 
ATOM      4  C   UNL     1       3.526   6.944  19.379  0.00  0.00    -0.029 A 
ATOM      5  C   UNL     1       4.131   5.676  19.366  0.00  0.00    +0.057 A 
ATOM      6  C   UNL     1       3.452   4.586  19.933  0.00  0.00    -0.047 A 
ATOM      7  H   UNL     1       0.612   6.162  20.934  0.00  0.00    +0.064 HD
ATOM      8  H   UNL     1       4.070   7.778  18.942  0.00  0.00    +0.064 HD
ATOM      9  H   UNL     1       3.927   3.605  19.927  0.00  0.00    +0.063 HD
ENDROOT
BRANCH   3  10
ATOM     10  N   UNL     1       1.593   8.359  19.975  0.00  0.00    -0.280 N 
ATOM     11  C   UNL     1       1.284   9.204  18.926  0.00  0.00    +0.267 C 
ATOM     12  O   UNL     1       1.553   9.042  17.741  0.00  0.00    -0.268 OA
ATOM     13  H   UNL     1       1.284   8.709  20.879  0.00  0.00    +0.155 HD
BRANCH  11  14
ATOM     14  C   UNL     1       0.530  10.423  19.369  0.00  0.00    +0.126 A 
ATOM     15  C   UNL     1      -0.486  10.941  18.585  0.00  0.00    -0.031 A 
ATOM     16  C   UNL     1      -1.170  12.065  19.048  0.00  0.00    -0.054 A 
ATOM     17  C   UNL     1      -0.832  12.652  20.275  0.00  0.00    -0.024 A 
ATOM     18  C   UNL     1       0.214  12.043  20.978  0.00  0.00    +0.032 A 
ATOM     19  N   UNL     1       0.904  10.954  20.567  0.00  0.00    -0.250 NA
ATOM     20  H   UNL     1      -0.747  10.484  17.636  0.00  0.00    +0.064 HD
ATOM     21  H   UNL     1      -1.969  12.461  18.426  0.00  0.00    +0.062 HD
ATOM     22  H   UNL     1       0.543  12.431  21.941  0.00  0.00    +0.083 HD
BRANCH  17  23
ATOM     23  C   UNL     1      -1.558  13.875  20.854  0.00  0.00    -0.011 C 
BRANCH  23  24
ATOM     24  C   UNL     1      -1.160  14.048  22.336  0.00  0.00    -0.056 C 
ATOM     25  H   UNL     1      -0.124  14.394  22.430  0.00  0.00    +0.024 HD
ATOM     26  H   UNL     1      -1.238  13.109  22.896  0.00  0.00    +0.024 HD
ATOM     27  H   UNL     1      -1.803  14.784  22.835  0.00  0.00    +0.024 HD
ENDBRANCH  23  24
BRANCH  23  28
ATOM     28  C   UNL     1      -1.164  15.146  20.073  0.00  0.00    -0.056 C 
ATOM     29  H   UNL     1      -1.529  15.107  19.040  0.00  0.00    +0.024 HD
ATOM     30  H   UNL     1      -0.079  15.291  20.034  0.00  0.00    +0.024 HD
ATOM     31  H   UNL     1      -1.587  16.044  20.542  0.00  0.00    +0.024 HD
ENDBRANCH  23  28
BRANCH  23  32
ATOM     32  C   UNL     1      -3.099  13.765  20.799  0.00  0.00    -0.056 C 
ATOM     33  H   UNL     1      -3.583  14.641  21.246  0.00  0.00    +0.024 HD
ATOM     34  H   UNL     1      -3.449  13.700  19.762  0.00  0.00    +0.024 HD
ATOM     35  H   UNL     1      -3.457  12.871  21.321  0.00  0.00    +0.024 HD
ENDBRANCH  23  32
ENDBRANCH  17  23
ENDBRANCH  11  14
ENDBRANCH   3  10
BRANCH   5  36
ATOM     36  C   UNL     1       5.508   5.506  18.772  0.00  0.00    +0.417 C 
ATOM     37  F   UNL     1       5.838   6.495  17.893  0.00  0.00    -0.166 F 
ATOM     38  F   UNL     1       6.497   5.506  19.709  0.00  0.00    -0.166 F 
ATOM     39  F   UNL     1       5.639   4.339  18.083  0.00  0.00    -0.166 F 
ENDBRANCH   5  36
BRANCH   1  40
ATOM     40  C   UNL     1       1.418   3.572  21.100  0.00  0.00    -0.012 C 
ATOM     41  H   UNL     1       0.589   3.976  21.697  0.00  0.00    +0.035 HD
BRANCH  40  42
ATOM     42  C   UNL     1       2.306   2.776  22.064  0.00  0.00    -0.058 C 
ATOM     43  H   UNL     1       2.383   1.730  21.748  0.00  0.00    +0.024 HD
ATOM     44  H   UNL     1       1.915   2.789  23.084  0.00  0.00    +0.024 HD
ATOM     45  H   UNL     1       3.322   3.186  22.092  0.00  0.00    +0.024 HD
ENDBRANCH  40  42
BRANCH  40  46
ATOM     46  C   UNL     1       0.824   2.690  19.981  0.00  0.00    +0.014 C 
ATOM     47  H   UNL     1      -0.067   3.163  19.550  0.00  0.00    +0.035 HD
ATOM     48  H   UNL     1       0.480   1.733  20.398  0.00  0.00    +0.035 HD
BRANCH  46  49
ATOM     49  C   UNL     1       1.805   2.422  18.891  0.00  0.00    +0.134 A 
ATOM     50  N   UNL     1       2.746   1.501  18.897  0.00  0.00    -0.135 NA
ATOM     51  N   UNL     1       3.427   1.574  17.705  0.00  0.00    -0.138 NA
ATOM     52  C   UNL     1       2.894   2.542  17.002  0.00  0.00    +0.120 A 
ATOM     53  N   UNL     1       1.873   3.103  17.704  0.00  0.00    -0.320 N 
ATOM     54  H   UNL     1       3.204   2.857  16.016  0.00  0.00    +0.105 HD
BRANCH  53  55
ATOM     55  C   UNL     1       1.036   4.184  17.263  0.00  0.00    +0.014 C 
ATOM     56  H   UNL     1       1.226   5.049  17.905  0.00  0.00    +0.046 HD
ATOM     57  H   UNL     1       1.272   4.434  16.227  0.00  0.00    +0.046 HD
ATOM     58  H   UNL     1      -0.009   3.879  17.334  0.00  0.00    +0.046 HD
ENDBRANCH  53  55
ENDBRANCH  46  49
ENDBRANCH  40  46
ENDBRANCH   1  40
TORSDOF 12
ENDMDL
MODEL 29
REMARK VINA RESULT:    -6.673      4.085      9.961
REMARK INTER + INTRA:          -9.881
REMARK INTER:                  -9.593
REMARK INTRA:                  -0.288
REMARK UNBOUND:                 0.498
REMARK  Name = 
REMARK  12 active torsions:
REMARK  status: ('A' for Active; 'I' for Inactive)
REMARK    1  A    between atoms: C_1  and  C_2
REMARK    2  A    between atoms: C_2  and  C_3
REMARK    3  A    between atoms: C_2  and  C_10
REMARK    4  A    between atoms: C_3  and  C_4
REMARK    5  A    between atoms: N_8  and  C_9
REMARK    6  A    between atoms: C_12  and  N_13
REMARK    7  A    between atoms: C_14  and  C_16
REMARK    8  A    between atoms: C_19  and  C_20
REMARK    9  A    between atoms: C_20  and  C_21
REMARK   10  A    between atoms: C_20  and  C_22
REMARK   11  A    between atoms: C_20  and  C_23
REMARK   12  A    between atoms: C_27  and  C_28
REMARK                            x       y       z     vdW  Elec       q    Type
REMARK                         _______ _______ _______ _____ _____    ______ ____
ROOT
ATOM      1  C   UNL     1      -0.171  10.914  20.443  0.00  0.00    -0.042 A 
ATOM      2  C   UNL     1       0.805  10.002  20.008  0.00  0.00    -0.037 A 
ATOM      3  C   UNL     1       0.710   9.372  18.761  0.00  0.00    +0.035 A 
ATOM      4  C   UNL     1      -0.377   9.658  17.936  0.00  0.00    -0.029 A 
ATOM      5  C   UNL     1      -1.366  10.570  18.342  0.00  0.00    +0.057 A 
ATOM      6  C   UNL     1      -1.256  11.187  19.598  0.00  0.00    -0.047 A 
ATOM      7  H   UNL     1       1.650   9.778  20.657  0.00  0.00    +0.064 HD
ATOM      8  H   UNL     1      -0.482   9.185  16.963  0.00  0.00    +0.064 HD
ATOM      9  H   UNL     1      -2.029  11.889  19.913  0.00  0.00    +0.063 HD
ENDROOT
BRANCH   3  10
ATOM     10  N   UNL     1       1.740   8.481  18.416  0.00  0.00    -0.280 N 
ATOM     11  C   UNL     1       2.205   7.387  19.120  0.00  0.00    +0.267 C 
ATOM     12  O   UNL     1       1.812   6.986  20.210  0.00  0.00    -0.268 OA
ATOM     13  H   UNL     1       2.230   8.635  17.538  0.00  0.00    +0.155 HD
BRANCH  11  14
ATOM     14  C   UNL     1       3.303   6.661  18.400  0.00  0.00    +0.126 A 
ATOM     15  C   UNL     1       3.618   5.356  18.737  0.00  0.00    -0.031 A 
ATOM     16  C   UNL     1       4.635   4.718  18.027  0.00  0.00    -0.054 A 
ATOM     17  C   UNL     1       5.318   5.385  17.002  0.00  0.00    -0.024 A 
ATOM     18  C   UNL     1       4.916   6.703  16.754  0.00  0.00    +0.032 A 
ATOM     19  N   UNL     1       3.936   7.360  17.417  0.00  0.00    -0.250 NA
ATOM     20  H   UNL     1       3.086   4.841  19.531  0.00  0.00    +0.064 HD
ATOM     21  H   UNL     1       4.870   3.691  18.297  0.00  0.00    +0.062 HD
ATOM     22  H   UNL     1       5.390   7.297  15.974  0.00  0.00    +0.083 HD
BRANCH  17  23
ATOM     23  C   UNL     1       6.430   4.735  16.166  0.00  0.00    -0.011 C 
BRANCH  23  24
ATOM     24  C   UNL     1       6.843   5.698  15.032  0.00  0.00    -0.056 C 
ATOM     25  H   UNL     1       6.029   5.830  14.309  0.00  0.00    +0.024 HD
ATOM     26  H   UNL     1       7.711   5.329  14.475  0.00  0.00    +0.024 HD
ATOM     27  H   UNL     1       7.100   6.688  15.427  0.00  0.00    +0.024 HD
ENDBRANCH  23  24
BRANCH  23  28
ATOM     28  C   UNL     1       7.659   4.442  17.053  0.00  0.00    -0.056 C 
ATOM     29  H   UNL     1       7.784   3.365  17.215  0.00  0.00    +0.024 HD
ATOM     30  H   UNL     1       7.585   4.917  18.037  0.00  0.00    +0.024 HD
ATOM     31  H   UNL     1       8.579   4.818  16.587  0.00  0.00    +0.024 HD
ENDBRANCH  23  28
BRANCH  23  32
ATOM     32  C   UNL     1       6.013   3.399  15.510  0.00  0.00    -0.056 C 
ATOM     33  H   UNL     1       5.961   3.483  14.418  0.00  0.00    +0.024 HD
ATOM     34  H   UNL     1       6.739   2.609  15.736  0.00  0.00    +0.024 HD
ATOM     35  H   UNL     1       5.037   3.059  15.875  0.00  0.00    +0.024 HD
ENDBRANCH  23  32
ENDBRANCH  17  23
ENDBRANCH  11  14
ENDBRANCH   3  10
BRANCH   5  36
ATOM     36  C   UNL     1      -2.543  10.852  17.441  0.00  0.00    +0.417 C 
ATOM     37  F   UNL     1      -2.223  11.631  16.368  0.00  0.00    -0.166 F 
ATOM     38  F   UNL     1      -3.098   9.723  16.919  0.00  0.00    -0.166 F 
ATOM     39  F   UNL     1      -3.549  11.506  18.086  0.00  0.00    -0.166 F 
ENDBRANCH   5  36
BRANCH   1  40
ATOM     40  C   UNL     1      -0.023  11.589  21.800  0.00  0.00    -0.012 C 
ATOM     41  H   UNL     1       0.811  11.108  22.328  0.00  0.00    +0.035 HD
BRANCH  40  42
ATOM     42  C   UNL     1      -1.273  11.370  22.661  0.00  0.00    -0.058 C 
ATOM     43  H   UNL     1      -0.998  11.174  23.703  0.00  0.00    +0.024 HD
ATOM     44  H   UNL     1      -1.868  10.523  22.309  0.00  0.00    +0.024 HD
ATOM     45  H   UNL     1      -1.918  12.255  22.653  0.00  0.00    +0.024 HD
ENDBRANCH  40  42
BRANCH  40  46
ATOM     46  C   UNL     1       0.314  13.084  21.620  0.00  0.00    +0.014 C 
ATOM     47  H   UNL     1       0.944  13.233  20.734  0.00  0.00    +0.035 HD
ATOM     48  H   UNL     1       0.909  13.442  22.472  0.00  0.00    +0.035 HD
BRANCH  46  49
ATOM     49  C   UNL     1      -0.909  13.928  21.491  0.00  0.00    +0.134 A 
ATOM     50  N   UNL     1      -1.822  14.126  22.418  0.00  0.00    -0.135 NA
ATOM     51  N   UNL     1      -2.778  14.972  21.907  0.00  0.00    -0.138 NA
ATOM     52  C   UNL     1      -2.432  15.266  20.679  0.00  0.00    +0.120 A 
ATOM     53  N   UNL     1      -1.266  14.635  20.373  0.00  0.00    -0.320 N 
ATOM     54  H   UNL     1      -2.976  15.909  20.001  0.00  0.00    +0.105 HD
BRANCH  53  55
ATOM     55  C   UNL     1      -0.561  14.718  19.124  0.00  0.00    +0.014 C 
ATOM     56  H   UNL     1      -0.800  15.677  18.657  0.00  0.00    +0.046 HD
ATOM     57  H   UNL     1       0.514  14.651  19.302  0.00  0.00    +0.046 HD
ATOM     58  H   UNL     1      -0.874  13.894  18.481  0.00  0.00    +0.046 HD
ENDBRANCH  53  55
ENDBRANCH  46  49
ENDBRANCH  40  46
ENDBRANCH   1  40
TORSDOF 12
ENDMDL
MODEL 30
REMARK VINA RESULT:    -6.625      2.767      4.156
REMARK INTER + INTRA:          -9.806
REMARK INTER:                  -9.840
REMARK INTRA:                   0.034
REMARK UNBOUND:                 0.498
REMARK  Name = 
REMARK  12 active torsions:
REMARK  status: ('A' for Active; 'I' for Inactive)
REMARK    1  A    between atoms: C_1  and  C_2
REMARK    2  A    between atoms: C_2  and  C_3
REMARK    3  A    between atoms: C_2  and  C_10
REMARK    4  A    between atoms: C_3  and  C_4
REMARK    5  A    between atoms: N_8  and  C_9
REMARK    6  A    between atoms: C_12  and  N_13
REMARK    7  A    between atoms: C_14  and  C_16
REMARK    8  A    between atoms: C_19  and  C_20
REMARK    9  A    between atoms: C_20  and  C_21
REMARK   10  A    between atoms: C_20  and  C_22
REMARK   11  A    between atoms: C_20  and  C_23
REMARK   12  A    between atoms: C_27  and  C_28
REMARK                            x       y       z     vdW  Elec       q    Type
REMARK                         _______ _______ _______ _____ _____    ______ ____
ROOT
ATOM      1  C   UNL     1       4.342   4.092  19.321  0.00  0.00    -0.042 A 
ATOM      2  C   UNL     1       3.564   5.202  19.688  0.00  0.00    -0.037 A 
ATOM      3  C   UNL     1       3.421   6.306  18.838  0.00  0.00    +0.035 A 
ATOM      4  C   UNL     1       4.068   6.300  17.603  0.00  0.00    -0.029 A 
ATOM      5  C   UNL     1       4.849   5.201  17.206  0.00  0.00    +0.057 A 
ATOM      6  C   UNL     1       4.984   4.106  18.075  0.00  0.00    -0.047 A 
ATOM      7  H   UNL     1       3.064   5.204  20.655  0.00  0.00    +0.064 HD
ATOM      8  H   UNL     1       3.981   7.142  16.920  0.00  0.00    +0.064 HD
ATOM      9  H   UNL     1       5.597   3.259  17.767  0.00  0.00    +0.063 HD
ENDROOT
BRANCH   3  10
ATOM     10  N   UNL     1       2.617   7.363  19.294  0.00  0.00    -0.280 N 
ATOM     11  C   UNL     1       2.090   8.417  18.572  0.00  0.00    +0.267 C 
ATOM     12  O   UNL     1       2.241   8.646  17.377  0.00  0.00    -0.268 OA
ATOM     13  H   UNL     1       2.373   7.387  20.281  0.00  0.00    +0.155 HD
BRANCH  11  14
ATOM     14  C   UNL     1       1.249   9.330  19.415  0.00  0.00    +0.126 A 
ATOM     15  C   UNL     1       0.956   8.999  20.727  0.00  0.00    -0.031 A 
ATOM     16  C   UNL     1       0.185   9.888  21.476  0.00  0.00    -0.054 A 
ATOM     17  C   UNL     1      -0.279  11.083  20.910  0.00  0.00    -0.024 A 
ATOM     18  C   UNL     1       0.077  11.308  19.576  0.00  0.00    +0.032 A 
ATOM     19  N   UNL     1       0.822  10.475  18.812  0.00  0.00    -0.250 NA
ATOM     20  H   UNL     1       1.317   8.073  21.163  0.00  0.00    +0.064 HD
ATOM     21  H   UNL     1      -0.035   9.619  22.506  0.00  0.00    +0.062 HD
ATOM     22  H   UNL     1      -0.238  12.212  19.056  0.00  0.00    +0.083 HD
BRANCH  17  23
ATOM     23  C   UNL     1      -1.111  12.116  21.685  0.00  0.00    -0.011 C 
BRANCH  23  24
ATOM     24  C   UNL     1      -1.611  11.482  23.001  0.00  0.00    -0.056 C 
ATOM     25  H   UNL     1      -2.052  12.237  23.663  0.00  0.00    +0.024 HD
ATOM     26  H   UNL     1      -0.802  10.998  23.559  0.00  0.00    +0.024 HD
ATOM     27  H   UNL     1      -2.378  10.722  22.808  0.00  0.00    +0.024 HD
ENDBRANCH  23  24
BRANCH  23  28
ATOM     28  C   UNL     1      -0.249  13.353  22.016  0.00  0.00    -0.056 C 
ATOM     29  H   UNL     1      -0.851  14.144  22.478  0.00  0.00    +0.024 HD
ATOM     30  H   UNL     1       0.227  13.778  21.126  0.00  0.00    +0.024 HD
ATOM     31  H   UNL     1       0.557  13.095  22.715  0.00  0.00    +0.024 HD
ENDBRANCH  23  28
BRANCH  23  32
ATOM     32  C   UNL     1      -2.352  12.618  20.913  0.00  0.00    -0.056 C 
ATOM     33  H   UNL     1      -2.508  13.693  21.053  0.00  0.00    +0.024 HD
ATOM     34  H   UNL     1      -2.237  12.449  19.836  0.00  0.00    +0.024 HD
ATOM     35  H   UNL     1      -3.261  12.094  21.229  0.00  0.00    +0.024 HD
ENDBRANCH  23  32
ENDBRANCH  17  23
ENDBRANCH  11  14
ENDBRANCH   3  10
BRANCH   5  36
ATOM     36  C   UNL     1       5.555   5.223  15.873  0.00  0.00    +0.417 C 
ATOM     37  F   UNL     1       6.914   5.209  15.985  0.00  0.00    -0.166 F 
ATOM     38  F   UNL     1       5.242   4.156  15.086  0.00  0.00    -0.166 F 
ATOM     39  F   UNL     1       5.255   6.333  15.143  0.00  0.00    -0.166 F 
ENDBRANCH   5  36
BRANCH   1  40
ATOM     40  C   UNL     1       4.459   2.904  20.267  0.00  0.00    -0.012 C 
ATOM     41  H   UNL     1       5.216   3.148  21.024  0.00  0.00    +0.035 HD
BRANCH  40  42
ATOM     42  C   UNL     1       4.963   1.660  19.527  0.00  0.00    -0.058 C 
ATOM     43  H   UNL     1       4.124   1.047  19.180  0.00  0.00    +0.024 HD
ATOM     44  H   UNL     1       5.592   1.033  20.164  0.00  0.00    +0.024 HD
ATOM     45  H   UNL     1       5.553   1.937  18.647  0.00  0.00    +0.024 HD
ENDBRANCH  40  42
BRANCH  40  46
ATOM     46  C   UNL     1       3.116   2.659  20.987  0.00  0.00    +0.014 C 
ATOM     47  H   UNL     1       2.900   3.475  21.688  0.00  0.00    +0.035 HD
ATOM     48  H   UNL     1       3.177   1.749  21.599  0.00  0.00    +0.035 HD
BRANCH  46  49
ATOM     49  C   UNL     1       1.978   2.528  20.032  0.00  0.00    +0.134 A 
ATOM     50  N   UNL     1       1.805   1.565  19.151  0.00  0.00    -0.135 NA
ATOM     51  N   UNL     1       0.632   1.806  18.475  0.00  0.00    -0.138 NA
ATOM     52  C   UNL     1       0.120   2.913  18.952  0.00  0.00    +0.120 A 
ATOM     53  N   UNL     1       0.928   3.402  19.930  0.00  0.00    -0.320 N 
ATOM     54  H   UNL     1      -0.802   3.377  18.629  0.00  0.00    +0.105 HD
BRANCH  53  55
ATOM     55  C   UNL     1       0.699   4.593  20.700  0.00  0.00    +0.014 C 
ATOM     56  H   UNL     1       1.146   5.437  20.169  0.00  0.00    +0.046 HD
ATOM     57  H   UNL     1      -0.375   4.756  20.817  0.00  0.00    +0.046 HD
ATOM     58  H   UNL     1       1.157   4.476  21.684  0.00  0.00    +0.046 HD
ENDBRANCH  53  55
ENDBRANCH  46  49
ENDBRANCH  40  46
ENDBRANCH   1  40
TORSDOF 12
ENDMDL
MODEL 31
REMARK VINA RESULT:    -6.569      3.396      4.957
REMARK INTER + INTRA:          -9.719
REMARK INTER:                  -9.007
REMARK INTRA:                  -0.712
REMARK UNBOUND:                 0.498
REMARK  Name = 
REMARK  12 active torsions:
REMARK  status: ('A' for Active; 'I' for Inactive)
REMARK    1  A    between atoms: C_1  and  C_2
REMARK    2  A    between atoms: C_2  and  C_3
REMARK    3  A    between atoms: C_2  and  C_10
REMARK    4  A    between atoms: C_3  and  C_4
REMARK    5  A    between atoms: N_8  and  C_9
REMARK    6  A    between atoms: C_12  and  N_13
REMARK    7  A    between atoms: C_14  and  C_16
REMARK    8  A    between atoms: C_19  and  C_20
REMARK    9  A    between atoms: C_20  and  C_21
REMARK   10  A    between atoms: C_20  and  C_22
REMARK   11  A    between atoms: C_20  and  C_23
REMARK   12  A    between atoms: C_27  and  C_28
REMARK                            x       y       z     vdW  Elec       q    Type
REMARK                         _______ _______ _______ _____ _____    ______ ____
ROOT
ATOM      1  C   UNL     1       3.698   4.918  17.557  0.00  0.00    -0.042 A 
ATOM      2  C   UNL     1       3.037   6.128  17.824  0.00  0.00    -0.037 A 
ATOM      3  C   UNL     1       3.721   7.351  17.810  0.00  0.00    +0.035 A 
ATOM      4  C   UNL     1       5.086   7.362  17.526  0.00  0.00    -0.029 A 
ATOM      5  C   UNL     1       5.772   6.167  17.250  0.00  0.00    +0.057 A 
ATOM      6  C   UNL     1       5.070   4.952  17.274  0.00  0.00    -0.047 A 
ATOM      7  H   UNL     1       1.972   6.114  18.049  0.00  0.00    +0.064 HD
ATOM      8  H   UNL     1       5.647   8.293  17.510  0.00  0.00    +0.064 HD
ATOM      9  H   UNL     1       5.608   4.026  17.067  0.00  0.00    +0.063 HD
ENDROOT
BRANCH   3  10
ATOM     10  N   UNL     1       2.970   8.505  18.083  0.00  0.00    -0.280 N 
ATOM     11  C   UNL     1       1.622   8.726  17.873  0.00  0.00    +0.267 C 
ATOM     12  O   UNL     1       0.811   7.948  17.385  0.00  0.00    -0.268 OA
ATOM     13  H   UNL     1       3.452   9.305  18.486  0.00  0.00    +0.155 HD
BRANCH  11  14
ATOM     14  C   UNL     1       1.183  10.087  18.328  0.00  0.00    +0.126 A 
ATOM     15  C   UNL     1      -0.126  10.304  18.724  0.00  0.00    -0.031 A 
ATOM     16  C   UNL     1      -0.482  11.582  19.155  0.00  0.00    -0.054 A 
ATOM     17  C   UNL     1       0.463  12.615  19.184  0.00  0.00    -0.024 A 
ATOM     18  C   UNL     1       1.753  12.278  18.756  0.00  0.00    +0.032 A 
ATOM     19  N   UNL     1       2.142  11.054  18.330  0.00  0.00    -0.250 NA
ATOM     20  H   UNL     1      -0.856   9.501  18.702  0.00  0.00    +0.064 HD
ATOM     21  H   UNL     1      -1.512  11.739  19.468  0.00  0.00    +0.062 HD
ATOM     22  H   UNL     1       2.551  13.019  18.746  0.00  0.00    +0.083 HD
BRANCH  17  23
ATOM     23  C   UNL     1       0.144  14.037  19.669  0.00  0.00    -0.011 C 
BRANCH  23  24
ATOM     24  C   UNL     1      -1.179  14.018  20.464  0.00  0.00    -0.056 C 
ATOM     25  H   UNL     1      -1.726  13.081  20.302  0.00  0.00    +0.024 HD
ATOM     26  H   UNL     1      -1.848  14.835  20.172  0.00  0.00    +0.024 HD
ATOM     27  H   UNL     1      -0.995  14.113  21.542  0.00  0.00    +0.024 HD
ENDBRANCH  23  24
BRANCH  23  28
ATOM     28  C   UNL     1       1.276  14.553  20.583  0.00  0.00    -0.056 C 
ATOM     29  H   UNL     1       1.178  15.630  20.765  0.00  0.00    +0.024 HD
ATOM     30  H   UNL     1       2.269  14.380  20.154  0.00  0.00    +0.024 HD
ATOM     31  H   UNL     1       1.257  14.047  21.557  0.00  0.00    +0.024 HD
ENDBRANCH  23  28
BRANCH  23  32
ATOM     32  C   UNL     1      -0.020  15.061  18.524  0.00  0.00    -0.056 C 
ATOM     33  H   UNL     1       0.504  14.742  17.616  0.00  0.00    +0.024 HD
ATOM     34  H   UNL     1      -1.076  15.183  18.257  0.00  0.00    +0.024 HD
ATOM     35  H   UNL     1       0.360  16.049  18.810  0.00  0.00    +0.024 HD
ENDBRANCH  23  32
ENDBRANCH  17  23
ENDBRANCH  11  14
ENDBRANCH   3  10
BRANCH   5  36
ATOM     36  C   UNL     1       7.253   6.200  16.963  0.00  0.00    +0.417 C 
ATOM     37  F   UNL     1       7.573   5.689  15.740  0.00  0.00    -0.166 F 
ATOM     38  F   UNL     1       7.772   7.460  16.980  0.00  0.00    -0.166 F 
ATOM     39  F   UNL     1       7.976   5.481  17.865  0.00  0.00    -0.166 F 
ENDBRANCH   5  36
BRANCH   1  40
ATOM     40  C   UNL     1       2.915   3.612  17.567  0.00  0.00    -0.012 C 
ATOM     41  H   UNL     1       3.508   2.866  18.113  0.00  0.00    +0.035 HD
BRANCH  40  42
ATOM     42  C   UNL     1       2.732   3.070  16.144  0.00  0.00    -0.058 C 
ATOM     43  H   UNL     1       1.928   3.603  15.625  0.00  0.00    +0.024 HD
ATOM     44  H   UNL     1       2.482   2.005  16.141  0.00  0.00    +0.024 HD
ATOM     45  H   UNL     1       3.645   3.199  15.553  0.00  0.00    +0.024 HD
ENDBRANCH  40  42
BRANCH  40  46
ATOM     46  C   UNL     1       1.572   3.798  18.304  0.00  0.00    +0.014 C 
ATOM     47  H   UNL     1       0.777   3.228  17.806  0.00  0.00    +0.035 HD
ATOM     48  H   UNL     1       1.259   4.850  18.257  0.00  0.00    +0.035 HD
BRANCH  46  49
ATOM     49  C   UNL     1       1.647   3.375  19.732  0.00  0.00    +0.134 A 
ATOM     50  N   UNL     1       1.677   2.137  20.179  0.00  0.00    -0.135 NA
ATOM     51  N   UNL     1       1.757   2.177  21.551  0.00  0.00    -0.138 NA
ATOM     52  C   UNL     1       1.767   3.436  21.911  0.00  0.00    +0.120 A 
ATOM     53  N   UNL     1       1.700   4.225  20.805  0.00  0.00    -0.320 N 
ATOM     54  H   UNL     1       1.821   3.807  22.925  0.00  0.00    +0.105 HD
BRANCH  53  55
ATOM     55  C   UNL     1       1.700   5.662  20.789  0.00  0.00    +0.014 C 
ATOM     56  H   UNL     1       0.764   6.010  21.232  0.00  0.00    +0.046 HD
ATOM     57  H   UNL     1       2.546   6.037  21.369  0.00  0.00    +0.046 HD
ATOM     58  H   UNL     1       1.785   6.007  19.757  0.00  0.00    +0.046 HD
ENDBRANCH  53  55
ENDBRANCH  46  49
ENDBRANCH  40  46
ENDBRANCH   1  40
TORSDOF 12
ENDMDL
MODEL 32
REMARK VINA RESULT:    -6.545      2.957      4.364
REMARK INTER + INTRA:          -9.682
REMARK INTER:                 -10.180
REMARK INTRA:                   0.498
REMARK UNBOUND:                 0.498
REMARK  Name = 
REMARK  12 active torsions:
REMARK  status: ('A' for Active; 'I' for Inactive)
REMARK    1  A    between atoms: C_1  and  C_2
REMARK    2  A    between atoms: C_2  and  C_3
REMARK    3  A    between atoms: C_2  and  C_10
REMARK    4  A    between atoms: C_3  and  C_4
REMARK    5  A    between atoms: N_8  and  C_9
REMARK    6  A    between atoms: C_12  and  N_13
REMARK    7  A    between atoms: C_14  and  C_16
REMARK    8  A    between atoms: C_19  and  C_20
REMARK    9  A    between atoms: C_20  and  C_21
REMARK   10  A    between atoms: C_20  and  C_22
REMARK   11  A    between atoms: C_20  and  C_23
REMARK   12  A    between atoms: C_27  and  C_28
REMARK                            x       y       z     vdW  Elec       q    Type
REMARK                         _______ _______ _______ _____ _____    ______ ____
ROOT
ATOM      1  C   UNL     1       1.832   5.153  20.495  0.00  0.00    -0.042 A 
ATOM      2  C   UNL     1       1.172   6.316  20.924  0.00  0.00    -0.037 A 
ATOM      3  C   UNL     1       1.453   7.565  20.358  0.00  0.00    +0.035 A 
ATOM      4  C   UNL     1       2.409   7.652  19.346  0.00  0.00    -0.029 A 
ATOM      5  C   UNL     1       3.081   6.505  18.892  0.00  0.00    +0.057 A 
ATOM      6  C   UNL     1       2.790   5.263  19.477  0.00  0.00    -0.047 A 
ATOM      7  H   UNL     1       0.429   6.243  21.717  0.00  0.00    +0.064 HD
ATOM      8  H   UNL     1       2.652   8.607  18.886  0.00  0.00    +0.064 HD
ATOM      9  H   UNL     1       3.319   4.376  19.127  0.00  0.00    +0.063 HD
ENDROOT
BRANCH   3  10
ATOM     10  N   UNL     1       0.735   8.666  20.851  0.00  0.00    -0.280 N 
ATOM     11  C   UNL     1       0.594   9.923  20.293  0.00  0.00    +0.267 C 
ATOM     12  O   UNL     1       1.091  10.330  19.250  0.00  0.00    -0.268 OA
ATOM     13  H   UNL     1       0.244   8.560  21.736  0.00  0.00    +0.155 HD
BRANCH  11  14
ATOM     14  C   UNL     1      -0.285  10.822  21.112  0.00  0.00    +0.126 A 
ATOM     15  C   UNL     1      -0.578  10.506  22.427  0.00  0.00    -0.031 A 
ATOM     16  C   UNL     1      -1.385  11.382  23.153  0.00  0.00    -0.054 A 
ATOM     17  C   UNL     1      -1.884  12.550  22.561  0.00  0.00    -0.024 A 
ATOM     18  C   UNL     1      -1.524  12.762  21.225  0.00  0.00    +0.032 A 
ATOM     19  N   UNL     1      -0.745  11.940  20.484  0.00  0.00    -0.250 NA
ATOM     20  H   UNL     1      -0.189   9.601  22.884  0.00  0.00    +0.064 HD
ATOM     21  H   UNL     1      -1.605  11.125  24.186  0.00  0.00    +0.062 HD
ATOM     22  H   UNL     1      -1.866  13.644  20.686  0.00  0.00    +0.083 HD
BRANCH  17  23
ATOM     23  C   UNL     1      -2.757  13.568  23.309  0.00  0.00    -0.011 C 
BRANCH  23  24
ATOM     24  C   UNL     1      -3.508  14.444  22.283  0.00  0.00    -0.056 C 
ATOM     25  H   UNL     1      -3.482  13.994  21.283  0.00  0.00    +0.024 HD
ATOM     26  H   UNL     1      -3.070  15.445  22.197  0.00  0.00    +0.024 HD
ATOM     27  H   UNL     1      -4.561  14.569  22.564  0.00  0.00    +0.024 HD
ENDBRANCH  23  24
BRANCH  23  28
ATOM     28  C   UNL     1      -3.786  12.836  24.197  0.00  0.00    -0.056 C 
ATOM     29  H   UNL     1      -3.291  12.289  25.008  0.00  0.00    +0.024 HD
ATOM     30  H   UNL     1      -4.386  12.115  23.631  0.00  0.00    +0.024 HD
ATOM     31  H   UNL     1      -4.488  13.545  24.652  0.00  0.00    +0.024 HD
ENDBRANCH  23  28
BRANCH  23  32
ATOM     32  C   UNL     1      -1.955  14.517  24.228  0.00  0.00    -0.056 C 
ATOM     33  H   UNL     1      -1.744  14.057  25.200  0.00  0.00    +0.024 HD
ATOM     34  H   UNL     1      -0.989  14.773  23.778  0.00  0.00    +0.024 HD
ATOM     35  H   UNL     1      -2.492  15.456  24.402  0.00  0.00    +0.024 HD
ENDBRANCH  23  32
ENDBRANCH  17  23
ENDBRANCH  11  14
ENDBRANCH   3  10
BRANCH   5  36
ATOM     36  C   UNL     1       4.124   6.625  17.809  0.00  0.00    +0.417 C 
ATOM     37  F   UNL     1       4.036   7.790  17.106  0.00  0.00    -0.166 F 
ATOM     38  F   UNL     1       5.399   6.584  18.288  0.00  0.00    -0.166 F 
ATOM     39  F   UNL     1       4.034   5.628  16.885  0.00  0.00    -0.166 F 
ENDBRANCH   5  36
BRANCH   1  40
ATOM     40  C   UNL     1       1.487   3.811  21.127  0.00  0.00    -0.012 C 
ATOM     41  H   UNL     1       0.730   3.987  21.903  0.00  0.00    +0.035 HD
BRANCH  40  42
ATOM     42  C   UNL     1       2.706   3.206  21.833  0.00  0.00    -0.058 C 
ATOM     43  H   UNL     1       3.636   3.598  21.407  0.00  0.00    +0.024 HD
ATOM     44  H   UNL     1       2.731   2.117  21.744  0.00  0.00    +0.024 HD
ATOM     45  H   UNL     1       2.706   3.452  22.901  0.00  0.00    +0.024 HD
ENDBRANCH  40  42
BRANCH  40  46
ATOM     46  C   UNL     1       0.886   2.860  20.070  0.00  0.00    +0.014 C 
ATOM     47  H   UNL     1       0.042   3.338  19.558  0.00  0.00    +0.035 HD
ATOM     48  H   UNL     1       0.470   1.968  20.559  0.00  0.00    +0.035 HD
BRANCH  46  49
ATOM     49  C   UNL     1       1.892   2.435  19.054  0.00  0.00    +0.134 A 
ATOM     50  N   UNL     1       2.839   1.537  19.222  0.00  0.00    -0.135 NA
ATOM     51  N   UNL     1       3.544   1.431  18.046  0.00  0.00    -0.138 NA
ATOM     52  C   UNL     1       3.017   2.271  17.191  0.00  0.00    +0.120 A 
ATOM     53  N   UNL     1       1.978   2.923  17.777  0.00  0.00    -0.320 N 
ATOM     54  H   UNL     1       3.345   2.431  16.173  0.00  0.00    +0.105 HD
BRANCH  53  55
ATOM     55  C   UNL     1       1.142   3.914  17.157  0.00  0.00    +0.014 C 
ATOM     56  H   UNL     1       1.312   4.870  17.658  0.00  0.00    +0.046 HD
ATOM     57  H   UNL     1       1.397   4.001  16.098  0.00  0.00    +0.046 HD
ATOM     58  H   UNL     1       0.098   3.612  17.255  0.00  0.00    +0.046 HD
ENDBRANCH  53  55
ENDBRANCH  46  49
ENDBRANCH  40  46
ENDBRANCH   1  40
TORSDOF 12
ENDMDL
MODEL 33
REMARK VINA RESULT:    -6.453      4.801      9.835
REMARK INTER + INTRA:          -9.540
REMARK INTER:                  -8.378
REMARK INTRA:                  -1.161
REMARK UNBOUND:                 0.498
REMARK  Name = 
REMARK  12 active torsions:
REMARK  status: ('A' for Active; 'I' for Inactive)
REMARK    1  A    between atoms: C_1  and  C_2
REMARK    2  A    between atoms: C_2  and  C_3
REMARK    3  A    between atoms: C_2  and  C_10
REMARK    4  A    between atoms: C_3  and  C_4
REMARK    5  A    between atoms: N_8  and  C_9
REMARK    6  A    between atoms: C_12  and  N_13
REMARK    7  A    between atoms: C_14  and  C_16
REMARK    8  A    between atoms: C_19  and  C_20
REMARK    9  A    between atoms: C_20  and  C_21
REMARK   10  A    between atoms: C_20  and  C_22
REMARK   11  A    between atoms: C_20  and  C_23
REMARK   12  A    between atoms: C_27  and  C_28
REMARK                            x       y       z     vdW  Elec       q    Type
REMARK                         _______ _______ _______ _____ _____    ______ ____
ROOT
ATOM      1  C   UNL     1      -0.649  12.380  19.449  0.00  0.00    -0.042 A 
ATOM      2  C   UNL     1      -0.191  11.052  19.455  0.00  0.00    -0.037 A 
ATOM      3  C   UNL     1       1.150  10.741  19.198  0.00  0.00    +0.035 A 
ATOM      4  C   UNL     1       2.048  11.775  18.931  0.00  0.00    -0.029 A 
ATOM      5  C   UNL     1       1.619  13.114  18.924  0.00  0.00    +0.057 A 
ATOM      6  C   UNL     1       0.270  13.404  19.178  0.00  0.00    -0.047 A 
ATOM      7  H   UNL     1      -0.895  10.248  19.660  0.00  0.00    +0.064 HD
ATOM      8  H   UNL     1       3.095  11.569  18.725  0.00  0.00    +0.064 HD
ATOM      9  H   UNL     1      -0.060  14.443  19.165  0.00  0.00    +0.063 HD
ENDROOT
BRANCH   3  10
ATOM     10  N   UNL     1       1.510   9.385  19.233  0.00  0.00    -0.280 N 
ATOM     11  C   UNL     1       1.566   8.536  20.322  0.00  0.00    +0.267 C 
ATOM     12  O   UNL     1       1.325   8.814  21.491  0.00  0.00    -0.268 OA
ATOM     13  H   UNL     1       1.772   8.937  18.358  0.00  0.00    +0.155 HD
BRANCH  11  14
ATOM     14  C   UNL     1       1.967   7.140  19.946  0.00  0.00    +0.126 A 
ATOM     15  C   UNL     1       1.595   6.068  20.739  0.00  0.00    -0.031 A 
ATOM     16  C   UNL     1       1.976   4.787  20.338  0.00  0.00    -0.054 A 
ATOM     17  C   UNL     1       2.716   4.596  19.164  0.00  0.00    -0.024 A 
ATOM     18  C   UNL     1       3.037   5.755  18.446  0.00  0.00    +0.032 A 
ATOM     19  N   UNL     1       2.689   7.015  18.798  0.00  0.00    -0.250 NA
ATOM     20  H   UNL     1       1.021   6.218  21.648  0.00  0.00    +0.064 HD
ATOM     21  H   UNL     1       1.675   3.952  20.966  0.00  0.00    +0.062 HD
ATOM     22  H   UNL     1       3.608   5.701  17.521  0.00  0.00    +0.083 HD
BRANCH  17  23
ATOM     23  C   UNL     1       3.147   3.214  18.653  0.00  0.00    -0.011 C 
BRANCH  23  24
ATOM     24  C   UNL     1       4.117   2.575  19.671  0.00  0.00    -0.056 C 
ATOM     25  H   UNL     1       4.942   3.256  19.913  0.00  0.00    +0.024 HD
ATOM     26  H   UNL     1       4.564   1.650  19.291  0.00  0.00    +0.024 HD
ATOM     27  H   UNL     1       3.602   2.331  20.609  0.00  0.00    +0.024 HD
ENDBRANCH  23  24
BRANCH  23  28
ATOM     28  C   UNL     1       1.914   2.300  18.488  0.00  0.00    -0.056 C 
ATOM     29  H   UNL     1       1.416   2.129  19.450  0.00  0.00    +0.024 HD
ATOM     30  H   UNL     1       2.175   1.320  18.073  0.00  0.00    +0.024 HD
ATOM     31  H   UNL     1       1.180   2.748  17.806  0.00  0.00    +0.024 HD
ENDBRANCH  23  28
BRANCH  23  32
ATOM     32  C   UNL     1       3.871   3.254  17.288  0.00  0.00    -0.056 C 
ATOM     33  H   UNL     1       3.293   3.807  16.539  0.00  0.00    +0.024 HD
ATOM     34  H   UNL     1       4.843   3.754  17.376  0.00  0.00    +0.024 HD
ATOM     35  H   UNL     1       4.057   2.245  16.903  0.00  0.00    +0.024 HD
ENDBRANCH  23  32
ENDBRANCH  17  23
ENDBRANCH  11  14
ENDBRANCH   3  10
BRANCH   5  36
ATOM     36  C   UNL     1       2.603  14.215  18.615  0.00  0.00    +0.417 C 
ATOM     37  F   UNL     1       2.043  15.261  17.942  0.00  0.00    -0.166 F 
ATOM     38  F   UNL     1       3.165  14.758  19.731  0.00  0.00    -0.166 F 
ATOM     39  F   UNL     1       3.638  13.788  17.839  0.00  0.00    -0.166 F 
ENDBRANCH   5  36
BRANCH   1  40
ATOM     40  C   UNL     1      -2.112  12.676  19.749  0.00  0.00    -0.012 C 
ATOM     41  H   UNL     1      -2.446  13.463  19.059  0.00  0.00    +0.035 HD
BRANCH  40  42
ATOM     42  C   UNL     1      -2.280  13.235  21.167  0.00  0.00    -0.058 C 
ATOM     43  H   UNL     1      -3.306  13.091  21.522  0.00  0.00    +0.024 HD
ATOM     44  H   UNL     1      -2.058  14.305  21.213  0.00  0.00    +0.024 HD
ATOM     45  H   UNL     1      -1.614  12.727  21.872  0.00  0.00    +0.024 HD
ENDBRANCH  40  42
BRANCH  40  46
ATOM     46  C   UNL     1      -2.974  11.419  19.504  0.00  0.00    +0.014 C 
ATOM     47  H   UNL     1      -3.704  11.290  20.313  0.00  0.00    +0.035 HD
ATOM     48  H   UNL     1      -2.343  10.520  19.526  0.00  0.00    +0.035 HD
BRANCH  46  49
ATOM     49  C   UNL     1      -3.699  11.475  18.202  0.00  0.00    +0.134 A 
ATOM     50  N   UNL     1      -4.815  12.128  17.958  0.00  0.00    -0.135 NA
ATOM     51  N   UNL     1      -5.147  11.933  16.638  0.00  0.00    -0.138 NA
ATOM     52  C   UNL     1      -4.232  11.160  16.109  0.00  0.00    +0.120 A 
ATOM     53  N   UNL     1      -3.303  10.847  17.051  0.00  0.00    -0.320 N 
ATOM     54  H   UNL     1      -4.205  10.817  15.084  0.00  0.00    +0.105 HD
BRANCH  53  55
ATOM     55  C   UNL     1      -2.137  10.030  16.852  0.00  0.00    +0.014 C 
ATOM     56  H   UNL     1      -1.283  10.687  16.672  0.00  0.00    +0.046 HD
ATOM     57  H   UNL     1      -1.956   9.423  17.742  0.00  0.00    +0.046 HD
ATOM     58  H   UNL     1      -2.302   9.376  15.994  0.00  0.00    +0.046 HD
ENDBRANCH  53  55
ENDBRANCH  46  49
ENDBRANCH  40  46
ENDBRANCH   1  40
TORSDOF 12
ENDMDL
