MODEL 1
REMARK VINA RESULT:    -6.606      0.000      0.000
REMARK INTER + INTRA:          -9.460
REMARK INTER:                  -8.866
REMARK INTRA:                  -0.594
REMARK UNBOUND:                -0.730
REMARK  Name = 
REMARK  7 active torsions:
REMARK  status: ('A' for Active; 'I' for Inactive)
REMARK    1  A    between atoms: C_1  and  C_2
REMARK    2  A    between atoms: C_4  and  C_5
REMARK    3  A    between atoms: N_8  and  C_9
REMARK    4  A    between atoms: C_12  and  C_13
REMARK    5  A    between atoms: C_17  and  C_18
REMARK    6  A    between atoms: C_18  and  N_19
REMARK    7  A    between atoms: C_20  and  C_21
REMARK                            x       y       z     vdW  Elec       q    Type
REMARK                         _______ _______ _______ _____ _____    ______ ____
ROOT
ATOM      1  C   UNL     1       1.504  10.303  18.707  0.00  0.00    +0.268 C 
ATOM      2  O   UNL     1       2.404  11.062  18.342  0.00  0.00    -0.268 OA
ATOM      3  N   UNL     1       0.196  10.757  18.800  0.00  0.00    -0.295 N 
ATOM      4  C   UNL     1      -0.126  12.147  18.530  0.00  0.00    +0.020 C 
ATOM      5  C   UNL     1      -1.564  12.338  19.019  0.00  0.00    -0.005 C 
ATOM      6  C   UNL     1      -2.182  10.932  18.827  0.00  0.00    +0.005 C 
ATOM      7  C   UNL     1      -1.002   9.984  19.108  0.00  0.00    +0.022 C 
ATOM      8  H   UNL     1      -0.057  12.295  17.446  0.00  0.00    +0.047 HD
ATOM      9  H   UNL     1       0.604  12.809  19.005  0.00  0.00    +0.047 HD
ATOM     10  H   UNL     1      -2.073  13.098  18.412  0.00  0.00    +0.033 HD
ATOM     11  H   UNL     1      -2.964  10.725  19.570  0.00  0.00    +0.037 HD
ATOM     12  H   UNL     1      -1.041   9.058  18.528  0.00  0.00    +0.047 HD
ATOM     13  H   UNL     1      -0.960   9.737  20.175  0.00  0.00    +0.047 HD
ENDROOT
BRANCH   6  14
ATOM     14  C   UNL     1      -2.832  10.800  17.456  0.00  0.00    -0.042 A 
ATOM     15  C   UNL     1      -3.970  11.526  17.071  0.00  0.00    -0.058 A 
ATOM     16  C   UNL     1      -4.535  11.350  15.806  0.00  0.00    -0.061 A 
ATOM     17  C   UNL     1      -3.978  10.442  14.910  0.00  0.00    -0.062 A 
ATOM     18  C   UNL     1      -2.855   9.707  15.277  0.00  0.00    -0.061 A 
ATOM     19  C   UNL     1      -2.289   9.882  16.542  0.00  0.00    -0.058 A 
ATOM     20  H   UNL     1      -4.439  12.236  17.747  0.00  0.00    +0.062 HD
ATOM     21  H   UNL     1      -5.415  11.922  15.522  0.00  0.00    +0.062 HD
ATOM     22  H   UNL     1      -4.419  10.308  13.925  0.00  0.00    +0.062 HD
ATOM     23  H   UNL     1      -2.419   8.996  14.580  0.00  0.00    +0.062 HD
ATOM     24  H   UNL     1      -1.414   9.293  16.809  0.00  0.00    +0.062 HD
ENDBRANCH   6  14
BRANCH   1  29
ATOM     25  C   UNL     1       1.625   8.349  20.310  0.00  0.00    +0.135 A 
ATOM     26  O   UNL     1       1.989   7.035  20.246  0.00  0.00    -0.440 OA
ATOM     27  C   UNL     1       2.367   6.843  18.942  0.00  0.00    +0.231 A 
ATOM     28  N   UNL     1       2.268   7.928  18.199  0.00  0.00    -0.204 NA
ATOM     29  C   UNL     1       1.797   8.910  19.058  0.00  0.00    +0.167 A 
BRANCH  27  30
ATOM     30  C   UNL     1       2.864   5.486  18.394  0.00  0.00    +0.074 A 
ATOM     31  C   UNL     1       3.834   5.256  17.406  0.00  0.00    +0.062 A 
ATOM     32  N   UNL     1       4.017   3.951  17.177  0.00  0.00    -0.179 NA
ATOM     33  N   UNL     1       3.155   3.357  18.027  0.00  0.00    -0.274 N 
ATOM     34  C   UNL     1       2.438   4.238  18.782  0.00  0.00    +0.037 A 
ATOM     35  H   UNL     1       4.412   5.980  16.846  0.00  0.00    +0.086 HD
ATOM     36  H   UNL     1       1.706   3.917  19.509  0.00  0.00    +0.083 HD
BRANCH  33  37
ATOM     37  C   UNL     1       3.072   1.917  18.059  0.00  0.00    +0.030 C 
ATOM     38  H   UNL     1       4.042   1.523  18.373  0.00  0.00    +0.047 HD
ATOM     39  H   UNL     1       2.818   1.563  17.057  0.00  0.00    +0.047 HD
ATOM     40  H   UNL     1       2.298   1.613  18.769  0.00  0.00    +0.047 HD
ENDBRANCH  33  37
ENDBRANCH  27  30
BRANCH  25  41
ATOM     41  C   UNL     1       1.156   8.852  21.615  0.00  0.00    -0.004 C 
ATOM     42  H   UNL     1       0.936   8.020  22.291  0.00  0.00    +0.031 HD
ATOM     43  H   UNL     1       1.920   9.484  22.078  0.00  0.00    +0.031 HD
ATOM     44  H   UNL     1       0.245   9.449  21.506  0.00  0.00    +0.031 HD
ENDBRANCH  25  41
ENDBRANCH   1  29
BRANCH   5  45
ATOM     45  C   UNL     1      -1.640  12.769  20.495  0.00  0.00    -0.002 C 
ATOM     46  H   UNL     1      -1.324  13.811  20.619  0.00  0.00    +0.043 HD
ATOM     47  H   UNL     1      -0.949  12.158  21.085  0.00  0.00    +0.043 HD
BRANCH  45  48
ATOM     48  N   UNL     1      -2.971  12.612  21.073  0.00  0.00    -0.330 NA
ATOM     49  H   UNL     1      -2.987  11.820  21.714  0.00  0.00    +0.118 HD
ATOM     50  H   UNL     1      -3.659  12.412  20.347  0.00  0.00    +0.118 HD
ENDBRANCH  45  48
ENDBRANCH   5  45
TORSDOF 7
ENDMDL
MODEL 2
REMARK VINA RESULT:    -6.042      3.743      8.746
REMARK INTER + INTRA:          -8.715
REMARK INTER:                  -8.238
REMARK INTRA:                  -0.477
REMARK UNBOUND:                -0.730
REMARK  Name = 
REMARK  7 active torsions:
REMARK  status: ('A' for Active; 'I' for Inactive)
REMARK    1  A    between atoms: C_1  and  C_2
REMARK    2  A    between atoms: C_4  and  C_5
REMARK    3  A    between atoms: N_8  and  C_9
REMARK    4  A    between atoms: C_12  and  C_13
REMARK    5  A    between atoms: C_17  and  C_18
REMARK    6  A    between atoms: C_18  and  N_19
REMARK    7  A    between atoms: C_20  and  C_21
REMARK                            x       y       z     vdW  Elec       q    Type
REMARK                         _______ _______ _______ _____ _____    ______ ____
ROOT
ATOM      1  C   UNL     1       4.216   4.243  19.744  0.00  0.00    +0.268 C 
ATOM      2  O   UNL     1       4.364   3.167  20.327  0.00  0.00    -0.268 OA
ATOM      3  N   UNL     1       5.210   4.732  18.909  0.00  0.00    -0.295 N 
ATOM      4  C   UNL     1       6.464   4.019  18.755  0.00  0.00    +0.020 C 
ATOM      5  C   UNL     1       7.400   4.986  18.025  0.00  0.00    -0.005 C 
ATOM      6  C   UNL     1       6.423   5.836  17.178  0.00  0.00    +0.005 C 
ATOM      7  C   UNL     1       5.166   5.920  18.064  0.00  0.00    +0.022 C 
ATOM      8  H   UNL     1       6.265   3.131  18.144  0.00  0.00    +0.047 HD
ATOM      9  H   UNL     1       6.836   3.680  19.727  0.00  0.00    +0.047 HD
ATOM     10  H   UNL     1       8.109   4.429  17.399  0.00  0.00    +0.033 HD
ATOM     11  H   UNL     1       6.797   6.858  17.027  0.00  0.00    +0.037 HD
ATOM     12  H   UNL     1       4.235   5.972  17.493  0.00  0.00    +0.047 HD
ATOM     13  H   UNL     1       5.228   6.790  18.728  0.00  0.00    +0.047 HD
ENDROOT
BRANCH   6  14
ATOM     14  C   UNL     1       6.225   5.232  15.795  0.00  0.00    -0.042 A 
ATOM     15  C   UNL     1       5.021   4.644  15.377  0.00  0.00    -0.058 A 
ATOM     16  C   UNL     1       4.903   4.087  14.101  0.00  0.00    -0.061 A 
ATOM     17  C   UNL     1       5.986   4.102  13.227  0.00  0.00    -0.062 A 
ATOM     18  C   UNL     1       7.191   4.673  13.627  0.00  0.00    -0.061 A 
ATOM     19  C   UNL     1       7.310   5.230  14.902  0.00  0.00    -0.058 A 
ATOM     20  H   UNL     1       4.157   4.604  16.034  0.00  0.00    +0.062 HD
ATOM     21  H   UNL     1       3.963   3.638  13.792  0.00  0.00    +0.062 HD
ATOM     22  H   UNL     1       5.892   3.669  12.234  0.00  0.00    +0.062 HD
ATOM     23  H   UNL     1       8.039   4.684  12.948  0.00  0.00    +0.062 HD
ATOM     24  H   UNL     1       8.263   5.667  15.195  0.00  0.00    +0.062 HD
ENDBRANCH   6  14
BRANCH   1  29
ATOM     25  C   UNL     1       1.708   4.521  19.935  0.00  0.00    +0.135 A 
ATOM     26  O   UNL     1       0.838   5.551  20.145  0.00  0.00    -0.440 OA
ATOM     27  C   UNL     1       1.635   6.659  20.266  0.00  0.00    +0.231 A 
ATOM     28  N   UNL     1       2.922   6.399  20.146  0.00  0.00    -0.204 NA
ATOM     29  C   UNL     1       2.992   5.031  19.928  0.00  0.00    +0.167 A 
BRANCH  27  30
ATOM     30  C   UNL     1       1.081   8.080  20.517  0.00  0.00    +0.074 A 
ATOM     31  C   UNL     1       1.186   9.208  19.689  0.00  0.00    +0.062 A 
ATOM     32  N   UNL     1       0.587  10.279  20.220  0.00  0.00    -0.179 NA
ATOM     33  N   UNL     1       0.102   9.821  21.392  0.00  0.00    -0.274 N 
ATOM     34  C   UNL     1       0.373   8.502  21.617  0.00  0.00    +0.037 A 
ATOM     35  H   UNL     1       1.672   9.295  18.725  0.00  0.00    +0.086 HD
ATOM     36  H   UNL     1       0.051   7.989  22.511  0.00  0.00    +0.083 HD
BRANCH  33  37
ATOM     37  C   UNL     1      -0.622  10.719  22.258  0.00  0.00    +0.030 C 
ATOM     38  H   UNL     1      -0.072  11.662  22.314  0.00  0.00    +0.047 HD
ATOM     39  H   UNL     1      -0.697  10.259  23.247  0.00  0.00    +0.047 HD
ATOM     40  H   UNL     1      -1.621  10.892  21.850  0.00  0.00    +0.047 HD
ENDBRANCH  33  37
ENDBRANCH  27  30
BRANCH  25  41
ATOM     41  C   UNL     1       1.127   3.175  19.772  0.00  0.00    -0.004 C 
ATOM     42  H   UNL     1       1.777   2.548  19.154  0.00  0.00    +0.031 HD
ATOM     43  H   UNL     1       1.002   2.692  20.745  0.00  0.00    +0.031 HD
ATOM     44  H   UNL     1       0.145   3.222  19.290  0.00  0.00    +0.031 HD
ENDBRANCH  25  41
ENDBRANCH   1  29
BRANCH   5  45
ATOM     45  C   UNL     1       8.205   5.878  18.987  0.00  0.00    -0.002 C 
ATOM     46  H   UNL     1       7.893   6.926  18.909  0.00  0.00    +0.043 HD
ATOM     47  H   UNL     1       9.264   5.843  18.711  0.00  0.00    +0.043 HD
BRANCH  45  48
ATOM     48  N   UNL     1       8.100   5.462  20.382  0.00  0.00    -0.330 NA
ATOM     49  H   UNL     1       7.433   4.697  20.474  0.00  0.00    +0.118 HD
ATOM     50  H   UNL     1       7.749   6.225  20.960  0.00  0.00    +0.118 HD
ENDBRANCH  45  48
ENDBRANCH   5  45
TORSDOF 7
ENDMDL
MODEL 3
REMARK VINA RESULT:    -6.018      2.757      4.548
REMARK INTER + INTRA:          -8.683
REMARK INTER:                  -8.180
REMARK INTRA:                  -0.503
REMARK UNBOUND:                -0.730
REMARK  Name = 
REMARK  7 active torsions:
REMARK  status: ('A' for Active; 'I' for Inactive)
REMARK    1  A    between atoms: C_1  and  C_2
REMARK    2  A    between atoms: C_4  and  C_5
REMARK    3  A    between atoms: N_8  and  C_9
REMARK    4  A    between atoms: C_12  and  C_13
REMARK    5  A    between atoms: C_17  and  C_18
REMARK    6  A    between atoms: C_18  and  N_19
REMARK    7  A    between atoms: C_20  and  C_21
REMARK                            x       y       z     vdW  Elec       q    Type
REMARK                         _______ _______ _______ _____ _____    ______ ____
ROOT
ATOM      1  C   UNL     1       0.384  10.237  18.645  0.00  0.00    +0.268 C 
ATOM      2  O   UNL     1      -0.440  10.130  17.735  0.00  0.00    -0.268 OA
ATOM      3  N   UNL     1       0.663  11.480  19.197  0.00  0.00    -0.295 N 
ATOM      4  C   UNL     1       0.037  12.679  18.672  0.00  0.00    +0.020 C 
ATOM      5  C   UNL     1       0.797  13.849  19.304  0.00  0.00    -0.005 C 
ATOM      6  C   UNL     1       1.261  13.265  20.660  0.00  0.00    +0.005 C 
ATOM      7  C   UNL     1       1.519  11.782  20.337  0.00  0.00    +0.022 C 
ATOM      8  H   UNL     1      -1.010  12.672  18.996  0.00  0.00    +0.047 HD
ATOM      9  H   UNL     1       0.049  12.673  17.578  0.00  0.00    +0.047 HD
ATOM     10  H   UNL     1       0.128  14.710  19.435  0.00  0.00    +0.033 HD
ATOM     11  H   UNL     1       2.209  13.708  20.992  0.00  0.00    +0.037 HD
ATOM     12  H   UNL     1       1.318  11.113  21.179  0.00  0.00    +0.047 HD
ATOM     13  H   UNL     1       2.555  11.641  20.008  0.00  0.00    +0.047 HD
ENDROOT
BRANCH   6  14
ATOM     14  C   UNL     1       0.240  13.541  21.756  0.00  0.00    -0.042 A 
ATOM     15  C   UNL     1      -0.619  12.559  22.273  0.00  0.00    -0.058 A 
ATOM     16  C   UNL     1      -1.550  12.875  23.265  0.00  0.00    -0.061 A 
ATOM     17  C   UNL     1      -1.643  14.176  23.751  0.00  0.00    -0.062 A 
ATOM     18  C   UNL     1      -0.805  15.166  23.244  0.00  0.00    -0.061 A 
ATOM     19  C   UNL     1       0.126  14.851  22.252  0.00  0.00    -0.058 A 
ATOM     20  H   UNL     1      -0.584  11.535  21.912  0.00  0.00    +0.062 HD
ATOM     21  H   UNL     1      -2.207  12.103  23.657  0.00  0.00    +0.062 HD
ATOM     22  H   UNL     1      -2.368  14.420  24.524  0.00  0.00    +0.062 HD
ATOM     23  H   UNL     1      -0.876  16.183  23.619  0.00  0.00    +0.062 HD
ATOM     24  H   UNL     1       0.767  15.642  21.867  0.00  0.00    +0.062 HD
ENDBRANCH   6  14
BRANCH   1  29
ATOM     25  C   UNL     1       0.917   8.505  20.410  0.00  0.00    +0.135 A 
ATOM     26  O   UNL     1       1.735   7.417  20.517  0.00  0.00    -0.440 OA
ATOM     27  C   UNL     1       2.379   7.347  19.308  0.00  0.00    +0.231 A 
ATOM     28  N   UNL     1       2.027   8.301  18.467  0.00  0.00    -0.204 NA
ATOM     29  C   UNL     1       1.092   9.059  19.156  0.00  0.00    +0.167 A 
BRANCH  27  30
ATOM     30  C   UNL     1       3.418   6.257  18.962  0.00  0.00    +0.074 A 
ATOM     31  C   UNL     1       3.714   5.087  19.677  0.00  0.00    +0.062 A 
ATOM     32  N   UNL     1       4.674   4.366  19.088  0.00  0.00    -0.179 NA
ATOM     33  N   UNL     1       4.984   5.090  17.993  0.00  0.00    -0.274 N 
ATOM     34  C   UNL     1       4.256   6.238  17.872  0.00  0.00    +0.037 A 
ATOM     35  H   UNL     1       3.273   4.730  20.600  0.00  0.00    +0.086 HD
ATOM     36  H   UNL     1       4.388   6.925  17.049  0.00  0.00    +0.083 HD
BRANCH  33  37
ATOM     37  C   UNL     1       6.007   4.612  17.094  0.00  0.00    +0.030 C 
ATOM     38  H   UNL     1       5.900   3.528  16.997  0.00  0.00    +0.047 HD
ATOM     39  H   UNL     1       6.982   4.867  17.515  0.00  0.00    +0.047 HD
ATOM     40  H   UNL     1       5.885   5.089  16.118  0.00  0.00    +0.047 HD
ENDBRANCH  33  37
ENDBRANCH  27  30
BRANCH  25  41
ATOM     41  C   UNL     1       0.079   8.830  21.579  0.00  0.00    -0.004 C 
ATOM     42  H   UNL     1       0.521   9.650  22.153  0.00  0.00    +0.031 HD
ATOM     43  H   UNL     1      -0.923   9.131  21.259  0.00  0.00    +0.031 HD
ATOM     44  H   UNL     1      -0.024   7.968  22.246  0.00  0.00    +0.031 HD
ENDBRANCH  25  41
ENDBRANCH   1  29
BRANCH   5  45
ATOM     45  C   UNL     1       2.004  14.300  18.464  0.00  0.00    -0.002 C 
ATOM     46  H   UNL     1       2.894  14.438  19.090  0.00  0.00    +0.043 HD
ATOM     47  H   UNL     1       1.786  15.272  18.009  0.00  0.00    +0.043 HD
BRANCH  45  48
ATOM     48  N   UNL     1       2.333  13.373  17.385  0.00  0.00    -0.330 NA
ATOM     49  H   UNL     1       2.495  12.439  17.758  0.00  0.00    +0.118 HD
ATOM     50  H   UNL     1       3.195  13.654  16.918  0.00  0.00    +0.118 HD
ENDBRANCH  45  48
ENDBRANCH   5  45
TORSDOF 7
ENDMDL
MODEL 4
REMARK VINA RESULT:    -5.900      2.619      4.594
REMARK INTER + INTRA:          -8.527
REMARK INTER:                  -8.456
REMARK INTRA:                  -0.072
REMARK UNBOUND:                -0.730
REMARK  Name = 
REMARK  7 active torsions:
REMARK  status: ('A' for Active; 'I' for Inactive)
REMARK    1  A    between atoms: C_1  and  C_2
REMARK    2  A    between atoms: C_4  and  C_5
REMARK    3  A    between atoms: N_8  and  C_9
REMARK    4  A    between atoms: C_12  and  C_13
REMARK    5  A    between atoms: C_17  and  C_18
REMARK    6  A    between atoms: C_18  and  N_19
REMARK    7  A    between atoms: C_20  and  C_21
REMARK                            x       y       z     vdW  Elec       q    Type
REMARK                         _______ _______ _______ _____ _____    ______ ____
ROOT
ATOM      1  C   UNL     1       1.376   7.857  20.448  0.00  0.00    +0.268 C 
ATOM      2  O   UNL     1       1.006   7.600  21.595  0.00  0.00    -0.268 OA
ATOM      3  N   UNL     1       0.960   9.022  19.819  0.00  0.00    -0.295 N 
ATOM      4  C   UNL     1       0.034   9.926  20.476  0.00  0.00    +0.020 C 
ATOM      5  C   UNL     1      -0.421  10.908  19.392  0.00  0.00    -0.005 C 
ATOM      6  C   UNL     1       0.802  10.965  18.445  0.00  0.00    +0.005 C 
ATOM      7  C   UNL     1       1.375   9.537  18.520  0.00  0.00    +0.022 C 
ATOM      8  H   UNL     1       0.587  10.445  21.267  0.00  0.00    +0.047 HD
ATOM      9  H   UNL     1      -0.780   9.368  20.949  0.00  0.00    +0.047 HD
ATOM     10  H   UNL     1      -0.643  11.887  19.836  0.00  0.00    +0.033 HD
ATOM     11  H   UNL     1       0.505  11.154  17.405  0.00  0.00    +0.037 HD
ATOM     12  H   UNL     1       2.462   9.499  18.402  0.00  0.00    +0.047 HD
ATOM     13  H   UNL     1       0.910   8.902  17.758  0.00  0.00    +0.047 HD
ENDROOT
BRANCH   6  14
ATOM     14  C   UNL     1       1.752  12.087  18.842  0.00  0.00    -0.042 A 
ATOM     15  C   UNL     1       1.783  12.652  20.125  0.00  0.00    -0.058 A 
ATOM     16  C   UNL     1       2.663  13.694  20.427  0.00  0.00    -0.061 A 
ATOM     17  C   UNL     1       3.522  14.191  19.450  0.00  0.00    -0.062 A 
ATOM     18  C   UNL     1       3.500  13.648  18.168  0.00  0.00    -0.061 A 
ATOM     19  C   UNL     1       2.620  12.607  17.866  0.00  0.00    -0.058 A 
ATOM     20  H   UNL     1       1.121  12.298  20.912  0.00  0.00    +0.062 HD
ATOM     21  H   UNL     1       2.676  14.119  21.427  0.00  0.00    +0.062 HD
ATOM     22  H   UNL     1       4.207  15.001  19.687  0.00  0.00    +0.062 HD
ATOM     23  H   UNL     1       4.167  14.035  17.403  0.00  0.00    +0.062 HD
ATOM     24  H   UNL     1       2.617  12.201  16.856  0.00  0.00    +0.062 HD
ENDBRANCH   6  14
BRANCH   1  29
ATOM     25  C   UNL     1       2.173   5.555  19.763  0.00  0.00    +0.135 A 
ATOM     26  O   UNL     1       3.143   5.043  18.950  0.00  0.00    -0.440 OA
ATOM     27  C   UNL     1       3.780   6.142  18.435  0.00  0.00    +0.231 A 
ATOM     28  N   UNL     1       3.285   7.287  18.862  0.00  0.00    -0.204 NA
ATOM     29  C   UNL     1       2.254   6.934  19.720  0.00  0.00    +0.167 A 
BRANCH  27  30
ATOM     30  C   UNL     1       4.966   6.050  17.448  0.00  0.00    +0.074 A 
ATOM     31  C   UNL     1       6.163   6.780  17.465  0.00  0.00    +0.062 A 
ATOM     32  N   UNL     1       6.972   6.444  16.454  0.00  0.00    -0.179 NA
ATOM     33  N   UNL     1       6.276   5.495  15.796  0.00  0.00    -0.274 N 
ATOM     34  C   UNL     1       5.062   5.222  16.355  0.00  0.00    +0.037 A 
ATOM     35  H   UNL     1       6.480   7.540  18.169  0.00  0.00    +0.086 HD
ATOM     36  H   UNL     1       4.386   4.486  15.943  0.00  0.00    +0.083 HD
BRANCH  33  37
ATOM     37  C   UNL     1       6.848   4.885  14.620  0.00  0.00    +0.030 C 
ATOM     38  H   UNL     1       6.142   4.143  14.240  0.00  0.00    +0.047 HD
ATOM     39  H   UNL     1       7.791   4.411  14.901  0.00  0.00    +0.047 HD
ATOM     40  H   UNL     1       7.027   5.653  13.863  0.00  0.00    +0.047 HD
ENDBRANCH  33  37
ENDBRANCH  27  30
BRANCH  25  41
ATOM     41  C   UNL     1       1.305   4.589  20.462  0.00  0.00    -0.004 C 
ATOM     42  H   UNL     1       1.895   3.755  20.853  0.00  0.00    +0.031 HD
ATOM     43  H   UNL     1       0.790   5.072  21.297  0.00  0.00    +0.031 HD
ATOM     44  H   UNL     1       0.545   4.179  19.789  0.00  0.00    +0.031 HD
ENDBRANCH  25  41
ENDBRANCH   1  29
BRANCH   5  45
ATOM     45  C   UNL     1      -1.672  10.425  18.637  0.00  0.00    -0.002 C 
ATOM     46  H   UNL     1      -2.589  10.728  19.156  0.00  0.00    +0.043 HD
ATOM     47  H   UNL     1      -1.675   9.330  18.606  0.00  0.00    +0.043 HD
BRANCH  45  48
ATOM     48  N   UNL     1      -1.734  10.904  17.260  0.00  0.00    -0.330 NA
ATOM     49  H   UNL     1      -1.977  10.140  16.631  0.00  0.00    +0.118 HD
ATOM     50  H   UNL     1      -0.826  11.253  16.957  0.00  0.00    +0.118 HD
ENDBRANCH  45  48
ENDBRANCH   5  45
TORSDOF 7
ENDMDL
MODEL 5
REMARK VINA RESULT:    -5.677      4.276      6.713
REMARK INTER + INTRA:          -8.233
REMARK INTER:                  -7.536
REMARK INTRA:                  -0.697
REMARK UNBOUND:                -0.730
REMARK  Name = 
REMARK  7 active torsions:
REMARK  status: ('A' for Active; 'I' for Inactive)
REMARK    1  A    between atoms: C_1  and  C_2
REMARK    2  A    between atoms: C_4  and  C_5
REMARK    3  A    between atoms: N_8  and  C_9
REMARK    4  A    between atoms: C_12  and  C_13
REMARK    5  A    between atoms: C_17  and  C_18
REMARK    6  A    between atoms: C_18  and  N_19
REMARK    7  A    between atoms: C_20  and  C_21
REMARK                            x       y       z     vdW  Elec       q    Type
REMARK                         _______ _______ _______ _____ _____    ______ ____
ROOT
ATOM      1  C   UNL     1       5.528   5.462  19.158  0.00  0.00    +0.268 C 
ATOM      2  O   UNL     1       6.212   5.268  20.165  0.00  0.00    -0.268 OA
ATOM      3  N   UNL     1       4.155   5.635  19.264  0.00  0.00    -0.295 N 
ATOM      4  C   UNL     1       3.493   5.529  20.552  0.00  0.00    +0.020 C 
ATOM      5  C   UNL     1       1.995   5.472  20.240  0.00  0.00    -0.005 C 
ATOM      6  C   UNL     1       1.885   6.286  18.928  0.00  0.00    +0.005 C 
ATOM      7  C   UNL     1       3.210   5.976  18.207  0.00  0.00    +0.022 C 
ATOM      8  H   UNL     1       3.740   6.431  21.123  0.00  0.00    +0.047 HD
ATOM      9  H   UNL     1       3.871   4.666  21.108  0.00  0.00    +0.047 HD
ATOM     10  H   UNL     1       1.420   5.928  21.056  0.00  0.00    +0.033 HD
ATOM     11  H   UNL     1       1.064   5.927  18.293  0.00  0.00    +0.037 HD
ATOM     12  H   UNL     1       3.576   6.805  17.595  0.00  0.00    +0.047 HD
ATOM     13  H   UNL     1       3.099   5.087  17.576  0.00  0.00    +0.047 HD
ENDROOT
BRANCH   6  14
ATOM     14  C   UNL     1       1.610   7.755  19.215  0.00  0.00    -0.042 A 
ATOM     15  C   UNL     1       1.116   8.221  20.443  0.00  0.00    -0.058 A 
ATOM     16  C   UNL     1       0.863   9.579  20.643  0.00  0.00    -0.061 A 
ATOM     17  C   UNL     1       1.093  10.493  19.619  0.00  0.00    -0.062 A 
ATOM     18  C   UNL     1       1.575  10.050  18.390  0.00  0.00    -0.061 A 
ATOM     19  C   UNL     1       1.827   8.691  18.190  0.00  0.00    -0.058 A 
ATOM     20  H   UNL     1       0.914   7.536  21.264  0.00  0.00    +0.062 HD
ATOM     21  H   UNL     1       0.483   9.924  21.601  0.00  0.00    +0.062 HD
ATOM     22  H   UNL     1       0.896  11.551  19.777  0.00  0.00    +0.062 HD
ATOM     23  H   UNL     1       1.753  10.760  17.588  0.00  0.00    +0.062 HD
ATOM     24  H   UNL     1       2.199   8.367  17.219  0.00  0.00    +0.062 HD
ENDBRANCH   6  14
BRANCH   1  29
ATOM     25  C   UNL     1       7.162   6.363  17.450  0.00  0.00    +0.135 A 
ATOM     26  O   UNL     1       7.485   6.098  16.150  0.00  0.00    -0.440 OA
ATOM     27  C   UNL     1       6.649   5.074  15.787  0.00  0.00    +0.231 A 
ATOM     28  N   UNL     1       5.838   4.687  16.753  0.00  0.00    -0.204 NA
ATOM     29  C   UNL     1       6.147   5.505  17.830  0.00  0.00    +0.167 A 
BRANCH  27  30
ATOM     30  C   UNL     1       6.653   4.433  14.381  0.00  0.00    +0.074 A 
ATOM     31  C   UNL     1       7.415   4.806  13.263  0.00  0.00    +0.062 A 
ATOM     32  N   UNL     1       7.166   4.030  12.203  0.00  0.00    -0.179 NA
ATOM     33  N   UNL     1       6.240   3.162  12.658  0.00  0.00    -0.274 N 
ATOM     34  C   UNL     1       5.897   3.363  13.964  0.00  0.00    +0.037 A 
ATOM     35  H   UNL     1       8.138   5.607  13.177  0.00  0.00    +0.086 HD
ATOM     36  H   UNL     1       5.168   2.750  14.473  0.00  0.00    +0.083 HD
BRANCH  33  37
ATOM     37  C   UNL     1       5.719   2.151  11.770  0.00  0.00    +0.030 C 
ATOM     38  H   UNL     1       5.931   2.455  10.741  0.00  0.00    +0.047 HD
ATOM     39  H   UNL     1       4.642   2.070  11.933  0.00  0.00    +0.047 HD
ATOM     40  H   UNL     1       6.202   1.194  11.985  0.00  0.00    +0.047 HD
ENDBRANCH  33  37
ENDBRANCH  27  30
BRANCH  25  41
ATOM     41  C   UNL     1       7.917   7.436  18.123  0.00  0.00    -0.004 C 
ATOM     42  H   UNL     1       8.987   7.344  17.911  0.00  0.00    +0.031 HD
ATOM     43  H   UNL     1       7.578   8.417  17.778  0.00  0.00    +0.031 HD
ATOM     44  H   UNL     1       7.784   7.395  19.209  0.00  0.00    +0.031 HD
ENDBRANCH  25  41
ENDBRANCH   1  29
BRANCH   5  45
ATOM     45  C   UNL     1       1.483   4.035  20.034  0.00  0.00    -0.002 C 
ATOM     46  H   UNL     1       1.941   3.574  19.150  0.00  0.00    +0.043 HD
ATOM     47  H   UNL     1       0.403   4.059  19.852  0.00  0.00    +0.043 HD
BRANCH  45  48
ATOM     48  N   UNL     1       1.716   3.169  21.185  0.00  0.00    -0.330 NA
ATOM     49  H   UNL     1       1.926   3.728  22.011  0.00  0.00    +0.118 HD
ATOM     50  H   UNL     1       2.524   2.568  21.028  0.00  0.00    +0.118 HD
ENDBRANCH  45  48
ENDBRANCH   5  45
TORSDOF 7
ENDMDL
MODEL 6
REMARK VINA RESULT:    -5.502      3.262      8.802
REMARK INTER + INTRA:          -8.002
REMARK INTER:                  -8.830
REMARK INTRA:                   0.828
REMARK UNBOUND:                -0.730
REMARK  Name = 
REMARK  7 active torsions:
REMARK  status: ('A' for Active; 'I' for Inactive)
REMARK    1  A    between atoms: C_1  and  C_2
REMARK    2  A    between atoms: C_4  and  C_5
REMARK    3  A    between atoms: N_8  and  C_9
REMARK    4  A    between atoms: C_12  and  C_13
REMARK    5  A    between atoms: C_17  and  C_18
REMARK    6  A    between atoms: C_18  and  N_19
REMARK    7  A    between atoms: C_20  and  C_21
REMARK                            x       y       z     vdW  Elec       q    Type
REMARK                         _______ _______ _______ _____ _____    ______ ____
ROOT
ATOM      1  C   UNL     1       3.691   5.703  19.673  0.00  0.00    +0.268 C 
ATOM      2  O   UNL     1       3.400   4.745  20.393  0.00  0.00    -0.268 OA
ATOM      3  N   UNL     1       4.874   5.704  18.949  0.00  0.00    -0.295 N 
ATOM      4  C   UNL     1       5.819   4.609  19.074  0.00  0.00    +0.020 C 
ATOM      5  C   UNL     1       7.101   5.091  18.390  0.00  0.00    -0.005 C 
ATOM      6  C   UNL     1       6.568   6.064  17.310  0.00  0.00    +0.005 C 
ATOM      7  C   UNL     1       5.329   6.690  17.976  0.00  0.00    +0.022 C 
ATOM      8  H   UNL     1       5.394   3.747  18.547  0.00  0.00    +0.047 HD
ATOM      9  H   UNL     1       5.947   4.329  20.124  0.00  0.00    +0.047 HD
ATOM     10  H   UNL     1       7.638   4.242  17.949  0.00  0.00    +0.033 HD
ATOM     11  H   UNL     1       7.282   6.872  17.100  0.00  0.00    +0.037 HD
ATOM     12  H   UNL     1       4.538   6.948  17.267  0.00  0.00    +0.047 HD
ATOM     13  H   UNL     1       5.614   7.588  18.537  0.00  0.00    +0.047 HD
ENDROOT
BRANCH   6  14
ATOM     14  C   UNL     1       6.323   5.341  15.992  0.00  0.00    -0.042 A 
ATOM     15  C   UNL     1       5.112   4.709  15.674  0.00  0.00    -0.058 A 
ATOM     16  C   UNL     1       4.950   4.044  14.457  0.00  0.00    -0.061 A 
ATOM     17  C   UNL     1       5.998   3.994  13.541  0.00  0.00    -0.062 A 
ATOM     18  C   UNL     1       7.210   4.609  13.842  0.00  0.00    -0.061 A 
ATOM     19  C   UNL     1       7.372   5.273  15.059  0.00  0.00    -0.058 A 
ATOM     20  H   UNL     1       4.274   4.717  16.367  0.00  0.00    +0.062 HD
ATOM     21  H   UNL     1       4.005   3.562  14.224  0.00  0.00    +0.062 HD
ATOM     22  H   UNL     1       5.870   3.477  12.593  0.00  0.00    +0.062 HD
ATOM     23  H   UNL     1       8.031   4.569  13.131  0.00  0.00    +0.062 HD
ATOM     24  H   UNL     1       8.331   5.742  15.275  0.00  0.00    +0.062 HD
ENDBRANCH   6  14
BRANCH   1  29
ATOM     25  C   UNL     1       2.496   7.539  18.407  0.00  0.00    +0.135 A 
ATOM     26  O   UNL     1       1.625   8.546  18.708  0.00  0.00    -0.440 OA
ATOM     27  C   UNL     1       1.425   8.439  20.060  0.00  0.00    +0.231 A 
ATOM     28  N   UNL     1       2.099   7.452  20.617  0.00  0.00    -0.204 NA
ATOM     29  C   UNL     1       2.798   6.862  19.574  0.00  0.00    +0.167 A 
BRANCH  27  30
ATOM     30  C   UNL     1       0.499   9.385  20.858  0.00  0.00    +0.074 A 
ATOM     31  C   UNL     1       0.142   9.305  22.213  0.00  0.00    +0.062 A 
ATOM     32  N   UNL     1      -0.683  10.294  22.575  0.00  0.00    -0.179 NA
ATOM     33  N   UNL     1      -0.846  11.001  21.438  0.00  0.00    -0.274 N 
ATOM     34  C   UNL     1      -0.155  10.494  20.376  0.00  0.00    +0.037 A 
ATOM     35  H   UNL     1       0.446   8.572  22.949  0.00  0.00    +0.086 HD
ATOM     36  H   UNL     1      -0.184  10.947  19.395  0.00  0.00    +0.083 HD
BRANCH  33  37
ATOM     37  C   UNL     1      -1.693  12.168  21.445  0.00  0.00    +0.030 C 
ATOM     38  H   UNL     1      -1.118  13.009  21.842  0.00  0.00    +0.047 HD
ATOM     39  H   UNL     1      -2.560  11.962  22.078  0.00  0.00    +0.047 HD
ATOM     40  H   UNL     1      -2.020  12.387  20.425  0.00  0.00    +0.047 HD
ENDBRANCH  33  37
ENDBRANCH  27  30
BRANCH  25  41
ATOM     41  C   UNL     1       2.897   7.399  16.995  0.00  0.00    -0.004 C 
ATOM     42  H   UNL     1       3.109   6.352  16.757  0.00  0.00    +0.031 HD
ATOM     43  H   UNL     1       2.100   7.751  16.334  0.00  0.00    +0.031 HD
ATOM     44  H   UNL     1       3.797   7.983  16.778  0.00  0.00    +0.031 HD
ENDBRANCH  25  41
ENDBRANCH   1  29
BRANCH   5  45
ATOM     45  C   UNL     1       8.055   5.818  19.354  0.00  0.00    -0.002 C 
ATOM     46  H   UNL     1       7.826   6.889  19.405  0.00  0.00    +0.043 HD
ATOM     47  H   UNL     1       9.081   5.732  18.980  0.00  0.00    +0.043 HD
BRANCH  45  48
ATOM     48  N   UNL     1       8.033   5.271  20.707  0.00  0.00    -0.330 NA
ATOM     49  H   UNL     1       8.977   5.031  21.007  0.00  0.00    +0.118 HD
ATOM     50  H   UNL     1       7.489   4.410  20.739  0.00  0.00    +0.118 HD
ENDBRANCH  45  48
ENDBRANCH   5  45
TORSDOF 7
ENDMDL
MODEL 7
REMARK VINA RESULT:    -5.473      3.348      8.778
REMARK INTER + INTRA:          -7.964
REMARK INTER:                  -7.837
REMARK INTRA:                  -0.127
REMARK UNBOUND:                -0.730
REMARK  Name = 
REMARK  7 active torsions:
REMARK  status: ('A' for Active; 'I' for Inactive)
REMARK    1  A    between atoms: C_1  and  C_2
REMARK    2  A    between atoms: C_4  and  C_5
REMARK    3  A    between atoms: N_8  and  C_9
REMARK    4  A    between atoms: C_12  and  C_13
REMARK    5  A    between atoms: C_17  and  C_18
REMARK    6  A    between atoms: C_18  and  N_19
REMARK    7  A    between atoms: C_20  and  C_21
REMARK                            x       y       z     vdW  Elec       q    Type
REMARK                         _______ _______ _______ _____ _____    ______ ____
ROOT
ATOM      1  C   UNL     1       4.187   4.461  19.768  0.00  0.00    +0.268 C 
ATOM      2  O   UNL     1       4.245   3.402  20.395  0.00  0.00    -0.268 OA
ATOM      3  N   UNL     1       5.237   4.851  18.948  0.00  0.00    -0.295 N 
ATOM      4  C   UNL     1       6.445   4.050  18.862  0.00  0.00    +0.020 C 
ATOM      5  C   UNL     1       7.465   4.925  18.128  0.00  0.00    -0.005 C 
ATOM      6  C   UNL     1       6.574   5.804  17.219  0.00  0.00    +0.005 C 
ATOM      7  C   UNL     1       5.299   6.004  18.059  0.00  0.00    +0.022 C 
ATOM      8  H   UNL     1       6.205   3.154  18.279  0.00  0.00    +0.047 HD
ATOM      9  H   UNL     1       6.762   3.726  19.858  0.00  0.00    +0.047 HD
ATOM     10  H   UNL     1       8.154   4.297  17.547  0.00  0.00    +0.033 HD
ATOM     11  H   UNL     1       7.020   6.792  17.042  0.00  0.00    +0.037 HD
ATOM     12  H   UNL     1       4.391   6.096  17.455  0.00  0.00    +0.047 HD
ATOM     13  H   UNL     1       5.399   6.894  18.692  0.00  0.00    +0.047 HD
ENDROOT
BRANCH   6  14
ATOM     14  C   UNL     1       6.378   5.159  15.853  0.00  0.00    -0.042 A 
ATOM     15  C   UNL     1       7.382   5.111  14.874  0.00  0.00    -0.058 A 
ATOM     16  C   UNL     1       7.140   4.524  13.630  0.00  0.00    -0.061 A 
ATOM     17  C   UNL     1       5.890   3.982  13.343  0.00  0.00    -0.062 A 
ATOM     18  C   UNL     1       4.878   4.028  14.298  0.00  0.00    -0.061 A 
ATOM     19  C   UNL     1       5.120   4.616  15.541  0.00  0.00    -0.058 A 
ATOM     20  H   UNL     1       8.367   5.532  15.057  0.00  0.00    +0.062 HD
ATOM     21  H   UNL     1       7.929   4.491  12.884  0.00  0.00    +0.062 HD
ATOM     22  H   UNL     1       5.703   3.524  12.374  0.00  0.00    +0.062 HD
ATOM     23  H   UNL     1       3.901   3.609  14.076  0.00  0.00    +0.062 HD
ATOM     24  H   UNL     1       4.313   4.645  16.271  0.00  0.00    +0.062 HD
ENDBRANCH   6  14
BRANCH   1  29
ATOM     25  C   UNL     1       1.733   4.915  20.183  0.00  0.00    +0.135 A 
ATOM     26  O   UNL     1       0.918   6.009  20.213  0.00  0.00    -0.440 OA
ATOM     27  C   UNL     1       1.745   7.065  19.932  0.00  0.00    +0.231 A 
ATOM     28  N   UNL     1       3.000   6.713  19.730  0.00  0.00    -0.204 NA
ATOM     29  C   UNL     1       3.014   5.335  19.881  0.00  0.00    +0.167 A 
BRANCH  27  30
ATOM     30  C   UNL     1       1.257   8.530  19.857  0.00  0.00    +0.074 A 
ATOM     31  C   UNL     1       0.307   9.167  20.671  0.00  0.00    +0.062 A 
ATOM     32  N   UNL     1       0.125  10.446  20.324  0.00  0.00    -0.179 NA
ATOM     33  N   UNL     1       0.966  10.613  19.283  0.00  0.00    -0.274 N 
ATOM     34  C   UNL     1       1.670   9.489  18.963  0.00  0.00    +0.037 A 
ATOM     35  H   UNL     1      -0.257   8.756  21.498  0.00  0.00    +0.086 HD
ATOM     36  H   UNL     1       2.384   9.462  18.153  0.00  0.00    +0.083 HD
BRANCH  33  37
ATOM     37  C   UNL     1       1.043  11.899  18.634  0.00  0.00    +0.030 C 
ATOM     38  H   UNL     1       2.000  12.359  18.892  0.00  0.00    +0.047 HD
ATOM     39  H   UNL     1       0.212  12.514  18.988  0.00  0.00    +0.047 HD
ATOM     40  H   UNL     1       0.972  11.765  17.551  0.00  0.00    +0.047 HD
ENDBRANCH  33  37
ENDBRANCH  27  30
BRANCH  25  41
ATOM     41  C   UNL     1       1.110   3.607  20.462  0.00  0.00    -0.004 C 
ATOM     42  H   UNL     1       0.565   3.636  21.411  0.00  0.00    +0.031 HD
ATOM     43  H   UNL     1       0.408   3.340  19.666  0.00  0.00    +0.031 HD
ATOM     44  H   UNL     1       1.862   2.815  20.528  0.00  0.00    +0.031 HD
ENDBRANCH  25  41
ENDBRANCH   1  29
BRANCH   5  45
ATOM     45  C   UNL     1       8.298   5.799  19.083  0.00  0.00    -0.002 C 
ATOM     46  H   UNL     1       7.971   6.845  19.049  0.00  0.00    +0.043 HD
ATOM     47  H   UNL     1       9.346   5.786  18.762  0.00  0.00    +0.043 HD
BRANCH  45  48
ATOM     48  N   UNL     1       8.256   5.340  20.468  0.00  0.00    -0.330 NA
ATOM     49  H   UNL     1       7.304   5.086  20.728  0.00  0.00    +0.118 HD
ATOM     50  H   UNL     1       8.542   6.085  21.103  0.00  0.00    +0.118 HD
ENDBRANCH  45  48
ENDBRANCH   5  45
TORSDOF 7
ENDMDL
MODEL 8
REMARK VINA RESULT:    -5.395      2.797      5.190
REMARK INTER + INTRA:          -7.860
REMARK INTER:                  -7.112
REMARK INTRA:                  -0.749
REMARK UNBOUND:                -0.730
REMARK  Name = 
REMARK  7 active torsions:
REMARK  status: ('A' for Active; 'I' for Inactive)
REMARK    1  A    between atoms: C_1  and  C_2
REMARK    2  A    between atoms: C_4  and  C_5
REMARK    3  A    between atoms: N_8  and  C_9
REMARK    4  A    between atoms: C_12  and  C_13
REMARK    5  A    between atoms: C_17  and  C_18
REMARK    6  A    between atoms: C_18  and  N_19
REMARK    7  A    between atoms: C_20  and  C_21
REMARK                            x       y       z     vdW  Elec       q    Type
REMARK                         _______ _______ _______ _____ _____    ______ ____
ROOT
ATOM      1  C   UNL     1      -0.277  12.726  18.829  0.00  0.00    +0.268 C 
ATOM      2  O   UNL     1      -0.602  13.499  17.926  0.00  0.00    -0.268 OA
ATOM      3  N   UNL     1      -0.145  13.183  20.133  0.00  0.00    -0.295 N 
ATOM      4  C   UNL     1      -0.326  14.589  20.445  0.00  0.00    +0.020 C 
ATOM      5  C   UNL     1       0.186  14.760  21.879  0.00  0.00    -0.005 C 
ATOM      6  C   UNL     1      -0.088  13.373  22.509  0.00  0.00    +0.005 C 
ATOM      7  C   UNL     1       0.124  12.401  21.334  0.00  0.00    +0.022 C 
ATOM      8  H   UNL     1      -1.399  14.803  20.385  0.00  0.00    +0.047 HD
ATOM      9  H   UNL     1       0.183  15.215  19.707  0.00  0.00    +0.047 HD
ATOM     10  H   UNL     1      -0.369  15.559  22.386  0.00  0.00    +0.033 HD
ATOM     11  H   UNL     1       0.647  13.127  23.287  0.00  0.00    +0.037 HD
ATOM     12  H   UNL     1      -0.512  11.513  21.385  0.00  0.00    +0.047 HD
ATOM     13  H   UNL     1       1.173  12.088  21.286  0.00  0.00    +0.047 HD
ENDROOT
BRANCH   6  14
ATOM     14  C   UNL     1      -1.459  13.331  23.171  0.00  0.00    -0.042 A 
ATOM     15  C   UNL     1      -2.329  12.235  23.071  0.00  0.00    -0.058 A 
ATOM     16  C   UNL     1      -3.583  12.260  23.684  0.00  0.00    -0.061 A 
ATOM     17  C   UNL     1      -3.991  13.382  24.400  0.00  0.00    -0.062 A 
ATOM     18  C   UNL     1      -3.145  14.483  24.503  0.00  0.00    -0.061 A 
ATOM     19  C   UNL     1      -1.891  14.459  23.890  0.00  0.00    -0.058 A 
ATOM     20  H   UNL     1      -2.050  11.345  22.513  0.00  0.00    +0.062 HD
ATOM     21  H   UNL     1      -4.244  11.402  23.600  0.00  0.00    +0.062 HD
ATOM     22  H   UNL     1      -4.968  13.399  24.877  0.00  0.00    +0.062 HD
ATOM     23  H   UNL     1      -3.462  15.361  25.059  0.00  0.00    +0.062 HD
ATOM     24  H   UNL     1      -1.248  15.333  23.980  0.00  0.00    +0.062 HD
ENDBRANCH   6  14
BRANCH   1  29
ATOM     25  C   UNL     1      -0.933  10.419  18.023  0.00  0.00    +0.135 A 
ATOM     26  O   UNL     1      -0.322   9.206  17.885  0.00  0.00    -0.440 OA
ATOM     27  C   UNL     1       0.959   9.410  18.327  0.00  0.00    +0.231 A 
ATOM     28  N   UNL     1       1.188  10.646  18.727  0.00  0.00    -0.204 NA
ATOM     29  C   UNL     1      -0.015  11.311  18.544  0.00  0.00    +0.167 A 
BRANCH  27  30
ATOM     30  C   UNL     1       2.034   8.300  18.357  0.00  0.00    +0.074 A 
ATOM     31  C   UNL     1       3.038   8.043  17.411  0.00  0.00    +0.062 A 
ATOM     32  N   UNL     1       3.798   6.998  17.756  0.00  0.00    -0.179 NA
ATOM     33  N   UNL     1       3.266   6.594  18.928  0.00  0.00    -0.274 N 
ATOM     34  C   UNL     1       2.202   7.346  19.333  0.00  0.00    +0.037 A 
ATOM     35  H   UNL     1       3.247   8.571  16.489  0.00  0.00    +0.086 HD
ATOM     36  H   UNL     1       1.668   7.148  20.251  0.00  0.00    +0.083 HD
BRANCH  33  37
ATOM     37  C   UNL     1       3.840   5.462  19.613  0.00  0.00    +0.030 C 
ATOM     38  H   UNL     1       3.266   5.285  20.527  0.00  0.00    +0.047 HD
ATOM     39  H   UNL     1       4.881   5.694  19.852  0.00  0.00    +0.047 HD
ATOM     40  H   UNL     1       3.792   4.582  18.966  0.00  0.00    +0.047 HD
ENDBRANCH  33  37
ENDBRANCH  27  30
BRANCH  25  41
ATOM     41  C   UNL     1      -2.346  10.509  17.610  0.00  0.00    -0.004 C 
ATOM     42  H   UNL     1      -2.527   9.895  16.723  0.00  0.00    +0.031 HD
ATOM     43  H   UNL     1      -3.002  10.161  18.414  0.00  0.00    +0.031 HD
ATOM     44  H   UNL     1      -2.625  11.540  17.370  0.00  0.00    +0.031 HD
ENDBRANCH  25  41
ENDBRANCH   1  29
BRANCH   5  45
ATOM     45  C   UNL     1       1.685  15.099  21.940  0.00  0.00    -0.002 C 
ATOM     46  H   UNL     1       2.240  14.343  22.507  0.00  0.00    +0.043 HD
ATOM     47  H   UNL     1       1.819  16.050  22.468  0.00  0.00    +0.043 HD
BRANCH  45  48
ATOM     48  N   UNL     1       2.299  15.238  20.622  0.00  0.00    -0.330 NA
ATOM     49  H   UNL     1       2.487  14.320  20.222  0.00  0.00    +0.118 HD
ATOM     50  H   UNL     1       3.197  15.715  20.691  0.00  0.00    +0.118 HD
ENDBRANCH  45  48
ENDBRANCH   5  45
TORSDOF 7
ENDMDL
MODEL 9
REMARK VINA RESULT:    -5.374      3.370      5.387
REMARK INTER + INTRA:          -7.832
REMARK INTER:                  -7.219
REMARK INTRA:                  -0.613
REMARK UNBOUND:                -0.730
REMARK  Name = 
REMARK  7 active torsions:
REMARK  status: ('A' for Active; 'I' for Inactive)
REMARK    1  A    between atoms: C_1  and  C_2
REMARK    2  A    between atoms: C_4  and  C_5
REMARK    3  A    between atoms: N_8  and  C_9
REMARK    4  A    between atoms: C_12  and  C_13
REMARK    5  A    between atoms: C_17  and  C_18
REMARK    6  A    between atoms: C_18  and  N_19
REMARK    7  A    between atoms: C_20  and  C_21
REMARK                            x       y       z     vdW  Elec       q    Type
REMARK                         _______ _______ _______ _____ _____    ______ ____
ROOT
ATOM      1  C   UNL     1       0.915  11.128  20.138  0.00  0.00    +0.268 C 
ATOM      2  O   UNL     1       0.490  10.974  21.284  0.00  0.00    -0.268 OA
ATOM      3  N   UNL     1       1.226  12.396  19.668  0.00  0.00    -0.295 N 
ATOM      4  C   UNL     1       0.999  13.567  20.495  0.00  0.00    +0.020 C 
ATOM      5  C   UNL     1       1.164  14.768  19.559  0.00  0.00    -0.005 C 
ATOM      6  C   UNL     1       2.179  14.251  18.511  0.00  0.00    +0.005 C 
ATOM      7  C   UNL     1       1.834  12.755  18.392  0.00  0.00    +0.022 C 
ATOM      8  H   UNL     1       1.767  13.571  21.277  0.00  0.00    +0.047 HD
ATOM      9  H   UNL     1       0.023  13.508  20.985  0.00  0.00    +0.047 HD
ATOM     10  H   UNL     1       1.552  15.632  20.115  0.00  0.00    +0.033 HD
ATOM     11  H   UNL     1       2.020  14.712  17.527  0.00  0.00    +0.037 HD
ATOM     12  H   UNL     1       2.700  12.126  18.169  0.00  0.00    +0.047 HD
ATOM     13  H   UNL     1       1.072  12.602  17.619  0.00  0.00    +0.047 HD
ENDROOT
BRANCH   6  14
ATOM     14  C   UNL     1       3.608  14.575  18.923  0.00  0.00    -0.042 A 
ATOM     15  C   UNL     1       3.974  14.909  20.236  0.00  0.00    -0.058 A 
ATOM     16  C   UNL     1       5.299  15.217  20.552  0.00  0.00    -0.061 A 
ATOM     17  C   UNL     1       6.278  15.201  19.563  0.00  0.00    -0.062 A 
ATOM     18  C   UNL     1       5.932  14.880  18.253  0.00  0.00    -0.061 A 
ATOM     19  C   UNL     1       4.608  14.574  17.936  0.00  0.00    -0.058 A 
ATOM     20  H   UNL     1       3.237  14.942  21.034  0.00  0.00    +0.062 HD
ATOM     21  H   UNL     1       5.567  15.471  21.575  0.00  0.00    +0.062 HD
ATOM     22  H   UNL     1       7.309  15.440  19.811  0.00  0.00    +0.062 HD
ATOM     23  H   UNL     1       6.694  14.870  17.477  0.00  0.00    +0.062 HD
ATOM     24  H   UNL     1       4.361  14.330  16.904  0.00  0.00    +0.062 HD
ENDBRANCH   6  14
BRANCH   1  29
ATOM     25  C   UNL     1       0.253   9.644  18.198  0.00  0.00    +0.135 A 
ATOM     26  O   UNL     1       0.747   8.526  17.591  0.00  0.00    -0.440 OA
ATOM     27  C   UNL     1       1.883   8.222  18.296  0.00  0.00    +0.231 A 
ATOM     28  N   UNL     1       2.129   9.058  19.286  0.00  0.00    -0.204 NA
ATOM     29  C   UNL     1       1.091   9.978  19.245  0.00  0.00    +0.167 A 
BRANCH  27  30
ATOM     30  C   UNL     1       2.789   7.015  17.965  0.00  0.00    +0.074 A 
ATOM     31  C   UNL     1       4.082   7.028  17.420  0.00  0.00    +0.062 A 
ATOM     32  N   UNL     1       4.575   5.795  17.264  0.00  0.00    -0.179 NA
ATOM     33  N   UNL     1       3.583   4.999  17.713  0.00  0.00    -0.274 N 
ATOM     34  C   UNL     1       2.486   5.686  18.147  0.00  0.00    +0.037 A 
ATOM     35  H   UNL     1       4.684   7.881  17.132  0.00  0.00    +0.086 HD
ATOM     36  H   UNL     1       1.608   5.191  18.536  0.00  0.00    +0.083 HD
BRANCH  33  37
ATOM     37  C   UNL     1       3.760   3.568  17.696  0.00  0.00    +0.030 C 
ATOM     38  H   UNL     1       2.782   3.102  17.547  0.00  0.00    +0.047 HD
ATOM     39  H   UNL     1       4.190   3.262  18.653  0.00  0.00    +0.047 HD
ATOM     40  H   UNL     1       4.433   3.294  16.880  0.00  0.00    +0.047 HD
ENDBRANCH  33  37
ENDBRANCH  27  30
BRANCH  25  41
ATOM     41  C   UNL     1      -0.987  10.217  17.641  0.00  0.00    -0.004 C 
ATOM     42  H   UNL     1      -0.763  10.851  16.777  0.00  0.00    +0.031 HD
ATOM     43  H   UNL     1      -1.666   9.422  17.321  0.00  0.00    +0.031 HD
ATOM     44  H   UNL     1      -1.510  10.830  18.382  0.00  0.00    +0.031 HD
ENDBRANCH  25  41
ENDBRANCH   1  29
BRANCH   5  45
ATOM     45  C   UNL     1      -0.154  15.182  18.883  0.00  0.00    -0.002 C 
ATOM     46  H   UNL     1      -0.229  14.764  17.872  0.00  0.00    +0.043 HD
ATOM     47  H   UNL     1      -0.178  16.272  18.774  0.00  0.00    +0.043 HD
BRANCH  45  48
ATOM     48  N   UNL     1      -1.339  14.790  19.640  0.00  0.00    -0.330 NA
ATOM     49  H   UNL     1      -1.379  13.776  19.732  0.00  0.00    +0.118 HD
ATOM     50  H   UNL     1      -2.189  15.072  19.152  0.00  0.00    +0.118 HD
ENDBRANCH  45  48
ENDBRANCH   5  45
TORSDOF 7
ENDMDL
MODEL 10
REMARK VINA RESULT:    -5.325      3.676      8.980
REMARK INTER + INTRA:          -7.767
REMARK INTER:                  -8.009
REMARK INTRA:                   0.241
REMARK UNBOUND:                -0.730
REMARK  Name = 
REMARK  7 active torsions:
REMARK  status: ('A' for Active; 'I' for Inactive)
REMARK    1  A    between atoms: C_1  and  C_2
REMARK    2  A    between atoms: C_4  and  C_5
REMARK    3  A    between atoms: N_8  and  C_9
REMARK    4  A    between atoms: C_12  and  C_13
REMARK    5  A    between atoms: C_17  and  C_18
REMARK    6  A    between atoms: C_18  and  N_19
REMARK    7  A    between atoms: C_20  and  C_21
REMARK                            x       y       z     vdW  Elec       q    Type
REMARK                         _______ _______ _______ _____ _____    ______ ____
ROOT
ATOM      1  C   UNL     1       1.818   5.151  19.327  0.00  0.00    +0.268 C 
ATOM      2  O   UNL     1       0.838   4.422  19.168  0.00  0.00    -0.268 OA
ATOM      3  N   UNL     1       3.102   4.642  19.194  0.00  0.00    -0.295 N 
ATOM      4  C   UNL     1       3.314   3.231  18.927  0.00  0.00    +0.020 C 
ATOM      5  C   UNL     1       4.811   2.992  19.148  0.00  0.00    -0.005 C 
ATOM      6  C   UNL     1       5.435   4.361  18.786  0.00  0.00    +0.005 C 
ATOM      7  C   UNL     1       4.365   5.370  19.242  0.00  0.00    +0.022 C 
ATOM      8  H   UNL     1       3.039   3.050  17.882  0.00  0.00    +0.047 HD
ATOM      9  H   UNL     1       2.662   2.618  19.556  0.00  0.00    +0.047 HD
ATOM     10  H   UNL     1       5.168   2.190  18.488  0.00  0.00    +0.033 HD
ATOM     11  H   UNL     1       6.350   4.557  19.361  0.00  0.00    +0.037 HD
ATOM     12  H   UNL     1       4.330   6.274  18.626  0.00  0.00    +0.047 HD
ATOM     13  H   UNL     1       4.533   5.654  20.287  0.00  0.00    +0.047 HD
ENDROOT
BRANCH   6  14
ATOM     14  C   UNL     1       5.821   4.417  17.314  0.00  0.00    -0.042 A 
ATOM     15  C   UNL     1       4.936   4.096  16.273  0.00  0.00    -0.058 A 
ATOM     16  C   UNL     1       5.352   4.146  14.941  0.00  0.00    -0.061 A 
ATOM     17  C   UNL     1       6.658   4.512  14.628  0.00  0.00    -0.062 A 
ATOM     18  C   UNL     1       7.553   4.826  15.647  0.00  0.00    -0.061 A 
ATOM     19  C   UNL     1       7.138   4.775  16.979  0.00  0.00    -0.058 A 
ATOM     20  H   UNL     1       3.912   3.797  16.478  0.00  0.00    +0.062 HD
ATOM     21  H   UNL     1       4.654   3.898  14.146  0.00  0.00    +0.062 HD
ATOM     22  H   UNL     1       6.980   4.552  13.590  0.00  0.00    +0.062 HD
ATOM     23  H   UNL     1       8.574   5.108  15.406  0.00  0.00    +0.062 HD
ATOM     24  H   UNL     1       7.856   5.020  17.760  0.00  0.00    +0.062 HD
ENDBRANCH   6  14
BRANCH   1  29
ATOM     25  C   UNL     1       2.183   7.628  18.961  0.00  0.00    +0.135 A 
ATOM     26  O   UNL     1       1.801   8.788  19.572  0.00  0.00    -0.440 OA
ATOM     27  C   UNL     1       1.036   8.384  20.635  0.00  0.00    +0.231 A 
ATOM     28  N   UNL     1       0.917   7.074  20.732  0.00  0.00    -0.204 NA
ATOM     29  C   UNL     1       1.650   6.568  19.669  0.00  0.00    +0.167 A 
BRANCH  27  30
ATOM     30  C   UNL     1       0.377   9.368  21.629  0.00  0.00    +0.074 A 
ATOM     31  C   UNL     1      -0.041   9.117  22.944  0.00  0.00    +0.062 A 
ATOM     32  N   UNL     1      -0.573  10.202  23.518  0.00  0.00    -0.179 NA
ATOM     33  N   UNL     1      -0.489  11.142  22.554  0.00  0.00    -0.274 N 
ATOM     34  C   UNL     1       0.076  10.689  21.397  0.00  0.00    +0.037 A 
ATOM     35  H   UNL     1       0.019   8.194  23.508  0.00  0.00    +0.086 HD
ATOM     36  H   UNL     1       0.213  11.322  20.532  0.00  0.00    +0.083 HD
BRANCH  33  37
ATOM     37  C   UNL     1      -0.979  12.473  22.818  0.00  0.00    +0.030 C 
ATOM     38  H   UNL     1      -1.763  12.407  23.578  0.00  0.00    +0.047 HD
ATOM     39  H   UNL     1      -1.379  12.884  21.888  0.00  0.00    +0.047 HD
ATOM     40  H   UNL     1      -0.159  13.098  23.180  0.00  0.00    +0.047 HD
ENDBRANCH  33  37
ENDBRANCH  27  30
BRANCH  25  41
ATOM     41  C   UNL     1       3.026   7.751  17.757  0.00  0.00    -0.004 C 
ATOM     42  H   UNL     1       2.561   7.240  16.909  0.00  0.00    +0.031 HD
ATOM     43  H   UNL     1       3.168   8.803  17.494  0.00  0.00    +0.031 HD
ATOM     44  H   UNL     1       4.015   7.308  17.917  0.00  0.00    +0.031 HD
ENDBRANCH  25  41
ENDBRANCH   1  29
BRANCH   5  45
ATOM     45  C   UNL     1       5.145   2.607  20.600  0.00  0.00    -0.002 C 
ATOM     46  H   UNL     1       4.342   2.905  21.284  0.00  0.00    +0.043 HD
ATOM     47  H   UNL     1       6.045   3.146  20.918  0.00  0.00    +0.043 HD
BRANCH  45  48
ATOM     48  N   UNL     1       5.402   1.181  20.774  0.00  0.00    -0.330 NA
ATOM     49  H   UNL     1       6.262   1.039  21.303  0.00  0.00    +0.118 HD
ATOM     50  H   UNL     1       5.538   0.726  19.872  0.00  0.00    +0.118 HD
ENDBRANCH  45  48
ENDBRANCH   5  45
TORSDOF 7
ENDMDL
MODEL 11
REMARK VINA RESULT:    -5.295      2.671      4.657
REMARK INTER + INTRA:          -7.727
REMARK INTER:                  -7.642
REMARK INTRA:                  -0.085
REMARK UNBOUND:                -0.730
REMARK  Name = 
REMARK  7 active torsions:
REMARK  status: ('A' for Active; 'I' for Inactive)
REMARK    1  A    between atoms: C_1  and  C_2
REMARK    2  A    between atoms: C_4  and  C_5
REMARK    3  A    between atoms: N_8  and  C_9
REMARK    4  A    between atoms: C_12  and  C_13
REMARK    5  A    between atoms: C_17  and  C_18
REMARK    6  A    between atoms: C_18  and  N_19
REMARK    7  A    between atoms: C_20  and  C_21
REMARK                            x       y       z     vdW  Elec       q    Type
REMARK                         _______ _______ _______ _____ _____    ______ ____
ROOT
ATOM      1  C   UNL     1      -0.869  10.813  19.361  0.00  0.00    +0.268 C 
ATOM      2  O   UNL     1      -1.648  10.694  18.413  0.00  0.00    -0.268 OA
ATOM      3  N   UNL     1      -0.837  11.986  20.101  0.00  0.00    -0.295 N 
ATOM      4  C   UNL     1      -1.674  13.114  19.735  0.00  0.00    +0.020 C 
ATOM      5  C   UNL     1      -1.158  14.295  20.563  0.00  0.00    -0.005 C 
ATOM      6  C   UNL     1      -0.606  13.607  21.835  0.00  0.00    +0.005 C 
ATOM      7  C   UNL     1      -0.066  12.265  21.307  0.00  0.00    +0.022 C 
ATOM      8  H   UNL     1      -2.704  12.863  20.013  0.00  0.00    +0.047 HD
ATOM      9  H   UNL     1      -1.650  13.277  18.654  0.00  0.00    +0.047 HD
ATOM     10  H   UNL     1      -1.979  14.986  20.792  0.00  0.00    +0.033 HD
ATOM     11  H   UNL     1       0.238  14.163  22.266  0.00  0.00    +0.037 HD
ATOM     12  H   UNL     1      -0.146  11.450  22.031  0.00  0.00    +0.047 HD
ATOM     13  H   UNL     1       0.981  12.372  21.001  0.00  0.00    +0.047 HD
ENDROOT
BRANCH   6  14
ATOM     14  C   UNL     1      -1.672  13.518  22.918  0.00  0.00    -0.042 A 
ATOM     15  C   UNL     1      -1.900  14.533  23.859  0.00  0.00    -0.058 A 
ATOM     16  C   UNL     1      -2.880  14.388  24.844  0.00  0.00    -0.061 A 
ATOM     17  C   UNL     1      -3.643  13.225  24.907  0.00  0.00    -0.062 A 
ATOM     18  C   UNL     1      -3.425  12.203  23.987  0.00  0.00    -0.061 A 
ATOM     19  C   UNL     1      -2.445  12.348  23.003  0.00  0.00    -0.058 A 
ATOM     20  H   UNL     1      -1.318  15.451  23.848  0.00  0.00    +0.062 HD
ATOM     21  H   UNL     1      -3.046  15.185  25.564  0.00  0.00    +0.062 HD
ATOM     22  H   UNL     1      -4.406  13.115  25.674  0.00  0.00    +0.062 HD
ATOM     23  H   UNL     1      -4.017  11.294  24.036  0.00  0.00    +0.062 HD
ATOM     24  H   UNL     1      -2.290  11.534  22.297  0.00  0.00    +0.062 HD
ENDBRANCH   6  14
BRANCH   1  29
ATOM     25  C   UNL     1       0.103   9.105  20.954  0.00  0.00    +0.135 A 
ATOM     26  O   UNL     1       1.062   8.135  20.904  0.00  0.00    -0.440 OA
ATOM     27  C   UNL     1       1.551   8.197  19.625  0.00  0.00    +0.231 A 
ATOM     28  N   UNL     1       0.976   9.124  18.885  0.00  0.00    -0.204 NA
ATOM     29  C   UNL     1       0.045   9.724  19.720  0.00  0.00    +0.167 A 
BRANCH  27  30
ATOM     30  C   UNL     1       2.671   7.271  19.099  0.00  0.00    +0.074 A 
ATOM     31  C   UNL     1       3.419   7.402  17.920  0.00  0.00    +0.062 A 
ATOM     32  N   UNL     1       4.310   6.415  17.776  0.00  0.00    -0.179 NA
ATOM     33  N   UNL     1       4.120   5.657  18.875  0.00  0.00    -0.274 N 
ATOM     34  C   UNL     1       3.144   6.130  19.703  0.00  0.00    +0.037 A 
ATOM     35  H   UNL     1       3.353   8.172  17.161  0.00  0.00    +0.086 HD
ATOM     36  H   UNL     1       2.873   5.633  20.624  0.00  0.00    +0.083 HD
BRANCH  33  37
ATOM     37  C   UNL     1       4.923   4.474  19.067  0.00  0.00    +0.030 C 
ATOM     38  H   UNL     1       5.554   4.625  19.947  0.00  0.00    +0.047 HD
ATOM     39  H   UNL     1       5.537   4.325  18.175  0.00  0.00    +0.047 HD
ATOM     40  H   UNL     1       4.270   3.611  19.218  0.00  0.00    +0.047 HD
ENDBRANCH  33  37
ENDBRANCH  27  30
BRANCH  25  41
ATOM     41  C   UNL     1      -0.616   9.271  22.231  0.00  0.00    -0.004 C 
ATOM     42  H   UNL     1      -1.562   9.799  22.074  0.00  0.00    +0.031 HD
ATOM     43  H   UNL     1      -0.833   8.296  22.678  0.00  0.00    +0.031 HD
ATOM     44  H   UNL     1      -0.024   9.847  22.949  0.00  0.00    +0.031 HD
ENDBRANCH  25  41
ENDBRANCH   1  29
BRANCH   5  45
ATOM     45  C   UNL     1      -0.049  15.085  19.846  0.00  0.00    -0.002 C 
ATOM     46  H   UNL     1       0.927  14.601  19.972  0.00  0.00    +0.043 HD
ATOM     47  H   UNL     1       0.034  16.081  20.296  0.00  0.00    +0.043 HD
BRANCH  45  48
ATOM     48  N   UNL     1      -0.300  15.267  18.420  0.00  0.00    -0.330 NA
ATOM     49  H   UNL     1      -1.221  15.678  18.273  0.00  0.00    +0.118 HD
ATOM     50  H   UNL     1      -0.301  14.369  17.937  0.00  0.00    +0.118 HD
ENDBRANCH  45  48
ENDBRANCH   5  45
TORSDOF 7
ENDMDL
MODEL 12
REMARK VINA RESULT:    -5.230      4.177      7.471
REMARK INTER + INTRA:          -7.641
REMARK INTER:                  -6.857
REMARK INTRA:                  -0.784
REMARK UNBOUND:                -0.730
REMARK  Name = 
REMARK  7 active torsions:
REMARK  status: ('A' for Active; 'I' for Inactive)
REMARK    1  A    between atoms: C_1  and  C_2
REMARK    2  A    between atoms: C_4  and  C_5
REMARK    3  A    between atoms: N_8  and  C_9
REMARK    4  A    between atoms: C_12  and  C_13
REMARK    5  A    between atoms: C_17  and  C_18
REMARK    6  A    between atoms: C_18  and  N_19
REMARK    7  A    between atoms: C_20  and  C_21
REMARK                            x       y       z     vdW  Elec       q    Type
REMARK                         _______ _______ _______ _____ _____    ______ ____
ROOT
ATOM      1  C   UNL     1       0.356  12.650  19.872  0.00  0.00    +0.268 C 
ATOM      2  O   UNL     1      -0.661  12.997  19.269  0.00  0.00    -0.268 OA
ATOM      3  N   UNL     1       0.421  11.407  20.485  0.00  0.00    -0.295 N 
ATOM      4  C   UNL     1      -0.728  10.520  20.480  0.00  0.00    +0.020 C 
ATOM      5  C   UNL     1      -0.395   9.412  21.485  0.00  0.00    -0.005 C 
ATOM      6  C   UNL     1       1.149   9.333  21.410  0.00  0.00    +0.005 C 
ATOM      7  C   UNL     1       1.566  10.791  21.144  0.00  0.00    +0.022 C 
ATOM      8  H   UNL     1      -0.825  10.113  19.467  0.00  0.00    +0.047 HD
ATOM      9  H   UNL     1      -1.643  11.074  20.708  0.00  0.00    +0.047 HD
ATOM     10  H   UNL     1      -0.871   8.470  21.181  0.00  0.00    +0.033 HD
ATOM     11  H   UNL     1       1.588   9.025  22.368  0.00  0.00    +0.037 HD
ATOM     12  H   UNL     1       2.473  10.880  20.540  0.00  0.00    +0.047 HD
ATOM     13  H   UNL     1       1.715  11.321  22.093  0.00  0.00    +0.047 HD
ENDROOT
BRANCH   6  14
ATOM     14  C   UNL     1       1.597   8.311  20.373  0.00  0.00    -0.042 A 
ATOM     15  C   UNL     1       1.972   8.655  19.066  0.00  0.00    -0.058 A 
ATOM     16  C   UNL     1       2.356   7.673  18.151  0.00  0.00    -0.061 A 
ATOM     17  C   UNL     1       2.366   6.332  18.525  0.00  0.00    -0.062 A 
ATOM     18  C   UNL     1       1.988   5.970  19.815  0.00  0.00    -0.061 A 
ATOM     19  C   UNL     1       1.604   6.952  20.730  0.00  0.00    -0.058 A 
ATOM     20  H   UNL     1       1.968   9.690  18.733  0.00  0.00    +0.062 HD
ATOM     21  H   UNL     1       2.647   7.956  17.142  0.00  0.00    +0.062 HD
ATOM     22  H   UNL     1       2.666   5.568  17.811  0.00  0.00    +0.062 HD
ATOM     23  H   UNL     1       1.992   4.924  20.109  0.00  0.00    +0.062 HD
ATOM     24  H   UNL     1       1.308   6.646  21.732  0.00  0.00    +0.062 HD
ENDBRANCH   6  14
BRANCH   1  29
ATOM     25  C   UNL     1       1.614  14.639  20.801  0.00  0.00    +0.135 A 
ATOM     26  O   UNL     1       2.838  15.215  20.613  0.00  0.00    -0.440 OA
ATOM     27  C   UNL     1       3.444  14.437  19.660  0.00  0.00    +0.231 A 
ATOM     28  N   UNL     1       2.697  13.432  19.245  0.00  0.00    -0.204 NA
ATOM     29  C   UNL     1       1.515  13.545  19.961  0.00  0.00    +0.167 A 
BRANCH  27  30
ATOM     30  C   UNL     1       4.867  14.710  19.121  0.00  0.00    +0.074 A 
ATOM     31  C   UNL     1       5.268  14.885  17.788  0.00  0.00    +0.062 A 
ATOM     32  N   UNL     1       6.583  15.104  17.683  0.00  0.00    -0.179 NA
ATOM     33  N   UNL     1       7.012  15.067  18.961  0.00  0.00    -0.274 N 
ATOM     34  C   UNL     1       6.016  14.833  19.865  0.00  0.00    +0.037 A 
ATOM     35  H   UNL     1       4.660  14.861  16.892  0.00  0.00    +0.086 HD
ATOM     36  H   UNL     1       6.200  14.773  20.928  0.00  0.00    +0.083 HD
BRANCH  33  37
ATOM     37  C   UNL     1       8.412  15.267  19.245  0.00  0.00    +0.030 C 
ATOM     38  H   UNL     1       8.588  15.030  20.298  0.00  0.00    +0.047 HD
ATOM     39  H   UNL     1       8.661  16.310  19.038  0.00  0.00    +0.047 HD
ATOM     40  H   UNL     1       9.010  14.608  18.609  0.00  0.00    +0.047 HD
ENDBRANCH  33  37
ENDBRANCH  27  30
BRANCH  25  41
ATOM     41  C   UNL     1       0.724  15.267  21.794  0.00  0.00    -0.004 C 
ATOM     42  H   UNL     1      -0.113  15.768  21.298  0.00  0.00    +0.031 HD
ATOM     43  H   UNL     1       0.322  14.514  22.479  0.00  0.00    +0.031 HD
ATOM     44  H   UNL     1       1.258  16.014  22.391  0.00  0.00    +0.031 HD
ENDBRANCH  25  41
ENDBRANCH   1  29
BRANCH   5  45
ATOM     45  C   UNL     1      -0.855   9.746  22.915  0.00  0.00    -0.002 C 
ATOM     46  H   UNL     1      -1.834   9.303  23.130  0.00  0.00    +0.043 HD
ATOM     47  H   UNL     1      -0.972  10.831  23.013  0.00  0.00    +0.043 HD
BRANCH  45  48
ATOM     48  N   UNL     1       0.089   9.311  23.940  0.00  0.00    -0.330 NA
ATOM     49  H   UNL     1       1.045   9.390  23.596  0.00  0.00    +0.118 HD
ATOM     50  H   UNL     1      -0.056   8.329  24.171  0.00  0.00    +0.118 HD
ENDBRANCH  45  48
ENDBRANCH   5  45
TORSDOF 7
ENDMDL
MODEL 13
REMARK VINA RESULT:    -5.119      3.377      5.533
REMARK INTER + INTRA:          -7.495
REMARK INTER:                  -6.990
REMARK INTRA:                  -0.505
REMARK UNBOUND:                -0.730
REMARK  Name = 
REMARK  7 active torsions:
REMARK  status: ('A' for Active; 'I' for Inactive)
REMARK    1  A    between atoms: C_1  and  C_2
REMARK    2  A    between atoms: C_4  and  C_5
REMARK    3  A    between atoms: N_8  and  C_9
REMARK    4  A    between atoms: C_12  and  C_13
REMARK    5  A    between atoms: C_17  and  C_18
REMARK    6  A    between atoms: C_18  and  N_19
REMARK    7  A    between atoms: C_20  and  C_21
REMARK                            x       y       z     vdW  Elec       q    Type
REMARK                         _______ _______ _______ _____ _____    ______ ____
ROOT
ATOM      1  C   UNL     1       0.853  11.219  20.181  0.00  0.00    +0.268 C 
ATOM      2  O   UNL     1       0.431  11.075  21.330  0.00  0.00    -0.268 OA
ATOM      3  N   UNL     1       1.166  12.483  19.700  0.00  0.00    -0.295 N 
ATOM      4  C   UNL     1       0.945  13.661  20.519  0.00  0.00    +0.020 C 
ATOM      5  C   UNL     1       1.110  14.854  19.574  0.00  0.00    -0.005 C 
ATOM      6  C   UNL     1       2.119  14.326  18.526  0.00  0.00    +0.005 C 
ATOM      7  C   UNL     1       1.770  12.830  18.420  0.00  0.00    +0.022 C 
ATOM      8  H   UNL     1       1.716  13.669  21.298  0.00  0.00    +0.047 HD
ATOM      9  H   UNL     1      -0.030  13.609  21.013  0.00  0.00    +0.047 HD
ATOM     10  H   UNL     1       1.501  15.721  20.122  0.00  0.00    +0.033 HD
ATOM     11  H   UNL     1       1.958  14.781  17.539  0.00  0.00    +0.037 HD
ATOM     12  H   UNL     1       2.634  12.197  18.198  0.00  0.00    +0.047 HD
ATOM     13  H   UNL     1       1.005  12.674  17.650  0.00  0.00    +0.047 HD
ENDROOT
BRANCH   6  14
ATOM     14  C   UNL     1       3.551  14.650  18.931  0.00  0.00    -0.042 A 
ATOM     15  C   UNL     1       4.631  14.611  18.036  0.00  0.00    -0.058 A 
ATOM     16  C   UNL     1       5.928  14.899  18.468  0.00  0.00    -0.061 A 
ATOM     17  C   UNL     1       6.166  15.224  19.801  0.00  0.00    -0.062 A 
ATOM     18  C   UNL     1       5.108  15.260  20.705  0.00  0.00    -0.061 A 
ATOM     19  C   UNL     1       3.812  14.971  20.273  0.00  0.00    -0.058 A 
ATOM     20  H   UNL     1       4.486  14.351  16.990  0.00  0.00    +0.062 HD
ATOM     21  H   UNL     1       6.753  14.867  17.762  0.00  0.00    +0.062 HD
ATOM     22  H   UNL     1       7.176  15.449  20.135  0.00  0.00    +0.062 HD
ATOM     23  H   UNL     1       5.292  15.511  21.746  0.00  0.00    +0.062 HD
ATOM     24  H   UNL     1       3.001  15.001  20.999  0.00  0.00    +0.062 HD
ENDBRANCH   6  14
BRANCH   1  29
ATOM     25  C   UNL     1       0.185   9.727  18.250  0.00  0.00    +0.135 A 
ATOM     26  O   UNL     1       0.672   8.601  17.652  0.00  0.00    -0.440 OA
ATOM     27  C   UNL     1       1.804   8.294  18.361  0.00  0.00    +0.231 A 
ATOM     28  N   UNL     1       2.054   9.135  19.346  0.00  0.00    -0.204 NA
ATOM     29  C   UNL     1       1.023  10.062  19.296  0.00  0.00    +0.167 A 
BRANCH  27  30
ATOM     30  C   UNL     1       2.703   7.079  18.040  0.00  0.00    +0.074 A 
ATOM     31  C   UNL     1       2.471   5.728  18.341  0.00  0.00    +0.062 A 
ATOM     32  N   UNL     1       3.463   4.940  17.915  0.00  0.00    -0.179 NA
ATOM     33  N   UNL     1       4.327   5.802  17.342  0.00  0.00    -0.274 N 
ATOM     34  C   UNL     1       3.915   7.102  17.392  0.00  0.00    +0.037 A 
ATOM     35  H   UNL     1       1.623   5.286  18.851  0.00  0.00    +0.086 HD
ATOM     36  H   UNL     1       4.498   7.912  16.976  0.00  0.00    +0.083 HD
BRANCH  33  37
ATOM     37  C   UNL     1       5.548   5.300  16.758  0.00  0.00    +0.030 C 
ATOM     38  H   UNL     1       5.346   4.311  16.338  0.00  0.00    +0.047 HD
ATOM     39  H   UNL     1       6.305   5.238  17.543  0.00  0.00    +0.047 HD
ATOM     40  H   UNL     1       5.881   5.980  15.970  0.00  0.00    +0.047 HD
ENDBRANCH  33  37
ENDBRANCH  27  30
BRANCH  25  41
ATOM     41  C   UNL     1      -1.050  10.305  17.686  0.00  0.00    -0.004 C 
ATOM     42  H   UNL     1      -0.935  11.383  17.535  0.00  0.00    +0.031 HD
ATOM     43  H   UNL     1      -1.284   9.842  16.723  0.00  0.00    +0.031 HD
ATOM     44  H   UNL     1      -1.903  10.147  18.353  0.00  0.00    +0.031 HD
ENDBRANCH  25  41
ENDBRANCH   1  29
BRANCH   5  45
ATOM     45  C   UNL     1      -0.210  15.267  18.898  0.00  0.00    -0.002 C 
ATOM     46  H   UNL     1      -0.284  14.852  17.886  0.00  0.00    +0.043 HD
ATOM     47  H   UNL     1      -0.237  16.357  18.794  0.00  0.00    +0.043 HD
BRANCH  45  48
ATOM     48  N   UNL     1      -1.394  14.868  19.654  0.00  0.00    -0.330 NA
ATOM     49  H   UNL     1      -1.868  15.688  20.028  0.00  0.00    +0.118 HD
ATOM     50  H   UNL     1      -1.134  14.292  20.454  0.00  0.00    +0.118 HD
ENDBRANCH  45  48
ENDBRANCH   5  45
TORSDOF 7
ENDMDL
MODEL 14
REMARK VINA RESULT:    -5.097      2.625      4.013
REMARK INTER + INTRA:          -7.466
REMARK INTER:                  -8.543
REMARK INTRA:                   1.078
REMARK UNBOUND:                -0.730
REMARK  Name = 
REMARK  7 active torsions:
REMARK  status: ('A' for Active; 'I' for Inactive)
REMARK    1  A    between atoms: C_1  and  C_2
REMARK    2  A    between atoms: C_4  and  C_5
REMARK    3  A    between atoms: N_8  and  C_9
REMARK    4  A    between atoms: C_12  and  C_13
REMARK    5  A    between atoms: C_17  and  C_18
REMARK    6  A    between atoms: C_18  and  N_19
REMARK    7  A    between atoms: C_20  and  C_21
REMARK                            x       y       z     vdW  Elec       q    Type
REMARK                         _______ _______ _______ _____ _____    ______ ____
ROOT
ATOM      1  C   UNL     1       1.197   9.062  21.039  0.00  0.00    +0.268 C 
ATOM      2  O   UNL     1       1.353   9.028  22.261  0.00  0.00    -0.268 OA
ATOM      3  N   UNL     1       0.606  10.163  20.436  0.00  0.00    -0.295 N 
ATOM      4  C   UNL     1       0.107  11.266  21.237  0.00  0.00    +0.020 C 
ATOM      5  C   UNL     1      -0.727  12.124  20.281  0.00  0.00    -0.005 C 
ATOM      6  C   UNL     1      -0.039  11.883  18.915  0.00  0.00    +0.005 C 
ATOM      7  C   UNL     1       0.437  10.422  19.011  0.00  0.00    +0.022 C 
ATOM      8  H   UNL     1       0.975  11.823  21.607  0.00  0.00    +0.047 HD
ATOM      9  H   UNL     1      -0.445  10.892  22.104  0.00  0.00    +0.047 HD
ATOM     10  H   UNL     1      -0.684  13.178  20.583  0.00  0.00    +0.033 HD
ATOM     11  H   UNL     1      -0.752  11.951  18.082  0.00  0.00    +0.037 HD
ATOM     12  H   UNL     1       1.360  10.229  18.456  0.00  0.00    +0.047 HD
ATOM     13  H   UNL     1      -0.346   9.744  18.651  0.00  0.00    +0.047 HD
ENDROOT
BRANCH   6  14
ATOM     14  C   UNL     1       1.042  12.922  18.654  0.00  0.00    -0.042 A 
ATOM     15  C   UNL     1       2.332  12.595  18.206  0.00  0.00    -0.058 A 
ATOM     16  C   UNL     1       3.291  13.590  18.002  0.00  0.00    -0.061 A 
ATOM     17  C   UNL     1       2.980  14.924  18.247  0.00  0.00    -0.062 A 
ATOM     18  C   UNL     1       1.709  15.267  18.700  0.00  0.00    -0.061 A 
ATOM     19  C   UNL     1       0.750  14.273  18.905  0.00  0.00    -0.058 A 
ATOM     20  H   UNL     1       2.615  11.564  18.013  0.00  0.00    +0.062 HD
ATOM     21  H   UNL     1       4.284  13.320  17.652  0.00  0.00    +0.062 HD
ATOM     22  H   UNL     1       3.727  15.697  18.086  0.00  0.00    +0.062 HD
ATOM     23  H   UNL     1       1.464  16.307  18.895  0.00  0.00    +0.062 HD
ATOM     24  H   UNL     1      -0.236  14.564  19.264  0.00  0.00    +0.062 HD
ENDBRANCH   6  14
BRANCH   1  29
ATOM     25  C   UNL     1       2.169   8.048  18.935  0.00  0.00    +0.135 A 
ATOM     26  O   UNL     1       2.450   6.793  18.476  0.00  0.00    -0.440 OA
ATOM     27  C   UNL     1       2.064   5.958  19.493  0.00  0.00    +0.231 A 
ATOM     28  N   UNL     1       1.569   6.593  20.538  0.00  0.00    -0.204 NA
ATOM     29  C   UNL     1       1.622   7.937  20.199  0.00  0.00    +0.167 A 
BRANCH  27  30
ATOM     30  C   UNL     1       2.195   4.420  19.424  0.00  0.00    +0.074 A 
ATOM     31  C   UNL     1       1.327   3.453  19.954  0.00  0.00    +0.062 A 
ATOM     32  N   UNL     1       1.750   2.209  19.708  0.00  0.00    -0.179 NA
ATOM     33  N   UNL     1       2.893   2.394  19.018  0.00  0.00    -0.274 N 
ATOM     34  C   UNL     1       3.205   3.708  18.821  0.00  0.00    +0.037 A 
ATOM     35  H   UNL     1       0.408   3.603  20.507  0.00  0.00    +0.086 HD
ATOM     36  H   UNL     1       4.091   4.020  18.287  0.00  0.00    +0.083 HD
BRANCH  33  37
ATOM     37  C   UNL     1       3.647   1.247  18.574  0.00  0.00    +0.030 C 
ATOM     38  H   UNL     1       4.192   1.524  17.667  0.00  0.00    +0.047 HD
ATOM     39  H   UNL     1       2.948   0.433  18.370  0.00  0.00    +0.047 HD
ATOM     40  H   UNL     1       4.350   0.948  19.356  0.00  0.00    +0.047 HD
ENDBRANCH  33  37
ENDBRANCH  27  30
BRANCH  25  41
ATOM     41  C   UNL     1       2.491   9.175  18.040  0.00  0.00    -0.004 C 
ATOM     42  H   UNL     1       2.749   8.811  17.041  0.00  0.00    +0.031 HD
ATOM     43  H   UNL     1       1.635   9.851  17.953  0.00  0.00    +0.031 HD
ATOM     44  H   UNL     1       3.340   9.753  18.419  0.00  0.00    +0.031 HD
ENDBRANCH  25  41
ENDBRANCH   1  29
BRANCH   5  45
ATOM     45  C   UNL     1      -2.204  11.696  20.230  0.00  0.00    -0.002 C 
ATOM     46  H   UNL     1      -2.737  12.005  21.137  0.00  0.00    +0.043 HD
ATOM     47  H   UNL     1      -2.262  10.603  20.187  0.00  0.00    +0.043 HD
BRANCH  45  48
ATOM     48  N   UNL     1      -2.916  12.220  19.069  0.00  0.00    -0.330 NA
ATOM     49  H   UNL     1      -2.981  13.236  19.123  0.00  0.00    +0.118 HD
ATOM     50  H   UNL     1      -3.872  11.868  19.042  0.00  0.00    +0.118 HD
ENDBRANCH  45  48
ENDBRANCH   5  45
TORSDOF 7
ENDMDL
MODEL 15
REMARK VINA RESULT:    -5.010      1.820      2.607
REMARK INTER + INTRA:          -7.350
REMARK INTER:                  -7.283
REMARK INTRA:                  -0.068
REMARK UNBOUND:                -0.730
REMARK  Name = 
REMARK  7 active torsions:
REMARK  status: ('A' for Active; 'I' for Inactive)
REMARK    1  A    between atoms: C_1  and  C_2
REMARK    2  A    between atoms: C_4  and  C_5
REMARK    3  A    between atoms: N_8  and  C_9
REMARK    4  A    between atoms: C_12  and  C_13
REMARK    5  A    between atoms: C_17  and  C_18
REMARK    6  A    between atoms: C_18  and  N_19
REMARK    7  A    between atoms: C_20  and  C_21
REMARK                            x       y       z     vdW  Elec       q    Type
REMARK                         _______ _______ _______ _____ _____    ______ ____
ROOT
ATOM      1  C   UNL     1       2.309   9.477  18.152  0.00  0.00    +0.268 C 
ATOM      2  O   UNL     1       3.173  10.203  17.656  0.00  0.00    -0.268 OA
ATOM      3  N   UNL     1       1.125  10.019  18.631  0.00  0.00    -0.295 N 
ATOM      4  C   UNL     1       0.908  11.454  18.613  0.00  0.00    +0.020 C 
ATOM      5  C   UNL     1      -0.335  11.692  19.476  0.00  0.00    -0.005 C 
ATOM      6  C   UNL     1      -1.138  10.382  19.290  0.00  0.00    +0.005 C 
ATOM      7  C   UNL     1      -0.041   9.311  19.146  0.00  0.00    +0.022 C 
ATOM      8  H   UNL     1       0.725  11.746  17.573  0.00  0.00    +0.047 HD
ATOM      9  H   UNL     1       1.803  11.982  18.956  0.00  0.00    +0.047 HD
ATOM     10  H   UNL     1      -0.887  12.568  19.111  0.00  0.00    +0.033 HD
ATOM     11  H   UNL     1      -1.732  10.138  20.181  0.00  0.00    +0.037 HD
ATOM     12  H   UNL     1      -0.328   8.481  18.494  0.00  0.00    +0.047 HD
ATOM     13  H   UNL     1       0.233   8.915  20.131  0.00  0.00    +0.047 HD
ENDROOT
BRANCH   6  14
ATOM     14  C   UNL     1      -2.115  10.497  18.128  0.00  0.00    -0.042 A 
ATOM     15  C   UNL     1      -1.964   9.794  16.923  0.00  0.00    -0.058 A 
ATOM     16  C   UNL     1      -2.882   9.953  15.883  0.00  0.00    -0.061 A 
ATOM     17  C   UNL     1      -3.961  10.821  16.027  0.00  0.00    -0.062 A 
ATOM     18  C   UNL     1      -4.123  11.533  17.213  0.00  0.00    -0.061 A 
ATOM     19  C   UNL     1      -3.205  11.374  18.252  0.00  0.00    -0.058 A 
ATOM     20  H   UNL     1      -1.129   9.115  16.769  0.00  0.00    +0.062 HD
ATOM     21  H   UNL     1      -2.753   9.400  14.957  0.00  0.00    +0.062 HD
ATOM     22  H   UNL     1      -4.676  10.942  15.217  0.00  0.00    +0.062 HD
ATOM     23  H   UNL     1      -4.963  12.213  17.327  0.00  0.00    +0.062 HD
ATOM     24  H   UNL     1      -3.350  11.945  19.168  0.00  0.00    +0.062 HD
ENDBRANCH   6  14
BRANCH   1  29
ATOM     25  C   UNL     1       3.475   7.310  17.564  0.00  0.00    +0.135 A 
ATOM     26  O   UNL     1       3.374   5.998  17.928  0.00  0.00    -0.440 OA
ATOM     27  C   UNL     1       2.351   5.970  18.840  0.00  0.00    +0.231 A 
ATOM     28  N   UNL     1       1.814   7.153  19.067  0.00  0.00    -0.204 NA
ATOM     29  C   UNL     1       2.518   8.028  18.254  0.00  0.00    +0.167 A 
BRANCH  27  30
ATOM     30  C   UNL     1       1.870   4.676  19.536  0.00  0.00    +0.074 A 
ATOM     31  C   UNL     1       1.224   3.573  18.959  0.00  0.00    +0.062 A 
ATOM     32  N   UNL     1       0.949   2.623  19.860  0.00  0.00    -0.179 NA
ATOM     33  N   UNL     1       1.427   3.135  21.013  0.00  0.00    -0.274 N 
ATOM     34  C   UNL     1       1.991   4.369  20.871  0.00  0.00    +0.037 A 
ATOM     35  H   UNL     1       0.943   3.421  17.925  0.00  0.00    +0.086 HD
ATOM     36  H   UNL     1       2.418   4.911  21.702  0.00  0.00    +0.083 HD
BRANCH  33  37
ATOM     37  C   UNL     1       1.304   2.371  22.231  0.00  0.00    +0.030 C 
ATOM     38  H   UNL     1       1.163   3.069  23.061  0.00  0.00    +0.047 HD
ATOM     39  H   UNL     1       2.219   1.790  22.368  0.00  0.00    +0.047 HD
ATOM     40  H   UNL     1       0.444   1.701  22.155  0.00  0.00    +0.047 HD
ENDBRANCH  33  37
ENDBRANCH  27  30
BRANCH  25  41
ATOM     41  C   UNL     1       4.518   7.653  16.578  0.00  0.00    -0.004 C 
ATOM     42  H   UNL     1       5.425   7.997  17.083  0.00  0.00    +0.031 HD
ATOM     43  H   UNL     1       4.769   6.781  15.967  0.00  0.00    +0.031 HD
ATOM     44  H   UNL     1       4.183   8.450  15.906  0.00  0.00    +0.031 HD
ENDBRANCH  25  41
ENDBRANCH   1  29
BRANCH   5  45
ATOM     45  C   UNL     1       0.004  11.918  20.960  0.00  0.00    -0.002 C 
ATOM     46  H   UNL     1       0.154  12.982  21.174  0.00  0.00    +0.043 HD
ATOM     47  H   UNL     1       0.946  11.413  21.196  0.00  0.00    +0.043 HD
BRANCH  45  48
ATOM     48  N   UNL     1      -1.014  11.398  21.868  0.00  0.00    -0.330 NA
ATOM     49  H   UNL     1      -1.538  10.648  21.420  0.00  0.00    +0.118 HD
ATOM     50  H   UNL     1      -1.690  12.123  22.106  0.00  0.00    +0.118 HD
ENDBRANCH  45  48
ENDBRANCH   5  45
TORSDOF 7
ENDMDL
MODEL 16
REMARK VINA RESULT:    -5.006      4.922      7.643
REMARK INTER + INTRA:          -7.345
REMARK INTER:                  -6.820
REMARK INTRA:                  -0.525
REMARK UNBOUND:                -0.730
REMARK  Name = 
REMARK  7 active torsions:
REMARK  status: ('A' for Active; 'I' for Inactive)
REMARK    1  A    between atoms: C_1  and  C_2
REMARK    2  A    between atoms: C_4  and  C_5
REMARK    3  A    between atoms: N_8  and  C_9
REMARK    4  A    between atoms: C_12  and  C_13
REMARK    5  A    between atoms: C_17  and  C_18
REMARK    6  A    between atoms: C_18  and  N_19
REMARK    7  A    between atoms: C_20  and  C_21
REMARK                            x       y       z     vdW  Elec       q    Type
REMARK                         _______ _______ _______ _____ _____    ______ ____
ROOT
ATOM      1  C   UNL     1       1.948  13.780  19.393  0.00  0.00    +0.268 C 
ATOM      2  O   UNL     1       1.936  14.450  18.359  0.00  0.00    -0.268 OA
ATOM      3  N   UNL     1       1.186  12.624  19.491  0.00  0.00    -0.295 N 
ATOM      4  C   UNL     1       0.315  12.218  18.403  0.00  0.00    +0.020 C 
ATOM      5  C   UNL     1      -0.568  11.107  18.977  0.00  0.00    -0.005 C 
ATOM      6  C   UNL     1       0.341  10.466  20.053  0.00  0.00    +0.005 C 
ATOM      7  C   UNL     1       1.156  11.660  20.584  0.00  0.00    +0.022 C 
ATOM      8  H   UNL     1       0.953  11.836  17.598  0.00  0.00    +0.047 HD
ATOM      9  H   UNL     1      -0.238  13.077  18.012  0.00  0.00    +0.047 HD
ATOM     10  H   UNL     1      -0.838  10.392  18.188  0.00  0.00    +0.033 HD
ATOM     11  H   UNL     1      -0.242  10.058  20.889  0.00  0.00    +0.037 HD
ATOM     12  H   UNL     1       2.166  11.387  20.906  0.00  0.00    +0.047 HD
ATOM     13  H   UNL     1       0.630  12.136  21.420  0.00  0.00    +0.047 HD
ENDROOT
BRANCH   6  14
ATOM     14  C   UNL     1       1.147   9.311  19.475  0.00  0.00    -0.042 A 
ATOM     15  C   UNL     1       1.554   9.252  18.134  0.00  0.00    -0.058 A 
ATOM     16  C   UNL     1       2.276   8.157  17.654  0.00  0.00    -0.061 A 
ATOM     17  C   UNL     1       2.598   7.103  18.504  0.00  0.00    -0.062 A 
ATOM     18  C   UNL     1       2.196   7.140  19.836  0.00  0.00    -0.061 A 
ATOM     19  C   UNL     1       1.474   8.234  20.316  0.00  0.00    -0.058 A 
ATOM     20  H   UNL     1       1.313  10.051  17.437  0.00  0.00    +0.062 HD
ATOM     21  H   UNL     1       2.586   8.127  16.612  0.00  0.00    +0.062 HD
ATOM     22  H   UNL     1       3.161   6.252  18.128  0.00  0.00    +0.062 HD
ATOM     23  H   UNL     1       2.444   6.317  20.502  0.00  0.00    +0.062 HD
ATOM     24  H   UNL     1       1.166   8.239  21.361  0.00  0.00    +0.062 HD
ENDBRANCH   6  14
BRANCH   1  29
ATOM     25  C   UNL     1       2.275  14.817  21.677  0.00  0.00    +0.135 A 
ATOM     26  O   UNL     1       3.320  15.033  22.529  0.00  0.00    -0.440 OA
ATOM     27  C   UNL     1       4.411  14.520  21.875  0.00  0.00    +0.231 A 
ATOM     28  N   UNL     1       4.125  14.009  20.693  0.00  0.00    -0.204 NA
ATOM     29  C   UNL     1       2.759  14.193  20.543  0.00  0.00    +0.167 A 
BRANCH  27  30
ATOM     30  C   UNL     1       5.840  14.540  22.464  0.00  0.00    +0.074 A 
ATOM     31  C   UNL     1       6.221  14.442  23.811  0.00  0.00    +0.062 A 
ATOM     32  N   UNL     1       7.548  14.495  23.963  0.00  0.00    -0.179 NA
ATOM     33  N   UNL     1       8.005  14.627  22.701  0.00  0.00    -0.274 N 
ATOM     34  C   UNL     1       7.015  14.659  21.762  0.00  0.00    +0.037 A 
ATOM     35  H   UNL     1       5.590  14.336  24.685  0.00  0.00    +0.086 HD
ATOM     36  H   UNL     1       7.221  14.761  20.706  0.00  0.00    +0.083 HD
BRANCH  33  37
ATOM     37  C   UNL     1       9.426  14.718  22.468  0.00  0.00    +0.030 C 
ATOM     38  H   UNL     1       9.673  14.101  21.600  0.00  0.00    +0.047 HD
ATOM     39  H   UNL     1       9.946  14.356  23.358  0.00  0.00    +0.047 HD
ATOM     40  H   UNL     1       9.697  15.760  22.276  0.00  0.00    +0.047 HD
ENDBRANCH  33  37
ENDBRANCH  27  30
BRANCH  25  41
ATOM     41  C   UNL     1       0.943  15.267  22.124  0.00  0.00    -0.004 C 
ATOM     42  H   UNL     1       0.601  16.113  21.521  0.00  0.00    +0.031 HD
ATOM     43  H   UNL     1       0.215  14.456  22.032  0.00  0.00    +0.031 HD
ATOM     44  H   UNL     1       0.962  15.586  23.172  0.00  0.00    +0.031 HD
ENDBRANCH  25  41
ENDBRANCH   1  29
BRANCH   5  45
ATOM     45  C   UNL     1      -1.866  11.642  19.608  0.00  0.00    -0.002 C 
ATOM     46  H   UNL     1      -1.669  12.524  20.229  0.00  0.00    +0.043 HD
ATOM     47  H   UNL     1      -2.287  10.878  20.270  0.00  0.00    +0.043 HD
BRANCH  45  48
ATOM     48  N   UNL     1      -2.887  11.983  18.623  0.00  0.00    -0.330 NA
ATOM     49  H   UNL     1      -3.290  12.896  18.832  0.00  0.00    +0.118 HD
ATOM     50  H   UNL     1      -3.655  11.313  18.652  0.00  0.00    +0.118 HD
ENDBRANCH  45  48
ENDBRANCH   5  45
TORSDOF 7
ENDMDL
MODEL 17
REMARK VINA RESULT:    -4.792      3.090      8.881
REMARK INTER + INTRA:          -7.063
REMARK INTER:                  -6.546
REMARK INTRA:                  -0.517
REMARK UNBOUND:                -0.730
REMARK  Name = 
REMARK  7 active torsions:
REMARK  status: ('A' for Active; 'I' for Inactive)
REMARK    1  A    between atoms: C_1  and  C_2
REMARK    2  A    between atoms: C_4  and  C_5
REMARK    3  A    between atoms: N_8  and  C_9
REMARK    4  A    between atoms: C_12  and  C_13
REMARK    5  A    between atoms: C_17  and  C_18
REMARK    6  A    between atoms: C_18  and  N_19
REMARK    7  A    between atoms: C_20  and  C_21
REMARK                            x       y       z     vdW  Elec       q    Type
REMARK                         _______ _______ _______ _____ _____    ______ ____
ROOT
ATOM      1  C   UNL     1       1.873   5.380  17.869  0.00  0.00    +0.268 C 
ATOM      2  O   UNL     1       0.858   4.890  17.370  0.00  0.00    -0.268 OA
ATOM      3  N   UNL     1       3.077   4.693  17.830  0.00  0.00    -0.295 N 
ATOM      4  C   UNL     1       3.150   3.361  17.257  0.00  0.00    +0.020 C 
ATOM      5  C   UNL     1       4.524   2.816  17.658  0.00  0.00    -0.005 C 
ATOM      6  C   UNL     1       5.385   4.098  17.760  0.00  0.00    +0.005 C 
ATOM      7  C   UNL     1       4.388   5.155  18.268  0.00  0.00    +0.022 C 
ATOM      8  H   UNL     1       3.073   3.466  16.169  0.00  0.00    +0.047 HD
ATOM      9  H   UNL     1       2.307   2.750  17.595  0.00  0.00    +0.047 HD
ATOM     10  H   UNL     1       4.899   2.128  16.889  0.00  0.00    +0.033 HD
ATOM     11  H   UNL     1       6.181   3.996  18.511  0.00  0.00    +0.037 HD
ATOM     12  H   UNL     1       4.601   6.164  17.902  0.00  0.00    +0.047 HD
ATOM     13  H   UNL     1       4.376   5.168  19.364  0.00  0.00    +0.047 HD
ENDROOT
BRANCH   6  14
ATOM     14  C   UNL     1       6.069   4.407  16.435  0.00  0.00    -0.042 A 
ATOM     15  C   UNL     1       7.042   5.407  16.286  0.00  0.00    -0.058 A 
ATOM     16  C   UNL     1       7.622   5.660  15.041  0.00  0.00    -0.061 A 
ATOM     17  C   UNL     1       7.235   4.923  13.925  0.00  0.00    -0.062 A 
ATOM     18  C   UNL     1       6.265   3.932  14.052  0.00  0.00    -0.061 A 
ATOM     19  C   UNL     1       5.685   3.679  15.296  0.00  0.00    -0.058 A 
ATOM     20  H   UNL     1       7.362   6.010  17.131  0.00  0.00    +0.062 HD
ATOM     21  H   UNL     1       8.376   6.436  14.942  0.00  0.00    +0.062 HD
ATOM     22  H   UNL     1       7.689   5.120  12.957  0.00  0.00    +0.062 HD
ATOM     23  H   UNL     1       5.960   3.357  13.182  0.00  0.00    +0.062 HD
ATOM     24  H   UNL     1       4.925   2.903  15.370  0.00  0.00    +0.062 HD
ENDBRANCH   6  14
BRANCH   1  29
ATOM     25  C   UNL     1       1.864   6.908  19.885  0.00  0.00    +0.135 A 
ATOM     26  O   UNL     1       1.816   8.254  20.110  0.00  0.00    -0.440 OA
ATOM     27  C   UNL     1       1.758   8.812  18.859  0.00  0.00    +0.231 A 
ATOM     28  N   UNL     1       1.764   7.924  17.884  0.00  0.00    -0.204 NA
ATOM     29  C   UNL     1       1.827   6.693  18.521  0.00  0.00    +0.167 A 
BRANCH  27  30
ATOM     30  C   UNL     1       1.690  10.337  18.613  0.00  0.00    +0.074 A 
ATOM     31  C   UNL     1       2.566  11.130  17.858  0.00  0.00    +0.062 A 
ATOM     32  N   UNL     1       2.206  12.418  17.859  0.00  0.00    -0.179 NA
ATOM     33  N   UNL     1       1.093  12.434  18.620  0.00  0.00    -0.274 N 
ATOM     34  C   UNL     1       0.741  11.205  19.098  0.00  0.00    +0.037 A 
ATOM     35  H   UNL     1       3.450  10.827  17.310  0.00  0.00    +0.086 HD
ATOM     36  H   UNL     1      -0.127  11.053  19.724  0.00  0.00    +0.083 HD
BRANCH  33  37
ATOM     37  C   UNL     1       0.410  13.683  18.851  0.00  0.00    +0.030 C 
ATOM     38  H   UNL     1       1.085  14.500  18.581  0.00  0.00    +0.047 HD
ATOM     39  H   UNL     1       0.142  13.740  19.909  0.00  0.00    +0.047 HD
ATOM     40  H   UNL     1      -0.492  13.725  18.234  0.00  0.00    +0.047 HD
ENDBRANCH  33  37
ENDBRANCH  27  30
BRANCH  25  41
ATOM     41  C   UNL     1       1.941   6.033  21.070  0.00  0.00    -0.004 C 
ATOM     42  H   UNL     1       1.614   5.019  20.821  0.00  0.00    +0.031 HD
ATOM     43  H   UNL     1       2.967   5.986  21.445  0.00  0.00    +0.031 HD
ATOM     44  H   UNL     1       1.303   6.404  21.879  0.00  0.00    +0.031 HD
ENDBRANCH  25  41
ENDBRANCH   1  29
BRANCH   5  45
ATOM     45  C   UNL     1       4.500   2.068  19.003  0.00  0.00    -0.002 C 
ATOM     46  H   UNL     1       3.721   2.466  19.664  0.00  0.00    +0.043 HD
ATOM     47  H   UNL     1       5.455   2.218  19.517  0.00  0.00    +0.043 HD
BRANCH  45  48
ATOM     48  N   UNL     1       4.299   0.629  18.858  0.00  0.00    -0.330 NA
ATOM     49  H   UNL     1       4.426   0.163  19.756  0.00  0.00    +0.118 HD
ATOM     50  H   UNL     1       4.989   0.230  18.223  0.00  0.00    +0.118 HD
ENDBRANCH  45  48
ENDBRANCH   5  45
TORSDOF 7
ENDMDL
MODEL 18
REMARK VINA RESULT:    -4.676      2.087      7.573
REMARK INTER + INTRA:          -6.909
REMARK INTER:                  -6.935
REMARK INTRA:                   0.026
REMARK UNBOUND:                -0.730
REMARK  Name = 
REMARK  7 active torsions:
REMARK  status: ('A' for Active; 'I' for Inactive)
REMARK    1  A    between atoms: C_1  and  C_2
REMARK    2  A    between atoms: C_4  and  C_5
REMARK    3  A    between atoms: N_8  and  C_9
REMARK    4  A    between atoms: C_12  and  C_13
REMARK    5  A    between atoms: C_17  and  C_18
REMARK    6  A    between atoms: C_18  and  N_19
REMARK    7  A    between atoms: C_20  and  C_21
REMARK                            x       y       z     vdW  Elec       q    Type
REMARK                         _______ _______ _______ _____ _____    ______ ____
ROOT
ATOM      1  C   UNL     1       1.673   8.670  20.058  0.00  0.00    +0.268 C 
ATOM      2  O   UNL     1       2.256   9.017  21.088  0.00  0.00    -0.268 OA
ATOM      3  N   UNL     1       2.187   7.651  19.269  0.00  0.00    -0.295 N 
ATOM      4  C   UNL     1       3.448   7.018  19.607  0.00  0.00    +0.020 C 
ATOM      5  C   UNL     1       3.831   6.185  18.380  0.00  0.00    -0.005 C 
ATOM      6  C   UNL     1       2.457   5.812  17.775  0.00  0.00    +0.005 C 
ATOM      7  C   UNL     1       1.586   7.043  18.088  0.00  0.00    +0.022 C 
ATOM      8  H   UNL     1       3.271   6.375  20.477  0.00  0.00    +0.047 HD
ATOM      9  H   UNL     1       4.191   7.769  19.892  0.00  0.00    +0.047 HD
ATOM     10  H   UNL     1       4.400   5.298  18.687  0.00  0.00    +0.033 HD
ATOM     11  H   UNL     1       2.507   5.704  16.683  0.00  0.00    +0.037 HD
ATOM     12  H   UNL     1       0.533   6.799  18.254  0.00  0.00    +0.047 HD
ATOM     13  H   UNL     1       1.660   7.775  17.276  0.00  0.00    +0.047 HD
ENDROOT
BRANCH   6  14
ATOM     14  C   UNL     1       1.956   4.484  18.325  0.00  0.00    -0.042 A 
ATOM     15  C   UNL     1       1.179   4.376  19.489  0.00  0.00    -0.058 A 
ATOM     16  C   UNL     1       0.764   3.128  19.958  0.00  0.00    -0.061 A 
ATOM     17  C   UNL     1       1.124   1.968  19.277  0.00  0.00    -0.062 A 
ATOM     18  C   UNL     1       1.902   2.054  18.126  0.00  0.00    -0.061 A 
ATOM     19  C   UNL     1       2.317   3.302  17.656  0.00  0.00    -0.058 A 
ATOM     20  H   UNL     1       0.886   5.258  20.053  0.00  0.00    +0.062 HD
ATOM     21  H   UNL     1       0.160   3.061  20.859  0.00  0.00    +0.062 HD
ATOM     22  H   UNL     1       0.799   0.997  19.643  0.00  0.00    +0.062 HD
ATOM     23  H   UNL     1       2.186   1.151  17.593  0.00  0.00    +0.062 HD
ATOM     24  H   UNL     1       2.929   3.344  16.757  0.00  0.00    +0.062 HD
ENDBRANCH   6  14
BRANCH   1  29
ATOM     25  C   UNL     1      -0.414  10.037  20.477  0.00  0.00    +0.135 A 
ATOM     26  O   UNL     1      -1.451  10.518  19.730  0.00  0.00    -0.440 OA
ATOM     27  C   UNL     1      -1.189  10.088  18.455  0.00  0.00    +0.231 A 
ATOM     28  N   UNL     1      -0.079   9.383  18.354  0.00  0.00    -0.204 NA
ATOM     29  C   UNL     1       0.433   9.333  19.642  0.00  0.00    +0.167 A 
BRANCH  27  30
ATOM     30  C   UNL     1      -2.105  10.399  17.249  0.00  0.00    +0.074 A 
ATOM     31  C   UNL     1      -3.104  11.379  17.153  0.00  0.00    +0.062 A 
ATOM     32  N   UNL     1      -3.705  11.369  15.958  0.00  0.00    -0.179 NA
ATOM     33  N   UNL     1      -3.078  10.373  15.298  0.00  0.00    -0.274 N 
ATOM     34  C   UNL     1      -2.106   9.758  16.033  0.00  0.00    +0.037 A 
ATOM     35  H   UNL     1      -3.419  12.098  17.899  0.00  0.00    +0.086 HD
ATOM     36  H   UNL     1      -1.515   8.941  15.645  0.00  0.00    +0.083 HD
BRANCH  33  37
ATOM     37  C   UNL     1      -3.471  10.063  13.945  0.00  0.00    +0.030 C 
ATOM     38  H   UNL     1      -2.576   9.785  13.382  0.00  0.00    +0.047 HD
ATOM     39  H   UNL     1      -3.940  10.948  13.511  0.00  0.00    +0.047 HD
ATOM     40  H   UNL     1      -4.180   9.230  13.954  0.00  0.00    +0.047 HD
ENDBRANCH  33  37
ENDBRANCH  27  30
BRANCH  25  41
ATOM     41  C   UNL     1      -0.422  10.355  21.917  0.00  0.00    -0.004 C 
ATOM     42  H   UNL     1      -0.775  11.377  22.083  0.00  0.00    +0.031 HD
ATOM     43  H   UNL     1      -1.080   9.668  22.457  0.00  0.00    +0.031 HD
ATOM     44  H   UNL     1       0.581  10.269  22.348  0.00  0.00    +0.031 HD
ENDBRANCH  25  41
ENDBRANCH   1  29
BRANCH   5  45
ATOM     45  C   UNL     1       4.678   6.973  17.365  0.00  0.00    -0.002 C 
ATOM     46  H   UNL     1       5.619   7.314  17.813  0.00  0.00    +0.043 HD
ATOM     47  H   UNL     1       4.131   7.873  17.060  0.00  0.00    +0.043 HD
BRANCH  45  48
ATOM     48  N   UNL     1       4.983   6.214  16.157  0.00  0.00    -0.330 NA
ATOM     49  H   UNL     1       5.159   6.846  15.377  0.00  0.00    +0.118 HD
ATOM     50  H   UNL     1       4.192   5.631  15.886  0.00  0.00    +0.118 HD
ENDBRANCH  45  48
ENDBRANCH   5  45
TORSDOF 7
ENDMDL
MODEL 19
REMARK VINA RESULT:    -4.620      4.604      7.103
REMARK INTER + INTRA:          -6.835
REMARK INTER:                  -6.123
REMARK INTRA:                  -0.712
REMARK UNBOUND:                -0.730
REMARK  Name = 
REMARK  7 active torsions:
REMARK  status: ('A' for Active; 'I' for Inactive)
REMARK    1  A    between atoms: C_1  and  C_2
REMARK    2  A    between atoms: C_4  and  C_5
REMARK    3  A    between atoms: N_8  and  C_9
REMARK    4  A    between atoms: C_12  and  C_13
REMARK    5  A    between atoms: C_17  and  C_18
REMARK    6  A    between atoms: C_18  and  N_19
REMARK    7  A    between atoms: C_20  and  C_21
REMARK                            x       y       z     vdW  Elec       q    Type
REMARK                         _______ _______ _______ _____ _____    ______ ____
ROOT
ATOM      1  C   UNL     1      -1.193  10.817  19.471  0.00  0.00    +0.268 C 
ATOM      2  O   UNL     1      -0.938   9.741  20.015  0.00  0.00    -0.268 OA
ATOM      3  N   UNL     1      -0.621  11.993  19.936  0.00  0.00    -0.295 N 
ATOM      4  C   UNL     1       0.237  11.985  21.107  0.00  0.00    +0.020 C 
ATOM      5  C   UNL     1       0.424  13.456  21.489  0.00  0.00    -0.005 C 
ATOM      6  C   UNL     1       0.303  14.183  20.128  0.00  0.00    +0.005 C 
ATOM      7  C   UNL     1      -0.722  13.328  19.359  0.00  0.00    +0.022 C 
ATOM      8  H   UNL     1       1.191  11.533  20.812  0.00  0.00    +0.047 HD
ATOM      9  H   UNL     1      -0.196  11.366  21.897  0.00  0.00    +0.047 HD
ATOM     10  H   UNL     1       1.409  13.606  21.949  0.00  0.00    +0.033 HD
ATOM     11  H   UNL     1      -0.116  15.192  20.240  0.00  0.00    +0.037 HD
ATOM     12  H   UNL     1      -0.551  13.312  18.279  0.00  0.00    +0.047 HD
ATOM     13  H   UNL     1      -1.738  13.688  19.556  0.00  0.00    +0.047 HD
ENDROOT
BRANCH   6  14
ATOM     14  C   UNL     1       1.666  14.344  19.468  0.00  0.00    -0.042 A 
ATOM     15  C   UNL     1       2.004  13.747  18.244  0.00  0.00    -0.058 A 
ATOM     16  C   UNL     1       3.278  13.914  17.695  0.00  0.00    -0.061 A 
ATOM     17  C   UNL     1       4.234  14.674  18.363  0.00  0.00    -0.062 A 
ATOM     18  C   UNL     1       3.920  15.267  19.583  0.00  0.00    -0.061 A 
ATOM     19  C   UNL     1       2.647  15.100  20.132  0.00  0.00    -0.058 A 
ATOM     20  H   UNL     1       1.288  13.139  17.698  0.00  0.00    +0.062 HD
ATOM     21  H   UNL     1       3.523  13.448  16.745  0.00  0.00    +0.062 HD
ATOM     22  H   UNL     1       5.225  14.804  17.933  0.00  0.00    +0.062 HD
ATOM     23  H   UNL     1       4.665  15.858  20.107  0.00  0.00    +0.062 HD
ATOM     24  H   UNL     1       2.425  15.569  21.089  0.00  0.00    +0.062 HD
ENDBRANCH   6  14
BRANCH   1  29
ATOM     25  C   UNL     1      -3.340  11.512  18.328  0.00  0.00    +0.135 A 
ATOM     26  O   UNL     1      -3.895  11.368  17.089  0.00  0.00    -0.440 OA
ATOM     27  C   UNL     1      -2.970  10.651  16.375  0.00  0.00    +0.231 A 
ATOM     28  N   UNL     1      -1.894  10.340  17.070  0.00  0.00    -0.204 NA
ATOM     29  C   UNL     1      -2.112  10.879  18.330  0.00  0.00    +0.167 A 
BRANCH  27  30
ATOM     30  C   UNL     1      -3.169  10.243  14.898  0.00  0.00    +0.074 A 
ATOM     31  C   UNL     1      -2.239   9.645  14.034  0.00  0.00    +0.062 A 
ATOM     32  N   UNL     1      -2.750   9.430  12.817  0.00  0.00    -0.179 NA
ATOM     33  N   UNL     1      -4.011   9.897  12.917  0.00  0.00    -0.274 N 
ATOM     34  C   UNL     1      -4.312  10.397  14.150  0.00  0.00    +0.037 A 
ATOM     35  H   UNL     1      -1.215   9.358  14.238  0.00  0.00    +0.086 HD
ATOM     36  H   UNL     1      -5.282  10.809  14.388  0.00  0.00    +0.083 HD
BRANCH  33  37
ATOM     37  C   UNL     1      -4.884   9.830  11.770  0.00  0.00    +0.030 C 
ATOM     38  H   UNL     1      -4.394   9.231  10.998  0.00  0.00    +0.047 HD
ATOM     39  H   UNL     1      -5.062  10.847  11.412  0.00  0.00    +0.047 HD
ATOM     40  H   UNL     1      -5.830   9.365  12.060  0.00  0.00    +0.047 HD
ENDBRANCH  33  37
ENDBRANCH  27  30
BRANCH  25  41
ATOM     41  C   UNL     1      -4.120  12.264  19.329  0.00  0.00    -0.004 C 
ATOM     42  H   UNL     1      -4.309  13.284  18.981  0.00  0.00    +0.031 HD
ATOM     43  H   UNL     1      -5.082  11.775  19.511  0.00  0.00    +0.031 HD
ATOM     44  H   UNL     1      -3.587  12.325  20.283  0.00  0.00    +0.031 HD
ENDBRANCH  25  41
ENDBRANCH   1  29
BRANCH   5  45
ATOM     45  C   UNL     1      -0.649  13.958  22.471  0.00  0.00    -0.002 C 
ATOM     46  H   UNL     1      -1.516  14.364  21.937  0.00  0.00    +0.043 HD
ATOM     47  H   UNL     1      -0.236  14.777  23.070  0.00  0.00    +0.043 HD
BRANCH  45  48
ATOM     48  N   UNL     1      -1.111  12.927  23.395  0.00  0.00    -0.330 NA
ATOM     49  H   UNL     1      -0.320  12.506  23.880  0.00  0.00    +0.118 HD
ATOM     50  H   UNL     1      -1.579  12.174  22.892  0.00  0.00    +0.118 HD
ENDBRANCH  45  48
ENDBRANCH   5  45
TORSDOF 7
ENDMDL
MODEL 20
REMARK VINA RESULT:    -4.283      2.774      4.860
REMARK INTER + INTRA:          -6.390
REMARK INTER:                  -7.791
REMARK INTRA:                   1.401
REMARK UNBOUND:                -0.730
REMARK  Name = 
REMARK  7 active torsions:
REMARK  status: ('A' for Active; 'I' for Inactive)
REMARK    1  A    between atoms: C_1  and  C_2
REMARK    2  A    between atoms: C_4  and  C_5
REMARK    3  A    between atoms: N_8  and  C_9
REMARK    4  A    between atoms: C_12  and  C_13
REMARK    5  A    between atoms: C_17  and  C_18
REMARK    6  A    between atoms: C_18  and  N_19
REMARK    7  A    between atoms: C_20  and  C_21
REMARK                            x       y       z     vdW  Elec       q    Type
REMARK                         _______ _______ _______ _____ _____    ______ ____
ROOT
ATOM      1  C   UNL     1       0.909   9.557  20.650  0.00  0.00    +0.268 C 
ATOM      2  O   UNL     1       0.425   9.313  21.757  0.00  0.00    -0.268 OA
ATOM      3  N   UNL     1       0.871  10.845  20.134  0.00  0.00    -0.295 N 
ATOM      4  C   UNL     1       0.207  11.913  20.859  0.00  0.00    +0.020 C 
ATOM      5  C   UNL     1       0.102  13.077  19.871  0.00  0.00    -0.005 C 
ATOM      6  C   UNL     1       1.337  12.868  18.961  0.00  0.00    +0.005 C 
ATOM      7  C   UNL     1       1.479  11.336  18.904  0.00  0.00    +0.022 C 
ATOM      8  H   UNL     1       0.844  12.177  21.711  0.00  0.00    +0.047 HD
ATOM      9  H   UNL     1      -0.754  11.570  21.254  0.00  0.00    +0.047 HD
ATOM     10  H   UNL     1       0.144  14.035  20.407  0.00  0.00    +0.033 HD
ATOM     11  H   UNL     1       1.157  13.229  17.940  0.00  0.00    +0.037 HD
ATOM     12  H   UNL     1       2.515  10.999  18.806  0.00  0.00    +0.047 HD
ATOM     13  H   UNL     1       0.892  10.932  18.071  0.00  0.00    +0.047 HD
ENDROOT
BRANCH   6  14
ATOM     14  C   UNL     1       2.545  13.631  19.490  0.00  0.00    -0.042 A 
ATOM     15  C   UNL     1       3.511  14.214  18.657  0.00  0.00    -0.058 A 
ATOM     16  C   UNL     1       4.610  14.886  19.199  0.00  0.00    -0.061 A 
ATOM     17  C   UNL     1       4.763  14.980  20.579  0.00  0.00    -0.062 A 
ATOM     18  C   UNL     1       3.818  14.399  21.422  0.00  0.00    -0.061 A 
ATOM     19  C   UNL     1       2.721  13.727  20.881  0.00  0.00    -0.058 A 
ATOM     20  H   UNL     1       3.432  14.154  17.575  0.00  0.00    +0.062 HD
ATOM     21  H   UNL     1       5.348  15.335  18.540  0.00  0.00    +0.062 HD
ATOM     22  H   UNL     1       5.618  15.504  20.999  0.00  0.00    +0.062 HD
ATOM     23  H   UNL     1       3.937  14.468  22.500  0.00  0.00    +0.062 HD
ATOM     24  H   UNL     1       1.997  13.277  21.559  0.00  0.00    +0.062 HD
ENDBRANCH   6  14
BRANCH   1  29
ATOM     25  C   UNL     1       1.434   8.369  18.479  0.00  0.00    +0.135 A 
ATOM     26  O   UNL     1       2.146   7.268  18.098  0.00  0.00    -0.440 OA
ATOM     27  C   UNL     1       2.654   6.762  19.266  0.00  0.00    +0.231 A 
ATOM     28  N   UNL     1       2.314   7.458  20.334  0.00  0.00    -0.204 NA
ATOM     29  C   UNL     1       1.526   8.492  19.852  0.00  0.00    +0.167 A 
BRANCH  27  30
ATOM     30  C   UNL     1       3.540   5.497  19.329  0.00  0.00    +0.074 A 
ATOM     31  C   UNL     1       4.885   5.365  18.953  0.00  0.00    +0.062 A 
ATOM     32  N   UNL     1       5.340   4.121  19.141  0.00  0.00    -0.179 NA
ATOM     33  N   UNL     1       4.271   3.467  19.639  0.00  0.00    -0.274 N 
ATOM     34  C   UNL     1       3.163   4.252  19.771  0.00  0.00    +0.037 A 
ATOM     35  H   UNL     1       5.551   6.118  18.551  0.00  0.00    +0.086 HD
ATOM     36  H   UNL     1       2.226   3.873  20.156  0.00  0.00    +0.083 HD
BRANCH  33  37
ATOM     37  C   UNL     1       4.388   2.067  19.970  0.00  0.00    +0.030 C 
ATOM     38  H   UNL     1       4.039   1.481  19.115  0.00  0.00    +0.047 HD
ATOM     39  H   UNL     1       3.773   1.868  20.850  0.00  0.00    +0.047 HD
ATOM     40  H   UNL     1       5.434   1.830  20.184  0.00  0.00    +0.047 HD
ENDBRANCH  33  37
ENDBRANCH  27  30
BRANCH  25  41
ATOM     41  C   UNL     1       0.766   9.137  17.412  0.00  0.00    -0.004 C 
ATOM     42  H   UNL     1       0.491   8.481  16.580  0.00  0.00    +0.031 HD
ATOM     43  H   UNL     1      -0.142   9.613  17.794  0.00  0.00    +0.031 HD
ATOM     44  H   UNL     1       1.419   9.923  17.020  0.00  0.00    +0.031 HD
ENDBRANCH  25  41
ENDBRANCH   1  29
BRANCH   5  45
ATOM     45  C   UNL     1      -1.195  13.043  19.044  0.00  0.00    -0.002 C 
ATOM     46  H   UNL     1      -1.829  13.910  19.264  0.00  0.00    +0.043 HD
ATOM     47  H   UNL     1      -1.773  12.154  19.315  0.00  0.00    +0.043 HD
BRANCH  45  48
ATOM     48  N   UNL     1      -0.959  12.992  17.604  0.00  0.00    -0.330 NA
ATOM     49  H   UNL     1      -0.674  13.908  17.260  0.00  0.00    +0.118 HD
ATOM     50  H   UNL     1      -1.815  12.748  17.107  0.00  0.00    +0.118 HD
ENDBRANCH  45  48
ENDBRANCH   5  45
TORSDOF 7
ENDMDL
MODEL 21
REMARK VINA RESULT:    -4.252      2.281      7.862
REMARK INTER + INTRA:          -6.349
REMARK INTER:                  -5.532
REMARK INTRA:                  -0.817
REMARK UNBOUND:                -0.730
REMARK  Name = 
REMARK  7 active torsions:
REMARK  status: ('A' for Active; 'I' for Inactive)
REMARK    1  A    between atoms: C_1  and  C_2
REMARK    2  A    between atoms: C_4  and  C_5
REMARK    3  A    between atoms: N_8  and  C_9
REMARK    4  A    between atoms: C_12  and  C_13
REMARK    5  A    between atoms: C_17  and  C_18
REMARK    6  A    between atoms: C_18  and  N_19
REMARK    7  A    between atoms: C_20  and  C_21
REMARK                            x       y       z     vdW  Elec       q    Type
REMARK                         _______ _______ _______ _____ _____    ______ ____
ROOT
ATOM      1  C   UNL     1       1.919   9.066  18.826  0.00  0.00    +0.268 C 
ATOM      2  O   UNL     1       2.705   9.852  19.358  0.00  0.00    -0.268 OA
ATOM      3  N   UNL     1       2.348   7.811  18.417  0.00  0.00    -0.295 N 
ATOM      4  C   UNL     1       3.740   7.426  18.552  0.00  0.00    +0.020 C 
ATOM      5  C   UNL     1       3.891   6.137  17.738  0.00  0.00    -0.005 C 
ATOM      6  C   UNL     1       2.483   5.502  17.837  0.00  0.00    +0.005 C 
ATOM      7  C   UNL     1       1.545   6.723  17.873  0.00  0.00    +0.022 C 
ATOM      8  H   UNL     1       3.929   7.241  19.616  0.00  0.00    +0.047 HD
ATOM      9  H   UNL     1       4.398   8.240  18.233  0.00  0.00    +0.047 HD
ATOM     10  H   UNL     1       4.663   5.496  18.182  0.00  0.00    +0.033 HD
ATOM     11  H   UNL     1       2.237   4.914  16.943  0.00  0.00    +0.037 HD
ATOM     12  H   UNL     1       0.639   6.558  18.463  0.00  0.00    +0.047 HD
ATOM     13  H   UNL     1       1.260   7.011  16.854  0.00  0.00    +0.047 HD
ENDROOT
BRANCH   6  14
ATOM     14  C   UNL     1       2.389   4.555  19.026  0.00  0.00    -0.042 A 
ATOM     15  C   UNL     1       1.259   4.466  19.852  0.00  0.00    -0.058 A 
ATOM     16  C   UNL     1       1.237   3.591  20.941  0.00  0.00    -0.061 A 
ATOM     17  C   UNL     1       2.345   2.797  21.225  0.00  0.00    -0.062 A 
ATOM     18  C   UNL     1       3.479   2.878  20.421  0.00  0.00    -0.061 A 
ATOM     19  C   UNL     1       3.502   3.752  19.333  0.00  0.00    -0.058 A 
ATOM     20  H   UNL     1       0.379   5.076  19.669  0.00  0.00    +0.062 HD
ATOM     21  H   UNL     1       0.353   3.532  21.570  0.00  0.00    +0.062 HD
ATOM     22  H   UNL     1       2.326   2.117  22.073  0.00  0.00    +0.062 HD
ATOM     23  H   UNL     1       4.346   2.262  20.642  0.00  0.00    +0.062 HD
ATOM     24  H   UNL     1       4.401   3.802  18.721  0.00  0.00    +0.062 HD
ENDBRANCH   6  14
BRANCH   1  29
ATOM     25  C   UNL     1      -0.398   9.726  19.601  0.00  0.00    +0.135 A 
ATOM     26  O   UNL     1      -1.586  10.048  19.012  0.00  0.00    -0.440 OA
ATOM     27  C   UNL     1      -1.343   9.953  17.666  0.00  0.00    +0.231 A 
ATOM     28  N   UNL     1      -0.106   9.599  17.377  0.00  0.00    -0.204 NA
ATOM     29  C   UNL     1       0.519   9.443  18.606  0.00  0.00    +0.167 A 
BRANCH  27  30
ATOM     30  C   UNL     1      -2.415  10.233  16.588  0.00  0.00    +0.074 A 
ATOM     31  C   UNL     1      -3.518  11.096  16.670  0.00  0.00    +0.062 A 
ATOM     32  N   UNL     1      -4.243  11.093  15.546  0.00  0.00    -0.179 NA
ATOM     33  N   UNL     1      -3.590  10.221  14.751  0.00  0.00    -0.274 N 
ATOM     34  C   UNL     1      -2.482   9.676  15.333  0.00  0.00    +0.037 A 
ATOM     35  H   UNL     1      -3.824  11.724  17.497  0.00  0.00    +0.086 HD
ATOM     36  H   UNL     1      -1.854   8.959  14.825  0.00  0.00    +0.083 HD
BRANCH  33  37
ATOM     37  C   UNL     1      -4.095   9.955  13.426  0.00  0.00    +0.030 C 
ATOM     38  H   UNL     1      -4.228   8.875  13.319  0.00  0.00    +0.047 HD
ATOM     39  H   UNL     1      -3.369  10.327  12.700  0.00  0.00    +0.047 HD
ATOM     40  H   UNL     1      -5.052  10.465  13.292  0.00  0.00    +0.047 HD
ENDBRANCH  33  37
ENDBRANCH  27  30
BRANCH  25  41
ATOM     41  C   UNL     1      -0.352   9.750  21.075  0.00  0.00    -0.004 C 
ATOM     42  H   UNL     1      -0.089   8.763  21.467  0.00  0.00    +0.031 HD
ATOM     43  H   UNL     1       0.392  10.472  21.423  0.00  0.00    +0.031 HD
ATOM     44  H   UNL     1      -1.321  10.034  21.498  0.00  0.00    +0.031 HD
ENDBRANCH  25  41
ENDBRANCH   1  29
BRANCH   5  45
ATOM     45  C   UNL     1       4.267   6.400  16.270  0.00  0.00    -0.002 C 
ATOM     46  H   UNL     1       3.715   7.256  15.866  0.00  0.00    +0.043 HD
ATOM     47  H   UNL     1       3.987   5.531  15.664  0.00  0.00    +0.043 HD
BRANCH  45  48
ATOM     48  N   UNL     1       5.695   6.631  16.073  0.00  0.00    -0.330 NA
ATOM     49  H   UNL     1       6.038   6.079  15.289  0.00  0.00    +0.118 HD
ATOM     50  H   UNL     1       6.225   6.334  16.892  0.00  0.00    +0.118 HD
ENDBRANCH  45  48
ENDBRANCH   5  45
TORSDOF 7
ENDMDL
MODEL 22
REMARK VINA RESULT:    -4.240      2.570      4.139
REMARK INTER + INTRA:          -6.334
REMARK INTER:                  -5.395
REMARK INTRA:                  -0.939
REMARK UNBOUND:                -0.730
REMARK  Name = 
REMARK  7 active torsions:
REMARK  status: ('A' for Active; 'I' for Inactive)
REMARK    1  A    between atoms: C_1  and  C_2
REMARK    2  A    between atoms: C_4  and  C_5
REMARK    3  A    between atoms: N_8  and  C_9
REMARK    4  A    between atoms: C_12  and  C_13
REMARK    5  A    between atoms: C_17  and  C_18
REMARK    6  A    between atoms: C_18  and  N_19
REMARK    7  A    between atoms: C_20  and  C_21
REMARK                            x       y       z     vdW  Elec       q    Type
REMARK                         _______ _______ _______ _____ _____    ______ ____
ROOT
ATOM      1  C   UNL     1       1.993  11.843  18.157  0.00  0.00    +0.268 C 
ATOM      2  O   UNL     1       2.396  12.496  17.192  0.00  0.00    -0.268 OA
ATOM      3  N   UNL     1       1.630  12.481  19.335  0.00  0.00    -0.295 N 
ATOM      4  C   UNL     1       1.776  13.918  19.473  0.00  0.00    +0.020 C 
ATOM      5  C   UNL     1       1.575  14.211  20.963  0.00  0.00    -0.005 C 
ATOM      6  C   UNL     1       0.616  13.081  21.408  0.00  0.00    +0.005 C 
ATOM      7  C   UNL     1       1.039  11.889  20.529  0.00  0.00    +0.022 C 
ATOM      8  H   UNL     1       0.989  14.388  18.872  0.00  0.00    +0.047 HD
ATOM      9  H   UNL     1       2.741  14.247  19.076  0.00  0.00    +0.047 HD
ATOM     10  H   UNL     1       1.130  15.205  21.097  0.00  0.00    +0.033 HD
ATOM     11  H   UNL     1       0.776  12.799  22.457  0.00  0.00    +0.037 HD
ATOM     12  H   UNL     1       0.211  11.220  20.277  0.00  0.00    +0.047 HD
ATOM     13  H   UNL     1       1.827  11.313  21.027  0.00  0.00    +0.047 HD
ENDROOT
BRANCH   6  14
ATOM     14  C   UNL     1      -0.839  13.515  21.287  0.00  0.00    -0.042 A 
ATOM     15  C   UNL     1      -1.329  14.719  21.816  0.00  0.00    -0.058 A 
ATOM     16  C   UNL     1      -2.678  15.058  21.692  0.00  0.00    -0.061 A 
ATOM     17  C   UNL     1      -3.560  14.197  21.044  0.00  0.00    -0.062 A 
ATOM     18  C   UNL     1      -3.094  12.994  20.521  0.00  0.00    -0.061 A 
ATOM     19  C   UNL     1      -1.745  12.655  20.645  0.00  0.00    -0.058 A 
ATOM     20  H   UNL     1      -0.673  15.413  22.337  0.00  0.00    +0.062 HD
ATOM     21  H   UNL     1      -3.041  15.995  22.104  0.00  0.00    +0.062 HD
ATOM     22  H   UNL     1      -4.610  14.462  20.948  0.00  0.00    +0.062 HD
ATOM     23  H   UNL     1      -3.780  12.318  20.017  0.00  0.00    +0.062 HD
ATOM     24  H   UNL     1      -1.404  11.707  20.232  0.00  0.00    +0.062 HD
ENDBRANCH   6  14
BRANCH   1  29
ATOM     25  C   UNL     1       0.724   9.664  17.959  0.00  0.00    +0.135 A 
ATOM     26  O   UNL     1       1.036   8.335  17.910  0.00  0.00    -0.440 OA
ATOM     27  C   UNL     1       2.403   8.296  18.002  0.00  0.00    +0.231 A 
ATOM     28  N   UNL     1       2.959   9.488  18.105  0.00  0.00    -0.204 NA
ATOM     29  C   UNL     1       1.898  10.381  18.084  0.00  0.00    +0.167 A 
BRANCH  27  30
ATOM     30  C   UNL     1       3.217   6.983  17.988  0.00  0.00    +0.074 A 
ATOM     31  C   UNL     1       2.939   5.786  18.666  0.00  0.00    +0.062 A 
ATOM     32  N   UNL     1       3.861   4.847  18.426  0.00  0.00    -0.179 NA
ATOM     33  N   UNL     1       4.726   5.459  17.592  0.00  0.00    -0.274 N 
ATOM     34  C   UNL     1       4.382   6.746  17.297  0.00  0.00    +0.037 A 
ATOM     35  H   UNL     1       2.108   5.559  19.321  0.00  0.00    +0.086 HD
ATOM     36  H   UNL     1       4.974   7.369  16.643  0.00  0.00    +0.083 HD
BRANCH  33  37
ATOM     37  C   UNL     1       5.877   4.736  17.110  0.00  0.00    +0.030 C 
ATOM     38  H   UNL     1       6.086   3.919  17.806  0.00  0.00    +0.047 HD
ATOM     39  H   UNL     1       6.723   5.426  17.062  0.00  0.00    +0.047 HD
ATOM     40  H   UNL     1       5.665   4.335  16.116  0.00  0.00    +0.047 HD
ENDBRANCH  33  37
ENDBRANCH  27  30
BRANCH  25  41
ATOM     41  C   UNL     1      -0.704  10.020  17.873  0.00  0.00    -0.004 C 
ATOM     42  H   UNL     1      -1.223   9.759  18.800  0.00  0.00    +0.031 HD
ATOM     43  H   UNL     1      -0.821  11.094  17.700  0.00  0.00    +0.031 HD
ATOM     44  H   UNL     1      -1.197   9.491  17.051  0.00  0.00    +0.031 HD
ENDBRANCH  25  41
ENDBRANCH   1  29
BRANCH   5  45
ATOM     45  C   UNL     1       2.888  14.157  21.763  0.00  0.00    -0.002 C 
ATOM     46  H   UNL     1       3.027  13.175  22.232  0.00  0.00    +0.043 HD
ATOM     47  H   UNL     1       2.846  14.890  22.576  0.00  0.00    +0.043 HD
BRANCH  45  48
ATOM     48  N   UNL     1       4.067  14.460  20.958  0.00  0.00    -0.330 NA
ATOM     49  H   UNL     1       4.411  15.395  21.173  0.00  0.00    +0.118 HD
ATOM     50  H   UNL     1       3.837  14.456  19.965  0.00  0.00    +0.118 HD
ENDBRANCH  45  48
ENDBRANCH   5  45
TORSDOF 7
ENDMDL
MODEL 23
REMARK VINA RESULT:    -4.232      4.596      7.851
REMARK INTER + INTRA:          -6.322
REMARK INTER:                  -6.170
REMARK INTRA:                  -0.153
REMARK UNBOUND:                -0.730
REMARK  Name = 
REMARK  7 active torsions:
REMARK  status: ('A' for Active; 'I' for Inactive)
REMARK    1  A    between atoms: C_1  and  C_2
REMARK    2  A    between atoms: C_4  and  C_5
REMARK    3  A    between atoms: N_8  and  C_9
REMARK    4  A    between atoms: C_12  and  C_13
REMARK    5  A    between atoms: C_17  and  C_18
REMARK    6  A    between atoms: C_18  and  N_19
REMARK    7  A    between atoms: C_20  and  C_21
REMARK                            x       y       z     vdW  Elec       q    Type
REMARK                         _______ _______ _______ _____ _____    ______ ____
ROOT
ATOM      1  C   UNL     1       0.974  12.580  19.936  0.00  0.00    +0.268 C 
ATOM      2  O   UNL     1       0.049  13.066  19.282  0.00  0.00    -0.268 OA
ATOM      3  N   UNL     1       0.840  11.329  20.521  0.00  0.00    -0.295 N 
ATOM      4  C   UNL     1      -0.411  10.598  20.427  0.00  0.00    +0.020 C 
ATOM      5  C   UNL     1      -0.286   9.441  21.422  0.00  0.00    -0.005 C 
ATOM      6  C   UNL     1       1.236   9.163  21.437  0.00  0.00    +0.005 C 
ATOM      7  C   UNL     1       1.853  10.559  21.233  0.00  0.00    +0.022 C 
ATOM      8  H   UNL     1      -0.497  10.225  19.400  0.00  0.00    +0.047 HD
ATOM      9  H   UNL     1      -1.260  11.263  20.613  0.00  0.00    +0.047 HD
ATOM     10  H   UNL     1      -0.859   8.573  21.068  0.00  0.00    +0.033 HD
ATOM     11  H   UNL     1       1.572   8.786  22.412  0.00  0.00    +0.037 HD
ATOM     12  H   UNL     1       2.800  10.539  20.685  0.00  0.00    +0.047 HD
ATOM     13  H   UNL     1       2.009  11.049  22.200  0.00  0.00    +0.047 HD
ENDROOT
BRANCH   6  14
ATOM     14  C   UNL     1       1.613   8.109  20.404  0.00  0.00    -0.042 A 
ATOM     15  C   UNL     1       1.651   6.735  20.686  0.00  0.00    -0.058 A 
ATOM     16  C   UNL     1       2.023   5.815  19.703  0.00  0.00    -0.061 A 
ATOM     17  C   UNL     1       2.369   6.252  18.428  0.00  0.00    -0.062 A 
ATOM     18  C   UNL     1       2.346   7.613  18.132  0.00  0.00    -0.061 A 
ATOM     19  C   UNL     1       1.974   8.533  19.114  0.00  0.00    -0.058 A 
ATOM     20  H   UNL     1       1.398   6.356  21.672  0.00  0.00    +0.062 HD
ATOM     21  H   UNL     1       2.045   4.753  19.936  0.00  0.00    +0.062 HD
ATOM     22  H   UNL     1       2.657   5.534  17.664  0.00  0.00    +0.062 HD
ATOM     23  H   UNL     1       2.618   7.958  17.139  0.00  0.00    +0.062 HD
ATOM     24  H   UNL     1       1.967   9.592  18.862  0.00  0.00    +0.062 HD
ENDBRANCH   6  14
BRANCH   1  29
ATOM     25  C   UNL     1       2.883  14.032  19.131  0.00  0.00    +0.135 A 
ATOM     26  O   UNL     1       4.004  14.588  19.676  0.00  0.00    -0.440 OA
ATOM     27  C   UNL     1       3.986  14.190  20.988  0.00  0.00    +0.231 A 
ATOM     28  N   UNL     1       2.950  13.435  21.296  0.00  0.00    -0.204 NA
ATOM     29  C   UNL     1       2.229  13.316  20.116  0.00  0.00    +0.167 A 
BRANCH  27  30
ATOM     30  C   UNL     1       5.076  14.585  22.010  0.00  0.00    +0.074 A 
ATOM     31  C   UNL     1       4.905  14.998  23.340  0.00  0.00    +0.062 A 
ATOM     32  N   UNL     1       6.071  15.264  23.938  0.00  0.00    -0.179 NA
ATOM     33  N   UNL     1       6.983  15.018  22.975  0.00  0.00    -0.274 N 
ATOM     34  C   UNL     1       6.433  14.606  21.796  0.00  0.00    +0.037 A 
ATOM     35  H   UNL     1       3.983  15.115  23.897  0.00  0.00    +0.086 HD
ATOM     36  H   UNL     1       7.033  14.370  20.928  0.00  0.00    +0.083 HD
BRANCH  33  37
ATOM     37  C   UNL     1       8.384  15.202  23.263  0.00  0.00    +0.030 C 
ATOM     38  H   UNL     1       8.964  14.656  22.514  0.00  0.00    +0.047 HD
ATOM     39  H   UNL     1       8.585  14.813  24.264  0.00  0.00    +0.047 HD
ATOM     40  H   UNL     1       8.627  16.267  23.221  0.00  0.00    +0.047 HD
ENDBRANCH  33  37
ENDBRANCH  27  30
BRANCH  25  41
ATOM     41  C   UNL     1       2.629  14.299  17.703  0.00  0.00    -0.004 C 
ATOM     42  H   UNL     1       1.721  14.898  17.580  0.00  0.00    +0.031 HD
ATOM     43  H   UNL     1       3.468  14.844  17.260  0.00  0.00    +0.031 HD
ATOM     44  H   UNL     1       2.497  13.369  17.142  0.00  0.00    +0.031 HD
ENDBRANCH  25  41
ENDBRANCH   1  29
BRANCH   5  45
ATOM     45  C   UNL     1      -0.787   9.808  22.830  0.00  0.00    -0.002 C 
ATOM     46  H   UNL     1      -1.780   9.384  23.020  0.00  0.00    +0.043 HD
ATOM     47  H   UNL     1      -0.890  10.896  22.904  0.00  0.00    +0.043 HD
BRANCH  45  48
ATOM     48  N   UNL     1       0.116   9.378  23.893  0.00  0.00    -0.330 NA
ATOM     49  H   UNL     1       0.064  10.020  24.682  0.00  0.00    +0.118 HD
ATOM     50  H   UNL     1       1.083   9.389  23.572  0.00  0.00    +0.118 HD
ENDBRANCH  45  48
ENDBRANCH   5  45
TORSDOF 7
ENDMDL
MODEL 24
REMARK VINA RESULT:    -4.231      3.830      7.176
REMARK INTER + INTRA:          -6.322
REMARK INTER:                  -5.539
REMARK INTRA:                  -0.783
REMARK UNBOUND:                -0.730
REMARK  Name = 
REMARK  7 active torsions:
REMARK  status: ('A' for Active; 'I' for Inactive)
REMARK    1  A    between atoms: C_1  and  C_2
REMARK    2  A    between atoms: C_4  and  C_5
REMARK    3  A    between atoms: N_8  and  C_9
REMARK    4  A    between atoms: C_12  and  C_13
REMARK    5  A    between atoms: C_17  and  C_18
REMARK    6  A    between atoms: C_18  and  N_19
REMARK    7  A    between atoms: C_20  and  C_21
REMARK                            x       y       z     vdW  Elec       q    Type
REMARK                         _______ _______ _______ _____ _____    ______ ____
ROOT
ATOM      1  C   UNL     1      -0.275  11.213  20.626  0.00  0.00    +0.268 C 
ATOM      2  O   UNL     1      -0.305  10.448  21.592  0.00  0.00    -0.268 OA
ATOM      3  N   UNL     1       0.052  12.551  20.799  0.00  0.00    -0.295 N 
ATOM      4  C   UNL     1       0.303  13.085  22.125  0.00  0.00    +0.020 C 
ATOM      5  C   UNL     1       0.326  14.607  21.957  0.00  0.00    -0.005 C 
ATOM      6  C   UNL     1       0.832  14.785  20.505  0.00  0.00    +0.005 C 
ATOM      7  C   UNL     1       0.239  13.568  19.771  0.00  0.00    +0.022 C 
ATOM      8  H   UNL     1       1.281  12.713  22.450  0.00  0.00    +0.047 HD
ATOM      9  H   UNL     1      -0.446  12.722  22.835  0.00  0.00    +0.047 HD
ATOM     10  H   UNL     1       1.008  15.060  22.688  0.00  0.00    +0.033 HD
ATOM     11  H   UNL     1       0.423  15.691  20.038  0.00  0.00    +0.037 HD
ATOM     12  H   UNL     1       0.870  13.203  18.956  0.00  0.00    +0.047 HD
ATOM     13  H   UNL     1      -0.754  13.811  19.375  0.00  0.00    +0.047 HD
ENDROOT
BRANCH   6  14
ATOM     14  C   UNL     1       2.348  14.915  20.463  0.00  0.00    -0.042 A 
ATOM     15  C   UNL     1       3.100  14.791  19.285  0.00  0.00    -0.058 A 
ATOM     16  C   UNL     1       4.492  14.900  19.310  0.00  0.00    -0.061 A 
ATOM     17  C   UNL     1       5.155  15.130  20.512  0.00  0.00    -0.062 A 
ATOM     18  C   UNL     1       4.427  15.248  21.693  0.00  0.00    -0.061 A 
ATOM     19  C   UNL     1       3.035  15.138  21.669  0.00  0.00    -0.058 A 
ATOM     20  H   UNL     1       2.619  14.601  18.329  0.00  0.00    +0.062 HD
ATOM     21  H   UNL     1       5.059  14.804  18.388  0.00  0.00    +0.062 HD
ATOM     22  H   UNL     1       6.239  15.217  20.530  0.00  0.00    +0.062 HD
ATOM     23  H   UNL     1       4.942  15.425  22.634  0.00  0.00    +0.062 HD
ATOM     24  H   UNL     1       2.487  15.229  22.605  0.00  0.00    +0.062 HD
ENDBRANCH   6  14
BRANCH   1  29
ATOM     25  C   UNL     1       0.190   9.865  18.536  0.00  0.00    +0.135 A 
ATOM     26  O   UNL     1      -0.435   9.635  17.345  0.00  0.00    -0.440 OA
ATOM     27  C   UNL     1      -1.590  10.371  17.412  0.00  0.00    +0.231 A 
ATOM     28  N   UNL     1      -1.727  11.036  18.542  0.00  0.00    -0.204 NA
ATOM     29  C   UNL     1      -0.592  10.729  19.279  0.00  0.00    +0.167 A 
BRANCH  27  30
ATOM     30  C   UNL     1      -2.632  10.420  16.271  0.00  0.00    +0.074 A 
ATOM     31  C   UNL     1      -3.886  11.048  16.273  0.00  0.00    +0.062 A 
ATOM     32  N   UNL     1      -4.530  10.888  15.112  0.00  0.00    -0.179 NA
ATOM     33  N   UNL     1      -3.674  10.153  14.375  0.00  0.00    -0.274 N 
ATOM     34  C   UNL     1      -2.516   9.845  15.028  0.00  0.00    +0.037 A 
ATOM     35  H   UNL     1      -4.357  11.614  17.068  0.00  0.00    +0.086 HD
ATOM     36  H   UNL     1      -1.730   9.260  14.572  0.00  0.00    +0.083 HD
BRANCH  33  37
ATOM     37  C   UNL     1      -4.039   9.775  13.031  0.00  0.00    +0.030 C 
ATOM     38  H   UNL     1      -3.885  10.638  12.377  0.00  0.00    +0.047 HD
ATOM     39  H   UNL     1      -5.089   9.474  13.030  0.00  0.00    +0.047 HD
ATOM     40  H   UNL     1      -3.412   8.942  12.704  0.00  0.00    +0.047 HD
ENDBRANCH  33  37
ENDBRANCH  27  30
BRANCH  25  41
ATOM     41  C   UNL     1       1.480   9.186  18.758  0.00  0.00    -0.004 C 
ATOM     42  H   UNL     1       2.262   9.914  18.996  0.00  0.00    +0.031 HD
ATOM     43  H   UNL     1       1.402   8.477  19.588  0.00  0.00    +0.031 HD
ATOM     44  H   UNL     1       1.795   8.630  17.869  0.00  0.00    +0.031 HD
ENDBRANCH  25  41
ENDBRANCH   1  29
BRANCH   5  45
ATOM     45  C   UNL     1      -1.063  15.247  22.131  0.00  0.00    -0.002 C 
ATOM     46  H   UNL     1      -1.709  15.032  21.272  0.00  0.00    +0.043 HD
ATOM     47  H   UNL     1      -0.955  16.336  22.179  0.00  0.00    +0.043 HD
BRANCH  45  48
ATOM     48  N   UNL     1      -1.746  14.819  23.348  0.00  0.00    -0.330 NA
ATOM     49  H   UNL     1      -2.273  15.594  23.749  0.00  0.00    +0.118 HD
ATOM     50  H   UNL     1      -1.073  14.529  24.057  0.00  0.00    +0.118 HD
ENDBRANCH  45  48
ENDBRANCH   5  45
TORSDOF 7
ENDMDL
MODEL 25
REMARK VINA RESULT:    -4.066      3.180      5.256
REMARK INTER + INTRA:          -6.103
REMARK INTER:                  -6.779
REMARK INTRA:                   0.676
REMARK UNBOUND:                -0.730
REMARK  Name = 
REMARK  7 active torsions:
REMARK  status: ('A' for Active; 'I' for Inactive)
REMARK    1  A    between atoms: C_1  and  C_2
REMARK    2  A    between atoms: C_4  and  C_5
REMARK    3  A    between atoms: N_8  and  C_9
REMARK    4  A    between atoms: C_12  and  C_13
REMARK    5  A    between atoms: C_17  and  C_18
REMARK    6  A    between atoms: C_18  and  N_19
REMARK    7  A    between atoms: C_20  and  C_21
REMARK                            x       y       z     vdW  Elec       q    Type
REMARK                         _______ _______ _______ _____ _____    ______ ____
ROOT
ATOM      1  C   UNL     1       0.398  11.387  20.989  0.00  0.00    +0.268 C 
ATOM      2  O   UNL     1      -0.383  11.814  21.842  0.00  0.00    -0.268 OA
ATOM      3  N   UNL     1       0.893  12.230  20.004  0.00  0.00    -0.295 N 
ATOM      4  C   UNL     1       0.452  13.611  19.923  0.00  0.00    +0.020 C 
ATOM      5  C   UNL     1       0.957  14.124  18.571  0.00  0.00    -0.005 C 
ATOM      6  C   UNL     1       2.238  13.286  18.343  0.00  0.00    +0.005 C 
ATOM      7  C   UNL     1       1.896  11.931  18.989  0.00  0.00    +0.022 C 
ATOM      8  H   UNL     1       0.922  14.155  20.749  0.00  0.00    +0.047 HD
ATOM      9  H   UNL     1      -0.632  13.677  20.053  0.00  0.00    +0.047 HD
ATOM     10  H   UNL     1       1.174  15.199  18.631  0.00  0.00    +0.033 HD
ATOM     11  H   UNL     1       2.427  13.112  17.275  0.00  0.00    +0.037 HD
ATOM     12  H   UNL     1       2.764  11.424  19.420  0.00  0.00    +0.047 HD
ATOM     13  H   UNL     1       1.423  11.270  18.254  0.00  0.00    +0.047 HD
ENDROOT
BRANCH   6  14
ATOM     14  C   UNL     1       3.466  13.997  18.895  0.00  0.00    -0.042 A 
ATOM     15  C   UNL     1       4.509  14.473  18.085  0.00  0.00    -0.058 A 
ATOM     16  C   UNL     1       5.622  15.101  18.649  0.00  0.00    -0.061 A 
ATOM     17  C   UNL     1       5.713  15.259  20.029  0.00  0.00    -0.062 A 
ATOM     18  C   UNL     1       4.692  14.786  20.849  0.00  0.00    -0.061 A 
ATOM     19  C   UNL     1       3.580  14.157  20.286  0.00  0.00    -0.058 A 
ATOM     20  H   UNL     1       4.479  14.360  17.005  0.00  0.00    +0.062 HD
ATOM     21  H   UNL     1       6.420  15.467  18.008  0.00  0.00    +0.062 HD
ATOM     22  H   UNL     1       6.579  15.749  20.466  0.00  0.00    +0.062 HD
ATOM     23  H   UNL     1       4.762  14.905  21.927  0.00  0.00    +0.062 HD
ATOM     24  H   UNL     1       2.796  13.791  20.947  0.00  0.00    +0.062 HD
ENDBRANCH   6  14
BRANCH   1  29
ATOM     25  C   UNL     1       0.675   9.111  22.057  0.00  0.00    +0.135 A 
ATOM     26  O   UNL     1       1.160   7.891  21.682  0.00  0.00    -0.440 OA
ATOM     27  C   UNL     1       1.574   8.067  20.387  0.00  0.00    +0.231 A 
ATOM     28  N   UNL     1       1.386   9.291  19.934  0.00  0.00    -0.204 NA
ATOM     29  C   UNL     1       0.813   9.981  20.993  0.00  0.00    +0.167 A 
BRANCH  27  30
ATOM     30  C   UNL     1       2.203   6.940  19.536  0.00  0.00    +0.074 A 
ATOM     31  C   UNL     1       2.791   7.040  18.266  0.00  0.00    +0.062 A 
ATOM     32  N   UNL     1       3.235   5.859  17.823  0.00  0.00    -0.179 NA
ATOM     33  N   UNL     1       2.923   5.009  18.822  0.00  0.00    -0.274 N 
ATOM     34  C   UNL     1       2.300   5.611  19.877  0.00  0.00    +0.037 A 
ATOM     35  H   UNL     1       2.914   7.920  17.647  0.00  0.00    +0.086 HD
ATOM     36  H   UNL     1       1.986   5.065  20.754  0.00  0.00    +0.083 HD
BRANCH  33  37
ATOM     37  C   UNL     1       3.257   3.612  18.694  0.00  0.00    +0.030 C 
ATOM     38  H   UNL     1       2.442   3.022  19.123  0.00  0.00    +0.047 HD
ATOM     39  H   UNL     1       4.189   3.429  19.234  0.00  0.00    +0.047 HD
ATOM     40  H   UNL     1       3.382   3.363  17.637  0.00  0.00    +0.047 HD
ENDBRANCH  33  37
ENDBRANCH  27  30
BRANCH  25  41
ATOM     41  C   UNL     1       0.142   9.226  23.428  0.00  0.00    -0.004 C 
ATOM     42  H   UNL     1       0.126   8.248  23.918  0.00  0.00    +0.031 HD
ATOM     43  H   UNL     1       0.761   9.903  24.023  0.00  0.00    +0.031 HD
ATOM     44  H   UNL     1      -0.880   9.619  23.425  0.00  0.00    +0.031 HD
ENDBRANCH  25  41
ENDBRANCH   1  29
BRANCH   5  45
ATOM     45  C   UNL     1      -0.052  13.898  17.432  0.00  0.00    -0.002 C 
ATOM     46  H   UNL     1       0.445  13.517  16.532  0.00  0.00    +0.043 HD
ATOM     47  H   UNL     1      -0.508  14.855  17.158  0.00  0.00    +0.043 HD
BRANCH  45  48
ATOM     48  N   UNL     1      -1.131  12.983  17.791  0.00  0.00    -0.330 NA
ATOM     49  H   UNL     1      -1.770  13.430  18.447  0.00  0.00    +0.118 HD
ATOM     50  H   UNL     1      -0.763  12.157  18.261  0.00  0.00    +0.118 HD
ENDBRANCH  45  48
ENDBRANCH   5  45
TORSDOF 7
ENDMDL
MODEL 26
REMARK VINA RESULT:    -4.037      3.533      8.524
REMARK INTER + INTRA:          -6.065
REMARK INTER:                  -6.074
REMARK INTRA:                   0.009
REMARK UNBOUND:                -0.730
REMARK  Name = 
REMARK  7 active torsions:
REMARK  status: ('A' for Active; 'I' for Inactive)
REMARK    1  A    between atoms: C_1  and  C_2
REMARK    2  A    between atoms: C_4  and  C_5
REMARK    3  A    between atoms: N_8  and  C_9
REMARK    4  A    between atoms: C_12  and  C_13
REMARK    5  A    between atoms: C_17  and  C_18
REMARK    6  A    between atoms: C_18  and  N_19
REMARK    7  A    between atoms: C_20  and  C_21
REMARK                            x       y       z     vdW  Elec       q    Type
REMARK                         _______ _______ _______ _____ _____    ______ ____
ROOT
ATOM      1  C   UNL     1       1.471   7.366  18.087  0.00  0.00    +0.268 C 
ATOM      2  O   UNL     1       0.729   7.133  17.131  0.00  0.00    -0.268 OA
ATOM      3  N   UNL     1       2.271   6.363  18.617  0.00  0.00    -0.295 N 
ATOM      4  C   UNL     1       2.203   5.010  18.095  0.00  0.00    +0.020 C 
ATOM      5  C   UNL     1       2.973   4.145  19.097  0.00  0.00    -0.005 C 
ATOM      6  C   UNL     1       4.020   5.131  19.669  0.00  0.00    +0.005 C 
ATOM      7  C   UNL     1       3.277   6.479  19.665  0.00  0.00    +0.022 C 
ATOM      8  H   UNL     1       2.697   5.010  17.117  0.00  0.00    +0.047 HD
ATOM      9  H   UNL     1       1.162   4.708  17.945  0.00  0.00    +0.047 HD
ATOM     10  H   UNL     1       3.444   3.297  18.583  0.00  0.00    +0.033 HD
ATOM     11  H   UNL     1       4.280   4.892  20.709  0.00  0.00    +0.037 HD
ATOM     12  H   UNL     1       3.935   7.337  19.498  0.00  0.00    +0.047 HD
ATOM     13  H   UNL     1       2.741   6.618  20.611  0.00  0.00    +0.047 HD
ENDROOT
BRANCH   6  14
ATOM     14  C   UNL     1       5.316   5.081  18.870  0.00  0.00    -0.042 A 
ATOM     15  C   UNL     1       6.530   5.603  19.339  0.00  0.00    -0.058 A 
ATOM     16  C   UNL     1       7.684   5.547  18.553  0.00  0.00    -0.061 A 
ATOM     17  C   UNL     1       7.641   4.973  17.285  0.00  0.00    -0.062 A 
ATOM     18  C   UNL     1       6.442   4.457  16.799  0.00  0.00    -0.061 A 
ATOM     19  C   UNL     1       5.289   4.514  17.584  0.00  0.00    -0.058 A 
ATOM     20  H   UNL     1       6.601   6.068  20.319  0.00  0.00    +0.062 HD
ATOM     21  H   UNL     1       8.617   5.954  18.932  0.00  0.00    +0.062 HD
ATOM     22  H   UNL     1       8.540   4.929  16.676  0.00  0.00    +0.062 HD
ATOM     23  H   UNL     1       6.405   4.011  15.809  0.00  0.00    +0.062 HD
ATOM     24  H   UNL     1       4.363   4.108  17.181  0.00  0.00    +0.062 HD
ENDBRANCH   6  14
BRANCH   1  29
ATOM     25  C   UNL     1       1.287   8.984  20.023  0.00  0.00    +0.135 A 
ATOM     26  O   UNL     1       1.432  10.329  20.209  0.00  0.00    -0.440 OA
ATOM     27  C   UNL     1       1.755  10.817  18.970  0.00  0.00    +0.231 A 
ATOM     28  N   UNL     1       1.820   9.888  18.037  0.00  0.00    -0.204 NA
ATOM     29  C   UNL     1       1.518   8.702  18.690  0.00  0.00    +0.167 A 
BRANCH  27  30
ATOM     30  C   UNL     1       2.018  12.315  18.690  0.00  0.00    +0.074 A 
ATOM     31  C   UNL     1       1.176  13.405  18.956  0.00  0.00    +0.062 A 
ATOM     32  N   UNL     1       1.723  14.566  18.582  0.00  0.00    -0.179 NA
ATOM     33  N   UNL     1       2.919  14.203  18.077  0.00  0.00    -0.274 N 
ATOM     34  C   UNL     1       3.145  12.858  18.119  0.00  0.00    +0.037 A 
ATOM     35  H   UNL     1       0.190  13.402  19.404  0.00  0.00    +0.086 HD
ATOM     36  H   UNL     1       4.057  12.411  17.752  0.00  0.00    +0.083 HD
BRANCH  33  37
ATOM     37  C   UNL     1       3.808  15.216  17.563  0.00  0.00    +0.030 C 
ATOM     38  H   UNL     1       4.837  14.907  17.766  0.00  0.00    +0.047 HD
ATOM     39  H   UNL     1       3.584  16.160  18.065  0.00  0.00    +0.047 HD
ATOM     40  H   UNL     1       3.656  15.322  16.485  0.00  0.00    +0.047 HD
ENDBRANCH  33  37
ENDBRANCH  27  30
BRANCH  25  41
ATOM     41  C   UNL     1       0.940   8.178  21.208  0.00  0.00    -0.004 C 
ATOM     42  H   UNL     1       0.297   8.747  21.886  0.00  0.00    +0.031 HD
ATOM     43  H   UNL     1       0.410   7.268  20.910  0.00  0.00    +0.031 HD
ATOM     44  H   UNL     1       1.835   7.880  21.763  0.00  0.00    +0.031 HD
ENDBRANCH  25  41
ENDBRANCH   1  29
BRANCH   5  45
ATOM     45  C   UNL     1       2.077   3.591  20.219  0.00  0.00    -0.002 C 
ATOM     46  H   UNL     1       2.083   4.252  21.094  0.00  0.00    +0.043 HD
ATOM     47  H   UNL     1       2.471   2.625  20.552  0.00  0.00    +0.043 HD
BRANCH  45  48
ATOM     48  N   UNL     1       0.694   3.383  19.802  0.00  0.00    -0.330 NA
ATOM     49  H   UNL     1       0.569   3.675  18.834  0.00  0.00    +0.118 HD
ATOM     50  H   UNL     1       0.058   3.950  20.362  0.00  0.00    +0.118 HD
ENDBRANCH  45  48
ENDBRANCH   5  45
TORSDOF 7
ENDMDL
MODEL 27
REMARK VINA RESULT:    -4.018      3.209      8.407
REMARK INTER + INTRA:          -6.040
REMARK INTER:                  -5.348
REMARK INTRA:                  -0.692
REMARK UNBOUND:                -0.730
REMARK  Name = 
REMARK  7 active torsions:
REMARK  status: ('A' for Active; 'I' for Inactive)
REMARK    1  A    between atoms: C_1  and  C_2
REMARK    2  A    between atoms: C_4  and  C_5
REMARK    3  A    between atoms: N_8  and  C_9
REMARK    4  A    between atoms: C_12  and  C_13
REMARK    5  A    between atoms: C_17  and  C_18
REMARK    6  A    between atoms: C_18  and  N_19
REMARK    7  A    between atoms: C_20  and  C_21
REMARK                            x       y       z     vdW  Elec       q    Type
REMARK                         _______ _______ _______ _____ _____    ______ ____
ROOT
ATOM      1  C   UNL     1       0.951   8.497  18.043  0.00  0.00    +0.268 C 
ATOM      2  O   UNL     1       0.318   8.448  16.987  0.00  0.00    -0.268 OA
ATOM      3  N   UNL     1       1.717   7.416  18.455  0.00  0.00    -0.295 N 
ATOM      4  C   UNL     1       1.737   6.187  17.682  0.00  0.00    +0.020 C 
ATOM      5  C   UNL     1       2.422   5.151  18.578  0.00  0.00    -0.005 C 
ATOM      6  C   UNL     1       3.380   6.015  19.433  0.00  0.00    +0.005 C 
ATOM      7  C   UNL     1       2.607   7.335  19.607  0.00  0.00    +0.022 C 
ATOM      8  H   UNL     1       2.329   6.376  16.779  0.00  0.00    +0.047 HD
ATOM      9  H   UNL     1       0.726   5.914  17.368  0.00  0.00    +0.047 HD
ATOM     10  H   UNL     1       2.964   4.419  17.965  0.00  0.00    +0.033 HD
ATOM     11  H   UNL     1       3.537   5.583  20.431  0.00  0.00    +0.037 HD
ATOM     12  H   UNL     1       3.257   8.212  19.675  0.00  0.00    +0.047 HD
ATOM     13  H   UNL     1       1.973   7.288  20.500  0.00  0.00    +0.047 HD
ENDROOT
BRANCH   6  14
ATOM     14  C   UNL     1       4.751   6.124  18.781  0.00  0.00    -0.042 A 
ATOM     15  C   UNL     1       5.004   6.915  17.649  0.00  0.00    -0.058 A 
ATOM     16  C   UNL     1       6.279   6.962  17.081  0.00  0.00    -0.061 A 
ATOM     17  C   UNL     1       7.319   6.217  17.629  0.00  0.00    -0.062 A 
ATOM     18  C   UNL     1       7.085   5.420  18.746  0.00  0.00    -0.061 A 
ATOM     19  C   UNL     1       5.811   5.372  19.315  0.00  0.00    -0.058 A 
ATOM     20  H   UNL     1       4.215   7.504  17.187  0.00  0.00    +0.062 HD
ATOM     21  H   UNL     1       6.459   7.582  16.206  0.00  0.00    +0.062 HD
ATOM     22  H   UNL     1       8.311   6.256  17.186  0.00  0.00    +0.062 HD
ATOM     23  H   UNL     1       7.894   4.834  19.175  0.00  0.00    +0.062 HD
ATOM     24  H   UNL     1       5.650   4.738  20.185  0.00  0.00    +0.062 HD
ENDBRANCH   6  14
BRANCH   1  29
ATOM     25  C   UNL     1       1.675  10.827  18.716  0.00  0.00    +0.135 A 
ATOM     26  O   UNL     1       1.339  11.729  19.684  0.00  0.00    -0.440 OA
ATOM     27  C   UNL     1       0.360  11.105  20.414  0.00  0.00    +0.231 A 
ATOM     28  N   UNL     1       0.066   9.896  19.977  0.00  0.00    -0.204 NA
ATOM     29  C   UNL     1       0.902   9.694  18.889  0.00  0.00    +0.167 A 
BRANCH  27  30
ATOM     30  C   UNL     1      -0.333  11.756  21.633  0.00  0.00    +0.074 A 
ATOM     31  C   UNL     1      -1.127  11.134  22.609  0.00  0.00    +0.062 A 
ATOM     32  N   UNL     1      -1.569  12.003  23.524  0.00  0.00    -0.179 NA
ATOM     33  N   UNL     1      -1.049  13.180  23.120  0.00  0.00    -0.274 N 
ATOM     34  C   UNL     1      -0.297  13.084  21.986  0.00  0.00    +0.037 A 
ATOM     35  H   UNL     1      -1.401  10.090  22.691  0.00  0.00    +0.086 HD
ATOM     36  H   UNL     1       0.186  13.939  21.536  0.00  0.00    +0.083 HD
BRANCH  33  37
ATOM     37  C   UNL     1      -1.321  14.374  23.883  0.00  0.00    +0.030 C 
ATOM     38  H   UNL     1      -1.394  14.098  24.939  0.00  0.00    +0.047 HD
ATOM     39  H   UNL     1      -2.262  14.801  23.531  0.00  0.00    +0.047 HD
ATOM     40  H   UNL     1      -0.508  15.090  23.739  0.00  0.00    +0.047 HD
ENDBRANCH  33  37
ENDBRANCH  27  30
BRANCH  25  41
ATOM     41  C   UNL     1       2.720  11.231  17.756  0.00  0.00    -0.004 C 
ATOM     42  H   UNL     1       3.369  11.995  18.195  0.00  0.00    +0.031 HD
ATOM     43  H   UNL     1       3.335  10.371  17.475  0.00  0.00    +0.031 HD
ATOM     44  H   UNL     1       2.281  11.645  16.843  0.00  0.00    +0.031 HD
ENDBRANCH  25  41
ENDBRANCH   1  29
BRANCH   5  45
ATOM     45  C   UNL     1       1.429   4.389  19.474  0.00  0.00    -0.002 C 
ATOM     46  H   UNL     1       1.089   3.465  18.991  0.00  0.00    +0.043 HD
ATOM     47  H   UNL     1       0.539   5.007  19.634  0.00  0.00    +0.043 HD
BRANCH  45  48
ATOM     48  N   UNL     1       1.976   4.056  20.786  0.00  0.00    -0.330 NA
ATOM     49  H   UNL     1       2.614   3.264  20.713  0.00  0.00    +0.118 HD
ATOM     50  H   UNL     1       1.234   3.773  21.425  0.00  0.00    +0.118 HD
ENDBRANCH  45  48
ENDBRANCH   5  45
TORSDOF 7
ENDMDL
MODEL 28
REMARK VINA RESULT:    -3.995      2.527      4.442
REMARK INTER + INTRA:          -6.010
REMARK INTER:                  -5.342
REMARK INTRA:                  -0.668
REMARK UNBOUND:                -0.730
REMARK  Name = 
REMARK  7 active torsions:
REMARK  status: ('A' for Active; 'I' for Inactive)
REMARK    1  A    between atoms: C_1  and  C_2
REMARK    2  A    between atoms: C_4  and  C_5
REMARK    3  A    between atoms: N_8  and  C_9
REMARK    4  A    between atoms: C_12  and  C_13
REMARK    5  A    between atoms: C_17  and  C_18
REMARK    6  A    between atoms: C_18  and  N_19
REMARK    7  A    between atoms: C_20  and  C_21
REMARK                            x       y       z     vdW  Elec       q    Type
REMARK                         _______ _______ _______ _____ _____    ______ ____
ROOT
ATOM      1  C   UNL     1      -0.384  10.558  18.238  0.00  0.00    +0.268 C 
ATOM      2  O   UNL     1      -1.232  10.302  17.381  0.00  0.00    -0.268 OA
ATOM      3  N   UNL     1      -0.483  11.711  19.002  0.00  0.00    -0.295 N 
ATOM      4  C   UNL     1      -1.550  12.666  18.765  0.00  0.00    +0.020 C 
ATOM      5  C   UNL     1      -1.167  13.917  19.561  0.00  0.00    -0.005 C 
ATOM      6  C   UNL     1      -0.354  13.336  20.743  0.00  0.00    +0.005 C 
ATOM      7  C   UNL     1       0.358  12.121  20.120  0.00  0.00    +0.022 C 
ATOM      8  H   UNL     1      -2.477  12.226  19.150  0.00  0.00    +0.047 HD
ATOM      9  H   UNL     1      -1.681  12.838  17.692  0.00  0.00    +0.047 HD
ATOM     10  H   UNL     1      -2.069  14.441  19.901  0.00  0.00    +0.033 HD
ATOM     11  H   UNL     1       0.417  14.036  21.092  0.00  0.00    +0.037 HD
ATOM     12  H   UNL     1       0.515  11.300  20.827  0.00  0.00    +0.047 HD
ATOM     13  H   UNL     1       1.326  12.423  19.702  0.00  0.00    +0.047 HD
ENDROOT
BRANCH   6  14
ATOM     14  C   UNL     1      -1.253  13.043  21.937  0.00  0.00    -0.042 A 
ATOM     15  C   UNL     1      -1.534  11.744  22.388  0.00  0.00    -0.058 A 
ATOM     16  C   UNL     1      -2.382  11.534  23.478  0.00  0.00    -0.061 A 
ATOM     17  C   UNL     1      -2.967  12.617  24.129  0.00  0.00    -0.062 A 
ATOM     18  C   UNL     1      -2.707  13.912  23.690  0.00  0.00    -0.061 A 
ATOM     19  C   UNL     1      -1.859  14.122  22.601  0.00  0.00    -0.058 A 
ATOM     20  H   UNL     1      -1.104  10.873  21.899  0.00  0.00    +0.062 HD
ATOM     21  H   UNL     1      -2.588  10.522  23.817  0.00  0.00    +0.062 HD
ATOM     22  H   UNL     1      -3.627  12.451  24.977  0.00  0.00    +0.062 HD
ATOM     23  H   UNL     1      -3.164  14.759  24.195  0.00  0.00    +0.062 HD
ATOM     24  H   UNL     1      -1.674  15.144  22.273  0.00  0.00    +0.062 HD
ENDBRANCH   6  14
BRANCH   1  29
ATOM     25  C   UNL     1       2.066   9.931  18.139  0.00  0.00    +0.135 A 
ATOM     26  O   UNL     1       2.832   8.863  18.507  0.00  0.00    -0.440 OA
ATOM     27  C   UNL     1       1.945   7.971  19.050  0.00  0.00    +0.231 A 
ATOM     28  N   UNL     1       0.697   8.399  19.046  0.00  0.00    -0.204 NA
ATOM     29  C   UNL     1       0.751   9.655  18.461  0.00  0.00    +0.167 A 
BRANCH  27  30
ATOM     30  C   UNL     1       2.364   6.593  19.612  0.00  0.00    +0.074 A 
ATOM     31  C   UNL     1       3.512   5.847  19.306  0.00  0.00    +0.062 A 
ATOM     32  N   UNL     1       3.556   4.693  19.980  0.00  0.00    -0.179 NA
ATOM     33  N   UNL     1       2.426   4.714  20.716  0.00  0.00    -0.274 N 
ATOM     34  C   UNL     1       1.674   5.837  20.530  0.00  0.00    +0.037 A 
ATOM     35  H   UNL     1       4.315   6.095  18.623  0.00  0.00    +0.086 HD
ATOM     36  H   UNL     1       0.740   6.002  21.047  0.00  0.00    +0.083 HD
BRANCH  33  37
ATOM     37  C   UNL     1       2.128   3.604  21.588  0.00  0.00    +0.030 C 
ATOM     38  H   UNL     1       2.551   3.817  22.573  0.00  0.00    +0.047 HD
ATOM     39  H   UNL     1       2.576   2.702  21.164  0.00  0.00    +0.047 HD
ATOM     40  H   UNL     1       1.045   3.482  21.664  0.00  0.00    +0.047 HD
ENDBRANCH  33  37
ENDBRANCH  27  30
BRANCH  25  41
ATOM     41  C   UNL     1       2.762  11.074  17.519  0.00  0.00    -0.004 C 
ATOM     42  H   UNL     1       2.147  11.977  17.578  0.00  0.00    +0.031 HD
ATOM     43  H   UNL     1       3.711  11.267  18.029  0.00  0.00    +0.031 HD
ATOM     44  H   UNL     1       2.980  10.882  16.464  0.00  0.00    +0.031 HD
ENDBRANCH  25  41
ENDBRANCH   1  29
BRANCH   5  45
ATOM     45  C   UNL     1      -0.313  14.904  18.747  0.00  0.00    -0.002 C 
ATOM     46  H   UNL     1      -0.871  15.822  18.526  0.00  0.00    +0.043 HD
ATOM     47  H   UNL     1      -0.058  14.451  17.782  0.00  0.00    +0.043 HD
BRANCH  45  48
ATOM     48  N   UNL     1       0.938  15.266  19.407  0.00  0.00    -0.330 NA
ATOM     49  H   UNL     1       1.235  16.196  19.116  0.00  0.00    +0.118 HD
ATOM     50  H   UNL     1       1.685  14.625  19.142  0.00  0.00    +0.118 HD
ENDBRANCH  45  48
ENDBRANCH   5  45
TORSDOF 7
ENDMDL
MODEL 29
REMARK VINA RESULT:    -3.849      4.488      7.923
REMARK INTER + INTRA:          -5.817
REMARK INTER:                  -5.086
REMARK INTRA:                  -0.730
REMARK UNBOUND:                -0.730
REMARK  Name = 
REMARK  7 active torsions:
REMARK  status: ('A' for Active; 'I' for Inactive)
REMARK    1  A    between atoms: C_1  and  C_2
REMARK    2  A    between atoms: C_4  and  C_5
REMARK    3  A    between atoms: N_8  and  C_9
REMARK    4  A    between atoms: C_12  and  C_13
REMARK    5  A    between atoms: C_17  and  C_18
REMARK    6  A    between atoms: C_18  and  N_19
REMARK    7  A    between atoms: C_20  and  C_21
REMARK                            x       y       z     vdW  Elec       q    Type
REMARK                         _______ _______ _______ _____ _____    ______ ____
ROOT
ATOM      1  C   UNL     1       5.731   5.520  18.945  0.00  0.00    +0.268 C 
ATOM      2  O   UNL     1       6.156   4.587  19.628  0.00  0.00    -0.268 OA
ATOM      3  N   UNL     1       4.368   5.669  18.729  0.00  0.00    -0.295 N 
ATOM      4  C   UNL     1       3.426   4.696  19.250  0.00  0.00    +0.020 C 
ATOM      5  C   UNL     1       2.090   5.012  18.571  0.00  0.00    -0.005 C 
ATOM      6  C   UNL     1       2.185   6.537  18.322  0.00  0.00    +0.005 C 
ATOM      7  C   UNL     1       3.683   6.759  18.044  0.00  0.00    +0.022 C 
ATOM      8  H   UNL     1       3.361   4.849  20.333  0.00  0.00    +0.047 HD
ATOM      9  H   UNL     1       3.789   3.678  19.078  0.00  0.00    +0.047 HD
ATOM     10  H   UNL     1       1.256   4.756  19.237  0.00  0.00    +0.033 HD
ATOM     11  H   UNL     1       1.628   6.839  17.425  0.00  0.00    +0.037 HD
ATOM     12  H   UNL     1       4.047   7.735  18.379  0.00  0.00    +0.047 HD
ATOM     13  H   UNL     1       3.890   6.647  16.974  0.00  0.00    +0.047 HD
ENDROOT
BRANCH   6  14
ATOM     14  C   UNL     1       1.599   7.322  19.488  0.00  0.00    -0.042 A 
ATOM     15  C   UNL     1       1.201   6.726  20.694  0.00  0.00    -0.058 A 
ATOM     16  C   UNL     1       0.651   7.494  21.723  0.00  0.00    -0.061 A 
ATOM     17  C   UNL     1       0.484   8.866  21.561  0.00  0.00    -0.062 A 
ATOM     18  C   UNL     1       0.865   9.474  20.368  0.00  0.00    -0.061 A 
ATOM     19  C   UNL     1       1.414   8.707  19.339  0.00  0.00    -0.058 A 
ATOM     20  H   UNL     1       1.306   5.656  20.854  0.00  0.00    +0.062 HD
ATOM     21  H   UNL     1       0.351   7.018  22.653  0.00  0.00    +0.062 HD
ATOM     22  H   UNL     1       0.057   9.462  22.364  0.00  0.00    +0.062 HD
ATOM     23  H   UNL     1       0.733  10.545  20.237  0.00  0.00    +0.062 HD
ATOM     24  H   UNL     1       1.700   9.203  18.413  0.00  0.00    +0.062 HD
ENDBRANCH   6  14
BRANCH   1  29
ATOM     25  C   UNL     1       7.258   6.346  17.105  0.00  0.00    +0.135 A 
ATOM     26  O   UNL     1       8.034   7.447  16.879  0.00  0.00    -0.440 OA
ATOM     27  C   UNL     1       7.864   8.225  17.995  0.00  0.00    +0.231 A 
ATOM     28  N   UNL     1       7.052   7.696  18.889  0.00  0.00    -0.204 NA
ATOM     29  C   UNL     1       6.654   6.486  18.340  0.00  0.00    +0.167 A 
BRANCH  27  30
ATOM     30  C   UNL     1       8.559   9.592  18.189  0.00  0.00    +0.074 A 
ATOM     31  C   UNL     1       9.428   9.981  19.220  0.00  0.00    +0.062 A 
ATOM     32  N   UNL     1       9.846  11.243  19.075  0.00  0.00    -0.179 NA
ATOM     33  N   UNL     1       9.235  11.651  17.944  0.00  0.00    -0.274 N 
ATOM     34  C   UNL     1       8.449  10.692  17.373  0.00  0.00    +0.037 A 
ATOM     35  H   UNL     1       9.772   9.402  20.067  0.00  0.00    +0.086 HD
ATOM     36  H   UNL     1       7.893  10.865  16.462  0.00  0.00    +0.083 HD
BRANCH  33  37
ATOM     37  C   UNL     1       9.454  12.993  17.464  0.00  0.00    +0.030 C 
ATOM     38  H   UNL     1       9.771  13.613  18.308  0.00  0.00    +0.047 HD
ATOM     39  H   UNL     1       8.518  13.367  17.043  0.00  0.00    +0.047 HD
ATOM     40  H   UNL     1      10.231  12.983  16.696  0.00  0.00    +0.047 HD
ENDBRANCH  33  37
ENDBRANCH  27  30
BRANCH  25  41
ATOM     41  C   UNL     1       7.235   5.315  16.051  0.00  0.00    -0.004 C 
ATOM     42  H   UNL     1       6.488   5.561  15.289  0.00  0.00    +0.031 HD
ATOM     43  H   UNL     1       8.213   5.239  15.567  0.00  0.00    +0.031 HD
ATOM     44  H   UNL     1       6.985   4.332  16.462  0.00  0.00    +0.031 HD
ENDBRANCH  25  41
ENDBRANCH   1  29
BRANCH   5  45
ATOM     45  C   UNL     1       1.901   4.255  17.245  0.00  0.00    -0.002 C 
ATOM     46  H   UNL     1       2.441   4.746  16.427  0.00  0.00    +0.043 HD
ATOM     47  H   UNL     1       0.840   4.264  16.973  0.00  0.00    +0.043 HD
BRANCH  45  48
ATOM     48  N   UNL     1       2.326   2.860  17.313  0.00  0.00    -0.330 NA
ATOM     49  H   UNL     1       1.519   2.241  17.242  0.00  0.00    +0.118 HD
ATOM     50  H   UNL     1       2.768   2.660  18.210  0.00  0.00    +0.118 HD
ENDBRANCH  45  48
ENDBRANCH   5  45
TORSDOF 7
ENDMDL
MODEL 30
REMARK VINA RESULT:    -3.812      1.858      8.009
REMARK INTER + INTRA:          -5.768
REMARK INTER:                  -5.279
REMARK INTRA:                  -0.490
REMARK UNBOUND:                -0.730
REMARK  Name = 
REMARK  7 active torsions:
REMARK  status: ('A' for Active; 'I' for Inactive)
REMARK    1  A    between atoms: C_1  and  C_2
REMARK    2  A    between atoms: C_4  and  C_5
REMARK    3  A    between atoms: N_8  and  C_9
REMARK    4  A    between atoms: C_12  and  C_13
REMARK    5  A    between atoms: C_17  and  C_18
REMARK    6  A    between atoms: C_18  and  N_19
REMARK    7  A    between atoms: C_20  and  C_21
REMARK                            x       y       z     vdW  Elec       q    Type
REMARK                         _______ _______ _______ _____ _____    ______ ____
ROOT
ATOM      1  C   UNL     1       1.861   8.223  20.205  0.00  0.00    +0.268 C 
ATOM      2  O   UNL     1       2.013   8.416  21.413  0.00  0.00    -0.268 OA
ATOM      3  N   UNL     1       2.530   7.187  19.569  0.00  0.00    -0.295 N 
ATOM      4  C   UNL     1       3.466   6.352  20.300  0.00  0.00    +0.020 C 
ATOM      5  C   UNL     1       4.215   5.545  19.235  0.00  0.00    -0.005 C 
ATOM      6  C   UNL     1       3.169   5.420  18.101  0.00  0.00    +0.005 C 
ATOM      7  C   UNL     1       2.393   6.748  18.186  0.00  0.00    +0.022 C 
ATOM      8  H   UNL     1       2.879   5.693  20.950  0.00  0.00    +0.047 HD
ATOM      9  H   UNL     1       4.110   6.964  20.938  0.00  0.00    +0.047 HD
ATOM     10  H   UNL     1       4.505   4.566  19.636  0.00  0.00    +0.033 HD
ATOM     11  H   UNL     1       3.645   5.371  17.112  0.00  0.00    +0.037 HD
ATOM     12  H   UNL     1       1.343   6.656  17.896  0.00  0.00    +0.047 HD
ATOM     13  H   UNL     1       2.873   7.507  17.558  0.00  0.00    +0.047 HD
ENDROOT
BRANCH   6  14
ATOM     14  C   UNL     1       2.341   4.152  18.254  0.00  0.00    -0.042 A 
ATOM     15  C   UNL     1       1.195   4.074  19.060  0.00  0.00    -0.058 A 
ATOM     16  C   UNL     1       0.485   2.877  19.178  0.00  0.00    -0.061 A 
ATOM     17  C   UNL     1       0.911   1.739  18.498  0.00  0.00    -0.062 A 
ATOM     18  C   UNL     1       2.051   1.795  17.701  0.00  0.00    -0.061 A 
ATOM     19  C   UNL     1       2.761   2.991  17.583  0.00  0.00    -0.058 A 
ATOM     20  H   UNL     1       0.837   4.938  19.614  0.00  0.00    +0.062 HD
ATOM     21  H   UNL     1      -0.402   2.833  19.804  0.00  0.00    +0.062 HD
ATOM     22  H   UNL     1       0.356   0.809  18.591  0.00  0.00    +0.062 HD
ATOM     23  H   UNL     1       2.387   0.908  17.171  0.00  0.00    +0.062 HD
ATOM     24  H   UNL     1       3.652   3.010  16.957  0.00  0.00    +0.062 HD
ENDBRANCH   6  14
BRANCH   1  29
ATOM     25  C   UNL     1       1.389   9.921  18.390  0.00  0.00    +0.135 A 
ATOM     26  O   UNL     1       0.289  10.554  17.886  0.00  0.00    -0.440 OA
ATOM     27  C   UNL     1      -0.758  10.073  18.628  0.00  0.00    +0.231 A 
ATOM     28  N   UNL     1      -0.397   9.198  19.546  0.00  0.00    -0.204 NA
ATOM     29  C   UNL     1       0.980   9.089  19.415  0.00  0.00    +0.167 A 
BRANCH  27  30
ATOM     30  C   UNL     1      -2.224  10.512  18.411  0.00  0.00    +0.074 A 
ATOM     31  C   UNL     1      -3.224   9.855  17.679  0.00  0.00    +0.062 A 
ATOM     32  N   UNL     1      -4.384  10.522  17.701  0.00  0.00    -0.179 NA
ATOM     33  N   UNL     1      -4.109  11.607  18.453  0.00  0.00    -0.274 N 
ATOM     34  C   UNL     1      -2.822  11.647  18.904  0.00  0.00    +0.037 A 
ATOM     35  H   UNL     1      -3.158   8.923  17.132  0.00  0.00    +0.086 HD
ATOM     36  H   UNL     1      -2.448  12.454  19.518  0.00  0.00    +0.083 HD
BRANCH  33  37
ATOM     37  C   UNL     1      -5.147  12.578  18.700  0.00  0.00    +0.030 C 
ATOM     38  H   UNL     1      -6.115  12.093  18.550  0.00  0.00    +0.047 HD
ATOM     39  H   UNL     1      -5.019  13.406  17.998  0.00  0.00    +0.047 HD
ATOM     40  H   UNL     1      -5.066  12.944  19.727  0.00  0.00    +0.047 HD
ENDBRANCH  33  37
ENDBRANCH  27  30
BRANCH  25  41
ATOM     41  C   UNL     1       2.689  10.240  17.771  0.00  0.00    -0.004 C 
ATOM     42  H   UNL     1       3.035   9.407  17.152  0.00  0.00    +0.031 HD
ATOM     43  H   UNL     1       2.604  11.130  17.140  0.00  0.00    +0.031 HD
ATOM     44  H   UNL     1       3.453  10.437  18.530  0.00  0.00    +0.031 HD
ENDBRANCH  25  41
ENDBRANCH   1  29
BRANCH   5  45
ATOM     45  C   UNL     1       5.483   6.256  18.731  0.00  0.00    -0.002 C 
ATOM     46  H   UNL     1       6.331   6.076  19.402  0.00  0.00    +0.043 HD
ATOM     47  H   UNL     1       5.312   7.338  18.724  0.00  0.00    +0.043 HD
BRANCH  45  48
ATOM     48  N   UNL     1       5.866   5.862  17.379  0.00  0.00    -0.330 NA
ATOM     49  H   UNL     1       5.095   5.379  16.920  0.00  0.00    +0.118 HD
ATOM     50  H   UNL     1       6.647   5.207  17.402  0.00  0.00    +0.118 HD
ENDBRANCH  45  48
ENDBRANCH   5  45
TORSDOF 7
ENDMDL
MODEL 31
REMARK VINA RESULT:    -3.798      1.981      2.596
REMARK INTER + INTRA:          -5.750
REMARK INTER:                  -5.364
REMARK INTRA:                  -0.386
REMARK UNBOUND:                -0.730
REMARK  Name = 
REMARK  7 active torsions:
REMARK  status: ('A' for Active; 'I' for Inactive)
REMARK    1  A    between atoms: C_1  and  C_2
REMARK    2  A    between atoms: C_4  and  C_5
REMARK    3  A    between atoms: N_8  and  C_9
REMARK    4  A    between atoms: C_12  and  C_13
REMARK    5  A    between atoms: C_17  and  C_18
REMARK    6  A    between atoms: C_18  and  N_19
REMARK    7  A    between atoms: C_20  and  C_21
REMARK                            x       y       z     vdW  Elec       q    Type
REMARK                         _______ _______ _______ _____ _____    ______ ____
ROOT
ATOM      1  C   UNL     1       1.404  11.395  18.492  0.00  0.00    +0.268 C 
ATOM      2  O   UNL     1       2.115  12.259  17.976  0.00  0.00    -0.268 OA
ATOM      3  N   UNL     1       0.385  11.752  19.365  0.00  0.00    -0.295 N 
ATOM      4  C   UNL     1       0.178  13.141  19.732  0.00  0.00    +0.020 C 
ATOM      5  C   UNL     1      -0.800  13.113  20.910  0.00  0.00    -0.005 C 
ATOM      6  C   UNL     1      -1.630  11.835  20.637  0.00  0.00    +0.005 C 
ATOM      7  C   UNL     1      -0.612  10.884  19.981  0.00  0.00    +0.022 C 
ATOM      8  H   UNL     1      -0.265  13.646  18.866  0.00  0.00    +0.047 HD
ATOM      9  H   UNL     1       1.133  13.627  19.950  0.00  0.00    +0.047 HD
ATOM     10  H   UNL     1      -1.423  14.016  20.907  0.00  0.00    +0.033 HD
ATOM     11  H   UNL     1      -1.976  11.367  21.568  0.00  0.00    +0.037 HD
ATOM     12  H   UNL     1      -1.060  10.206  19.249  0.00  0.00    +0.047 HD
ATOM     13  H   UNL     1      -0.096  10.295  20.747  0.00  0.00    +0.047 HD
ENDROOT
BRANCH   6  14
ATOM     14  C   UNL     1      -2.873  12.152  19.816  0.00  0.00    -0.042 A 
ATOM     15  C   UNL     1      -3.918  12.963  20.284  0.00  0.00    -0.058 A 
ATOM     16  C   UNL     1      -5.044  13.204  19.493  0.00  0.00    -0.061 A 
ATOM     17  C   UNL     1      -5.147  12.633  18.228  0.00  0.00    -0.062 A 
ATOM     18  C   UNL     1      -4.124  11.818  17.750  0.00  0.00    -0.061 A 
ATOM     19  C   UNL     1      -2.998  11.577  18.540  0.00  0.00    -0.058 A 
ATOM     20  H   UNL     1      -3.878  13.418  21.270  0.00  0.00    +0.062 HD
ATOM     21  H   UNL     1      -5.843  13.837  19.869  0.00  0.00    +0.062 HD
ATOM     22  H   UNL     1      -6.024  12.822  17.614  0.00  0.00    +0.062 HD
ATOM     23  H   UNL     1      -4.203  11.369  16.764  0.00  0.00    +0.062 HD
ATOM     24  H   UNL     1      -2.213  10.932  18.148  0.00  0.00    +0.062 HD
ENDBRANCH   6  14
BRANCH   1  29
ATOM     25  C   UNL     1       0.701   9.124  17.627  0.00  0.00    +0.135 A 
ATOM     26  O   UNL     1       1.271   7.889  17.506  0.00  0.00    -0.440 OA
ATOM     27  C   UNL     1       2.535   8.039  18.013  0.00  0.00    +0.231 A 
ATOM     28  N   UNL     1       2.792   9.261  18.438  0.00  0.00    -0.204 NA
ATOM     29  C   UNL     1       1.625   9.974  18.204  0.00  0.00    +0.167 A 
BRANCH  27  30
ATOM     30  C   UNL     1       3.564   6.888  18.083  0.00  0.00    +0.074 A 
ATOM     31  C   UNL     1       4.723   6.716  17.312  0.00  0.00    +0.062 A 
ATOM     32  N   UNL     1       5.384   5.600  17.639  0.00  0.00    -0.179 NA
ATOM     33  N   UNL     1       4.634   5.066  18.624  0.00  0.00    -0.274 N 
ATOM     34  C   UNL     1       3.527   5.804  18.928  0.00  0.00    +0.037 A 
ATOM     35  H   UNL     1       5.113   7.354  16.528  0.00  0.00    +0.086 HD
ATOM     36  H   UNL     1       2.825   5.508  19.695  0.00  0.00    +0.083 HD
BRANCH  33  37
ATOM     37  C   UNL     1       5.046   3.826  19.236  0.00  0.00    +0.030 C 
ATOM     38  H   UNL     1       5.615   4.061  20.140  0.00  0.00    +0.047 HD
ATOM     39  H   UNL     1       5.666   3.279  18.522  0.00  0.00    +0.047 HD
ATOM     40  H   UNL     1       4.163   3.236  19.493  0.00  0.00    +0.047 HD
ENDBRANCH  33  37
ENDBRANCH  27  30
BRANCH  25  41
ATOM     41  C   UNL     1      -0.685   9.273  17.147  0.00  0.00    -0.004 C 
ATOM     42  H   UNL     1      -1.381   8.760  17.818  0.00  0.00    +0.031 HD
ATOM     43  H   UNL     1      -0.962  10.330  17.099  0.00  0.00    +0.031 HD
ATOM     44  H   UNL     1      -0.806   8.846  16.146  0.00  0.00    +0.031 HD
ENDBRANCH  25  41
ENDBRANCH   1  29
BRANCH   5  45
ATOM     45  C   UNL     1      -0.090  13.021  22.272  0.00  0.00    -0.002 C 
ATOM     46  H   UNL     1       0.516  13.914  22.464  0.00  0.00    +0.043 HD
ATOM     47  H   UNL     1       0.599  12.169  22.264  0.00  0.00    +0.043 HD
BRANCH  45  48
ATOM     48  N   UNL     1      -1.010  12.831  23.389  0.00  0.00    -0.330 NA
ATOM     49  H   UNL     1      -1.206  11.840  23.522  0.00  0.00    +0.118 HD
ATOM     50  H   UNL     1      -1.905  13.282  23.201  0.00  0.00    +0.118 HD
ENDBRANCH  45  48
ENDBRANCH   5  45
TORSDOF 7
ENDMDL
MODEL 32
REMARK VINA RESULT:    -3.666      2.258      4.064
REMARK INTER + INTRA:          -5.574
REMARK INTER:                  -4.732
REMARK INTRA:                  -0.842
REMARK UNBOUND:                -0.730
REMARK  Name = 
REMARK  7 active torsions:
REMARK  status: ('A' for Active; 'I' for Inactive)
REMARK    1  A    between atoms: C_1  and  C_2
REMARK    2  A    between atoms: C_4  and  C_5
REMARK    3  A    between atoms: N_8  and  C_9
REMARK    4  A    between atoms: C_12  and  C_13
REMARK    5  A    between atoms: C_17  and  C_18
REMARK    6  A    between atoms: C_18  and  N_19
REMARK    7  A    between atoms: C_20  and  C_21
REMARK                            x       y       z     vdW  Elec       q    Type
REMARK                         _______ _______ _______ _____ _____    ______ ____
ROOT
ATOM      1  C   UNL     1      -0.393   9.694  21.242  0.00  0.00    +0.268 C 
ATOM      2  O   UNL     1      -1.089   9.917  22.234  0.00  0.00    -0.268 OA
ATOM      3  N   UNL     1      -0.464  10.524  20.132  0.00  0.00    -0.295 N 
ATOM      4  C   UNL     1      -1.401  11.632  20.096  0.00  0.00    +0.020 C 
ATOM      5  C   UNL     1      -1.411  12.114  18.642  0.00  0.00    -0.005 C 
ATOM      6  C   UNL     1       0.017  11.770  18.156  0.00  0.00    +0.005 C 
ATOM      7  C   UNL     1       0.351  10.478  18.924  0.00  0.00    +0.022 C 
ATOM      8  H   UNL     1      -1.016  12.410  20.764  0.00  0.00    +0.047 HD
ATOM      9  H   UNL     1      -2.380  11.320  20.474  0.00  0.00    +0.047 HD
ATOM     10  H   UNL     1      -1.611  13.193  18.602  0.00  0.00    +0.033 HD
ATOM     11  H   UNL     1       0.038  11.539  17.083  0.00  0.00    +0.037 HD
ATOM     12  H   UNL     1       1.414  10.376  19.161  0.00  0.00    +0.047 HD
ATOM     13  H   UNL     1       0.027   9.602  18.350  0.00  0.00    +0.047 HD
ENDROOT
BRANCH   6  14
ATOM     14  C   UNL     1       0.968  12.940  18.373  0.00  0.00    -0.042 A 
ATOM     15  C   UNL     1       0.536  14.227  18.729  0.00  0.00    -0.058 A 
ATOM     16  C   UNL     1       1.453  15.267  18.895  0.00  0.00    -0.061 A 
ATOM     17  C   UNL     1       2.813  15.040  18.704  0.00  0.00    -0.062 A 
ATOM     18  C   UNL     1       3.260  13.772  18.342  0.00  0.00    -0.061 A 
ATOM     19  C   UNL     1       2.344  12.732  18.175  0.00  0.00    -0.058 A 
ATOM     20  H   UNL     1      -0.518  14.445  18.877  0.00  0.00    +0.062 HD
ATOM     21  H   UNL     1       1.103  16.258  19.174  0.00  0.00    +0.062 HD
ATOM     22  H   UNL     1       3.525  15.851  18.835  0.00  0.00    +0.062 HD
ATOM     23  H   UNL     1       4.320  13.592  18.190  0.00  0.00    +0.062 HD
ATOM     24  H   UNL     1       2.715  11.749  17.888  0.00  0.00    +0.062 HD
ENDBRANCH   6  14
BRANCH   1  29
ATOM     25  C   UNL     1       1.697   8.439  21.919  0.00  0.00    +0.135 A 
ATOM     26  O   UNL     1       2.258   7.225  21.645  0.00  0.00    -0.440 OA
ATOM     27  C   UNL     1       1.384   6.629  20.773  0.00  0.00    +0.231 A 
ATOM     28  N   UNL     1       0.333   7.373  20.487  0.00  0.00    -0.204 NA
ATOM     29  C   UNL     1       0.516   8.543  21.209  0.00  0.00    +0.167 A 
BRANCH  27  30
ATOM     30  C   UNL     1       1.607   5.219  20.180  0.00  0.00    +0.074 A 
ATOM     31  C   UNL     1       0.855   4.056  20.408  0.00  0.00    +0.062 A 
ATOM     32  N   UNL     1       1.332   3.008  19.729  0.00  0.00    -0.179 NA
ATOM     33  N   UNL     1       2.393   3.515  19.069  0.00  0.00    -0.274 N 
ATOM     34  C   UNL     1       2.600   4.843  19.307  0.00  0.00    +0.037 A 
ATOM     35  H   UNL     1      -0.017   3.929  21.038  0.00  0.00    +0.086 HD
ATOM     36  H   UNL     1       3.410   5.394  18.852  0.00  0.00    +0.083 HD
BRANCH  33  37
ATOM     37  C   UNL     1       3.174   2.654  18.214  0.00  0.00    +0.030 C 
ATOM     38  H   UNL     1       3.957   2.189  18.818  0.00  0.00    +0.047 HD
ATOM     39  H   UNL     1       3.611   3.262  17.419  0.00  0.00    +0.047 HD
ATOM     40  H   UNL     1       2.527   1.885  17.784  0.00  0.00    +0.047 HD
ENDBRANCH  33  37
ENDBRANCH  27  30
BRANCH  25  41
ATOM     41  C   UNL     1       2.425   9.317  22.854  0.00  0.00    -0.004 C 
ATOM     42  H   UNL     1       1.966  10.310  22.884  0.00  0.00    +0.031 HD
ATOM     43  H   UNL     1       2.411   8.897  23.864  0.00  0.00    +0.031 HD
ATOM     44  H   UNL     1       3.470   9.438  22.553  0.00  0.00    +0.031 HD
ENDBRANCH  25  41
ENDBRANCH   1  29
BRANCH   5  45
ATOM     45  C   UNL     1      -2.467  11.396  17.783  0.00  0.00    -0.002 C 
ATOM     46  H   UNL     1      -3.474  11.774  17.994  0.00  0.00    +0.043 HD
ATOM     47  H   UNL     1      -2.472  10.329  18.033  0.00  0.00    +0.043 HD
BRANCH  45  48
ATOM     48  N   UNL     1      -2.217  11.509  16.349  0.00  0.00    -0.330 NA
ATOM     49  H   UNL     1      -2.906  12.124  15.918  0.00  0.00    +0.118 HD
ATOM     50  H   UNL     1      -2.310  10.602  15.894  0.00  0.00    +0.118 HD
ENDBRANCH  45  48
ENDBRANCH   5  45
TORSDOF 7
ENDMDL
