MODEL 1
REMARK VINA RESULT:    -8.244      0.000      0.000
REMARK INTER + INTRA:         -10.657
REMARK INTER:                 -11.366
REMARK INTRA:                   0.709
REMARK UNBOUND:                 0.961
REMARK  Name = 
REMARK  8 active torsions:
REMARK  status: ('A' for Active; 'I' for Inactive)
REMARK    1  A    between atoms: C_1  and  C_2
REMARK    2  A    between atoms: C_2  and  C_3
REMARK    3  A    between atoms: C_2  and  C_10
REMARK    4  A    between atoms: C_3  and  C_4
REMARK    5  A    between atoms: N_8  and  C_9
REMARK    6  A    between atoms: N_16  and  C_17
REMARK    7  A    between atoms: C_24  and  N_26
REMARK    8  A    between atoms: C_33  and  C_34
REMARK                            x       y       z     vdW  Elec       q    Type
REMARK                         _______ _______ _______ _____ _____    ______ ____
ROOT
ATOM      1  C   UNL     1       1.948   5.662  19.924  0.00  0.00    -0.038 A 
ATOM      2  C   UNL     1       2.808   5.418  18.848  0.00  0.00    -0.018 A 
ATOM      3  C   UNL     1       3.195   6.478  18.048  0.00  0.00    +0.128 A 
ATOM      4  N   UNL     1       4.060   6.369  16.961  0.00  0.00    -0.254 N 
ATOM      5  C   UNL     1       4.787   5.283  16.557  0.00  0.00    +0.305 C 
ATOM      6  O   UNL     1       4.825   4.189  17.107  0.00  0.00    -0.252 OA
ATOM      7  N   UNL     1       5.521   5.574  15.424  0.00  0.00    -0.296 N 
ATOM      8  N   UNL     1       2.760   7.734  18.251  0.00  0.00    -0.217 NA
ATOM      9  C   UNL     1       1.934   7.995  19.282  0.00  0.00    +0.130 A 
ATOM     10  C   UNL     1       1.519   6.979  20.142  0.00  0.00    -0.018 A 
ATOM     11  H   UNL     1       3.159   4.413  18.655  0.00  0.00    +0.065 HD
ATOM     12  H   UNL     1       4.244   7.266  16.536  0.00  0.00    +0.158 HD
ATOM     13  H   UNL     1       5.147   6.310  14.843  0.00  0.00    +0.151 HD
ATOM     14  H   UNL     1       0.869   7.189  20.982  0.00  0.00    +0.065 HD
ENDROOT
BRANCH   7  15
ATOM     15  C   UNL     1       6.322   4.555  14.755  0.00  0.00    +0.025 C 
ATOM     16  C   UNL     1       7.666   5.149  14.298  0.00  0.00    -0.034 C 
ATOM     17  C   UNL     1       7.611   5.641  12.857  0.00  0.00    -0.051 C 
ATOM     18  C   UNL     1       7.285   4.507  11.883  0.00  0.00    -0.053 C 
ATOM     19  C   UNL     1       6.438   3.393  12.502  0.00  0.00    -0.051 C 
ATOM     20  C   UNL     1       5.525   3.920  13.601  0.00  0.00    -0.034 C 
ATOM     21  H   UNL     1       6.541   3.778  15.501  0.00  0.00    +0.050 HD
ATOM     22  H   UNL     1       7.980   5.963  14.961  0.00  0.00    +0.028 HD
ATOM     23  H   UNL     1       8.440   4.373  14.369  0.00  0.00    +0.028 HD
ATOM     24  H   UNL     1       8.564   6.103  12.577  0.00  0.00    +0.027 HD
ATOM     25  H   UNL     1       6.848   6.424  12.770  0.00  0.00    +0.027 HD
ATOM     26  H   UNL     1       6.769   4.929  11.012  0.00  0.00    +0.027 HD
ATOM     27  H   UNL     1       8.216   4.068  11.502  0.00  0.00    +0.027 HD
ATOM     28  H   UNL     1       7.098   2.624  12.922  0.00  0.00    +0.027 HD
ATOM     29  H   UNL     1       5.849   2.902  11.719  0.00  0.00    +0.027 HD
ATOM     30  H   UNL     1       4.834   4.654  13.163  0.00  0.00    +0.028 HD
ATOM     31  H   UNL     1       4.900   3.107  13.989  0.00  0.00    +0.028 HD
ENDBRANCH   7  15
BRANCH   9  32
ATOM     32  N   UNL     1       1.503   9.325  19.472  0.00  0.00    -0.248 N 
ATOM     33  C   UNL     1       0.718   9.754  20.614  0.00  0.00    +0.048 C 
ATOM     34  C   UNL     1       0.514  11.213  20.362  0.00  0.00    -0.006 A 
ATOM     35  C   UNL     1       1.138  11.571  19.171  0.00  0.00    +0.042 A 
ATOM     36  C   UNL     1       1.119  12.862  18.677  0.00  0.00    -0.049 A 
ATOM     37  C   UNL     1       0.442  13.826  19.424  0.00  0.00    -0.060 A 
ATOM     38  C   UNL     1      -0.194  13.481  20.632  0.00  0.00    -0.050 A 
ATOM     39  C   UNL     1      -0.167  12.162  21.122  0.00  0.00    +0.060 A 
ATOM     40  C   UNL     1       1.774  10.376  18.596  0.00  0.00    +0.253 C 
ATOM     41  O   UNL     1       2.393  10.426  17.549  0.00  0.00    -0.270 OA
ATOM     42  H   UNL     1       1.288   9.595  21.535  0.00  0.00    +0.052 HD
ATOM     43  H   UNL     1      -0.239   9.223  20.627  0.00  0.00    +0.052 HD
ATOM     44  H   UNL     1       1.616  13.109  17.744  0.00  0.00    +0.063 HD
ATOM     45  H   UNL     1       0.406  14.855  19.068  0.00  0.00    +0.062 HD
ATOM     46  H   UNL     1      -0.711  14.261  21.191  0.00  0.00    +0.062 HD
BRANCH  39  47
ATOM     47  C   UNL     1      -0.832  11.784  22.417  0.00  0.00    +0.418 C 
ATOM     48  F   UNL     1      -0.229  10.753  23.067  0.00  0.00    -0.166 F 
ATOM     49  F   UNL     1      -2.129  11.410  22.235  0.00  0.00    -0.166 F 
ATOM     50  F   UNL     1      -0.868  12.820  23.298  0.00  0.00    -0.166 F 
ENDBRANCH  39  47
ENDBRANCH   9  32
BRANCH   1  51
ATOM     51  C   UNL     1       1.550   4.511  20.837  0.00  0.00    -0.012 C 
ATOM     52  H   UNL     1       0.589   4.772  21.301  0.00  0.00    +0.035 HD
BRANCH  51  53
ATOM     53  C   UNL     1       2.542   4.320  21.993  0.00  0.00    -0.058 C 
ATOM     54  H   UNL     1       2.657   5.246  22.566  0.00  0.00    +0.024 HD
ATOM     55  H   UNL     1       2.191   3.548  22.686  0.00  0.00    +0.024 HD
ATOM     56  H   UNL     1       3.532   4.019  21.639  0.00  0.00    +0.024 HD
ENDBRANCH  51  53
BRANCH  51  57
ATOM     57  C   UNL     1       1.365   3.228  20.001  0.00  0.00    +0.014 C 
ATOM     58  H   UNL     1       0.639   2.560  20.481  0.00  0.00    +0.035 HD
ATOM     59  H   UNL     1       0.939   3.475  19.019  0.00  0.00    +0.035 HD
BRANCH  57  60
ATOM     60  C   UNL     1       2.645   2.493  19.800  0.00  0.00    +0.134 A 
ATOM     61  N   UNL     1       3.559   2.254  20.721  0.00  0.00    -0.135 NA
ATOM     62  N   UNL     1       4.579   1.543  20.136  0.00  0.00    -0.138 NA
ATOM     63  C   UNL     1       4.271   1.371  18.872  0.00  0.00    +0.120 A 
ATOM     64  N   UNL     1       3.068   1.950  18.614  0.00  0.00    -0.320 N 
ATOM     65  H   UNL     1       4.870   0.852  18.136  0.00  0.00    +0.105 HD
BRANCH  64  66
ATOM     66  C   UNL     1       2.392   1.978  17.344  0.00  0.00    +0.014 C 
ATOM     67  H   UNL     1       3.140   2.010  16.548  0.00  0.00    +0.046 HD
ATOM     68  H   UNL     1       1.759   2.868  17.287  0.00  0.00    +0.046 HD
ATOM     69  H   UNL     1       1.776   1.080  17.259  0.00  0.00    +0.046 HD
ENDBRANCH  64  66
ENDBRANCH  57  60
ENDBRANCH  51  57
ENDBRANCH   1  51
TORSDOF 8
ENDMDL
MODEL 2
REMARK VINA RESULT:    -8.110      2.453      2.992
REMARK INTER + INTRA:         -10.468
REMARK INTER:                 -10.810
REMARK INTRA:                   0.342
REMARK UNBOUND:                 0.961
REMARK  Name = 
REMARK  8 active torsions:
REMARK  status: ('A' for Active; 'I' for Inactive)
REMARK    1  A    between atoms: C_1  and  C_2
REMARK    2  A    between atoms: C_2  and  C_3
REMARK    3  A    between atoms: C_2  and  C_10
REMARK    4  A    between atoms: C_3  and  C_4
REMARK    5  A    between atoms: N_8  and  C_9
REMARK    6  A    between atoms: N_16  and  C_17
REMARK    7  A    between atoms: C_24  and  N_26
REMARK    8  A    between atoms: C_33  and  C_34
REMARK                            x       y       z     vdW  Elec       q    Type
REMARK                         _______ _______ _______ _____ _____    ______ ____
ROOT
ATOM      1  C   UNL     1       1.997   6.734  19.696  0.00  0.00    -0.038 A 
ATOM      2  C   UNL     1       2.844   6.312  18.665  0.00  0.00    -0.018 A 
ATOM      3  C   UNL     1       3.242   7.230  17.710  0.00  0.00    +0.128 A 
ATOM      4  N   UNL     1       4.096   6.941  16.648  0.00  0.00    -0.254 N 
ATOM      5  C   UNL     1       4.800   5.792  16.409  0.00  0.00    +0.305 C 
ATOM      6  O   UNL     1       4.824   4.794  17.119  0.00  0.00    -0.252 OA
ATOM      7  N   UNL     1       5.529   5.894  15.241  0.00  0.00    -0.296 N 
ATOM      8  N   UNL     1       2.832   8.511  17.722  0.00  0.00    -0.217 NA
ATOM      9  C   UNL     1       2.020   8.941  18.706  0.00  0.00    +0.130 A 
ATOM     10  C   UNL     1       1.594   8.076  19.713  0.00  0.00    -0.018 A 
ATOM     11  H   UNL     1       3.175   5.283  18.626  0.00  0.00    +0.065 HD
ATOM     12  H   UNL     1       4.292   7.759  16.090  0.00  0.00    +0.158 HD
ATOM     13  H   UNL     1       5.163   6.540  14.557  0.00  0.00    +0.151 HD
ATOM     14  H   UNL     1       0.955   8.423  20.516  0.00  0.00    +0.065 HD
ENDROOT
BRANCH   7  15
ATOM     15  C   UNL     1       6.306   4.770  14.731  0.00  0.00    +0.025 C 
ATOM     16  C   UNL     1       7.662   5.260  14.193  0.00  0.00    -0.034 C 
ATOM     17  C   UNL     1       7.615   5.536  12.695  0.00  0.00    -0.051 C 
ATOM     18  C   UNL     1       7.262   4.277  11.898  0.00  0.00    -0.053 C 
ATOM     19  C   UNL     1       6.392   3.286  12.674  0.00  0.00    -0.051 C 
ATOM     20  C   UNL     1       5.493   3.990  13.682  0.00  0.00    -0.034 C 
ATOM     21  H   UNL     1       6.509   4.107  15.583  0.00  0.00    +0.050 HD
ATOM     22  H   UNL     1       7.996   6.156  14.729  0.00  0.00    +0.028 HD
ATOM     23  H   UNL     1       8.419   4.486  14.378  0.00  0.00    +0.028 HD
ATOM     24  H   UNL     1       8.578   5.930  12.351  0.00  0.00    +0.027 HD
ATOM     25  H   UNL     1       6.869   6.314  12.493  0.00  0.00    +0.027 HD
ATOM     26  H   UNL     1       6.753   4.579  10.974  0.00  0.00    +0.027 HD
ATOM     27  H   UNL     1       8.183   3.767  11.587  0.00  0.00    +0.027 HD
ATOM     28  H   UNL     1       7.036   2.573  13.203  0.00  0.00    +0.027 HD
ATOM     29  H   UNL     1       5.791   2.699  11.970  0.00  0.00    +0.027 HD
ATOM     30  H   UNL     1       4.818   4.666  13.140  0.00  0.00    +0.028 HD
ATOM     31  H   UNL     1       4.851   3.257  14.185  0.00  0.00    +0.028 HD
ENDBRANCH   7  15
BRANCH   9  32
ATOM     32  N   UNL     1       1.614  10.293  18.694  0.00  0.00    -0.248 N 
ATOM     33  C   UNL     1       2.524  11.397  18.458  0.00  0.00    +0.048 C 
ATOM     34  C   UNL     1       1.639  12.598  18.548  0.00  0.00    -0.006 A 
ATOM     35  C   UNL     1       0.334  12.194  18.813  0.00  0.00    +0.042 A 
ATOM     36  C   UNL     1      -0.710  13.089  18.950  0.00  0.00    -0.049 A 
ATOM     37  C   UNL     1      -0.417  14.446  18.811  0.00  0.00    -0.060 A 
ATOM     38  C   UNL     1       0.898  14.871  18.541  0.00  0.00    -0.050 A 
ATOM     39  C   UNL     1       1.952  13.948  18.405  0.00  0.00    +0.060 A 
ATOM     40  C   UNL     1       0.305  10.727  18.905  0.00  0.00    +0.253 C 
ATOM     41  O   UNL     1      -0.728  10.123  19.127  0.00  0.00    -0.270 OA
ATOM     42  H   UNL     1       2.961  11.309  17.458  0.00  0.00    +0.052 HD
ATOM     43  H   UNL     1       3.291  11.419  19.239  0.00  0.00    +0.052 HD
ATOM     44  H   UNL     1      -1.718  12.742  19.157  0.00  0.00    +0.063 HD
ATOM     45  H   UNL     1      -1.214  15.182  18.911  0.00  0.00    +0.062 HD
ATOM     46  H   UNL     1       1.090  15.939  18.436  0.00  0.00    +0.062 HD
BRANCH  39  47
ATOM     47  C   UNL     1       3.358  14.389  18.106  0.00  0.00    +0.418 C 
ATOM     48  F   UNL     1       4.200  13.371  17.785  0.00  0.00    -0.166 F 
ATOM     49  F   UNL     1       3.927  15.034  19.162  0.00  0.00    -0.166 F 
ATOM     50  F   UNL     1       3.411  15.267  17.066  0.00  0.00    -0.166 F 
ENDBRANCH  39  47
ENDBRANCH   9  32
BRANCH   1  51
ATOM     51  C   UNL     1       1.587   5.742  20.776  0.00  0.00    -0.012 C 
ATOM     52  H   UNL     1       1.112   6.312  21.587  0.00  0.00    +0.035 HD
BRANCH  51  53
ATOM     53  C   UNL     1       2.798   5.038  21.405  0.00  0.00    -0.058 C 
ATOM     54  H   UNL     1       3.397   4.533  20.640  0.00  0.00    +0.024 HD
ATOM     55  H   UNL     1       3.451   5.759  21.908  0.00  0.00    +0.024 HD
ATOM     56  H   UNL     1       2.501   4.291  22.146  0.00  0.00    +0.024 HD
ENDBRANCH  51  53
BRANCH  51  57
ATOM     57  C   UNL     1       0.560   4.746  20.201  0.00  0.00    +0.014 C 
ATOM     58  H   UNL     1      -0.096   4.371  20.997  0.00  0.00    +0.035 HD
ATOM     59  H   UNL     1      -0.101   5.256  19.486  0.00  0.00    +0.035 HD
BRANCH  57  60
ATOM     60  C   UNL     1       1.210   3.592  19.520  0.00  0.00    +0.134 A 
ATOM     61  N   UNL     1       1.438   3.478  18.226  0.00  0.00    -0.135 NA
ATOM     62  N   UNL     1       2.062   2.274  18.006  0.00  0.00    -0.138 NA
ATOM     63  C   UNL     1       2.194   1.676  19.166  0.00  0.00    +0.120 A 
ATOM     64  N   UNL     1       1.673   2.463  20.146  0.00  0.00    -0.320 N 
ATOM     65  H   UNL     1       2.644   0.707  19.335  0.00  0.00    +0.105 HD
BRANCH  64  66
ATOM     66  C   UNL     1       1.626   2.155  21.550  0.00  0.00    +0.014 C 
ATOM     67  H   UNL     1       1.379   1.096  21.670  0.00  0.00    +0.046 HD
ATOM     68  H   UNL     1       0.859   2.766  22.033  0.00  0.00    +0.046 HD
ATOM     69  H   UNL     1       2.603   2.374  21.987  0.00  0.00    +0.046 HD
ENDBRANCH  64  66
ENDBRANCH  57  60
ENDBRANCH  51  57
ENDBRANCH   1  51
TORSDOF 8
ENDMDL
MODEL 3
REMARK VINA RESULT:    -7.690      1.225      1.639
REMARK INTER + INTRA:          -9.876
REMARK INTER:                 -10.116
REMARK INTRA:                   0.240
REMARK UNBOUND:                 0.961
REMARK  Name = 
REMARK  8 active torsions:
REMARK  status: ('A' for Active; 'I' for Inactive)
REMARK    1  A    between atoms: C_1  and  C_2
REMARK    2  A    between atoms: C_2  and  C_3
REMARK    3  A    between atoms: C_2  and  C_10
REMARK    4  A    between atoms: C_3  and  C_4
REMARK    5  A    between atoms: N_8  and  C_9
REMARK    6  A    between atoms: N_16  and  C_17
REMARK    7  A    between atoms: C_24  and  N_26
REMARK    8  A    between atoms: C_33  and  C_34
REMARK                            x       y       z     vdW  Elec       q    Type
REMARK                         _______ _______ _______ _____ _____    ______ ____
ROOT
ATOM      1  C   UNL     1       2.003   6.496  19.714  0.00  0.00    -0.038 A 
ATOM      2  C   UNL     1       2.867   6.136  18.674  0.00  0.00    -0.018 A 
ATOM      3  C   UNL     1       3.235   7.095  17.747  0.00  0.00    +0.128 A 
ATOM      4  N   UNL     1       4.102   6.868  16.681  0.00  0.00    -0.254 N 
ATOM      5  C   UNL     1       4.848   5.752  16.412  0.00  0.00    +0.305 C 
ATOM      6  O   UNL     1       4.905   4.735  17.093  0.00  0.00    -0.252 OA
ATOM      7  N   UNL     1       5.576   5.913  15.250  0.00  0.00    -0.296 N 
ATOM      8  N   UNL     1       2.779   8.359  17.795  0.00  0.00    -0.217 NA
ATOM      9  C   UNL     1       1.949   8.731  18.788  0.00  0.00    +0.130 A 
ATOM     10  C   UNL     1       1.552   7.822  19.768  0.00  0.00    -0.018 A 
ATOM     11  H   UNL     1       3.236   5.121  18.606  0.00  0.00    +0.065 HD
ATOM     12  H   UNL     1       4.271   7.708  16.147  0.00  0.00    +0.158 HD
ATOM     13  H   UNL     1       5.189   6.565  14.583  0.00  0.00    +0.151 HD
ATOM     14  H   UNL     1       0.899   8.123  20.577  0.00  0.00    +0.065 HD
ENDROOT
BRANCH   7  15
ATOM     15  C   UNL     1       6.395   4.834  14.710  0.00  0.00    +0.025 C 
ATOM     16  C   UNL     1       7.704   5.396  14.131  0.00  0.00    -0.034 C 
ATOM     17  C   UNL     1       7.594   5.672  12.636  0.00  0.00    -0.051 C 
ATOM     18  C   UNL     1       7.283   4.399  11.846  0.00  0.00    -0.053 C 
ATOM     19  C   UNL     1       6.492   3.361  12.646  0.00  0.00    -0.051 C 
ATOM     20  C   UNL     1       5.590   4.014  13.685  0.00  0.00    -0.034 C 
ATOM     21  H   UNL     1       6.660   4.180  15.553  0.00  0.00    +0.050 HD
ATOM     22  H   UNL     1       8.007   6.307  14.660  0.00  0.00    +0.028 HD
ATOM     23  H   UNL     1       8.507   4.663  14.288  0.00  0.00    +0.028 HD
ATOM     24  H   UNL     1       8.523   6.118  12.263  0.00  0.00    +0.027 HD
ATOM     25  H   UNL     1       6.802   6.410  12.461  0.00  0.00    +0.027 HD
ATOM     26  H   UNL     1       6.729   4.674  10.940  0.00  0.00    +0.027 HD
ATOM     27  H   UNL     1       8.218   3.939  11.503  0.00  0.00    +0.027 HD
ATOM     28  H   UNL     1       7.189   2.682  13.151  0.00  0.00    +0.027 HD
ATOM     29  H   UNL     1       5.900   2.744  11.960  0.00  0.00    +0.027 HD
ATOM     30  H   UNL     1       4.863   4.654  13.168  0.00  0.00    +0.028 HD
ATOM     31  H   UNL     1       5.004   3.247  14.205  0.00  0.00    +0.028 HD
ENDBRANCH   7  15
BRANCH   9  32
ATOM     32  N   UNL     1       1.495  10.067  18.813  0.00  0.00    -0.248 N 
ATOM     33  C   UNL     1       0.239  10.472  19.414  0.00  0.00    +0.048 C 
ATOM     34  C   UNL     1       0.208  11.948  19.185  0.00  0.00    -0.006 A 
ATOM     35  C   UNL     1       1.360  12.338  18.509  0.00  0.00    +0.042 A 
ATOM     36  C   UNL     1       1.611  13.651  18.159  0.00  0.00    -0.049 A 
ATOM     37  C   UNL     1       0.655  14.605  18.510  0.00  0.00    -0.060 A 
ATOM     38  C   UNL     1      -0.515  14.228  19.196  0.00  0.00    -0.050 A 
ATOM     39  C   UNL     1      -0.758  12.886  19.546  0.00  0.00    +0.060 A 
ATOM     40  C   UNL     1       2.189  11.148  18.268  0.00  0.00    +0.253 C 
ATOM     41  O   UNL     1       3.260  11.223  17.694  0.00  0.00    -0.270 OA
ATOM     42  H   UNL     1       0.250  10.244  20.484  0.00  0.00    +0.052 HD
ATOM     43  H   UNL     1      -0.593   9.980  18.899  0.00  0.00    +0.052 HD
ATOM     44  H   UNL     1       2.520  13.923  17.631  0.00  0.00    +0.063 HD
ATOM     45  H   UNL     1       0.818  15.650  18.252  0.00  0.00    +0.062 HD
ATOM     46  H   UNL     1      -1.239  15.000  19.457  0.00  0.00    +0.062 HD
BRANCH  39  47
ATOM     47  C   UNL     1      -1.999  12.472  20.288  0.00  0.00    +0.418 C 
ATOM     48  F   UNL     1      -1.753  11.820  21.456  0.00  0.00    -0.166 F 
ATOM     49  F   UNL     1      -2.784  11.642  19.547  0.00  0.00    -0.166 F 
ATOM     50  F   UNL     1      -2.786  13.537  20.606  0.00  0.00    -0.166 F 
ENDBRANCH  39  47
ENDBRANCH   9  32
BRANCH   1  51
ATOM     51  C   UNL     1       1.626   5.460  20.762  0.00  0.00    -0.012 C 
ATOM     52  H   UNL     1       1.092   5.983  21.568  0.00  0.00    +0.035 HD
BRANCH  51  53
ATOM     53  C   UNL     1       2.861   4.823  21.416  0.00  0.00    -0.058 C 
ATOM     54  H   UNL     1       2.847   3.734  21.299  0.00  0.00    +0.024 HD
ATOM     55  H   UNL     1       3.782   5.191  20.953  0.00  0.00    +0.024 HD
ATOM     56  H   UNL     1       2.921   5.044  22.486  0.00  0.00    +0.024 HD
ENDBRANCH  51  53
BRANCH  51  57
ATOM     57  C   UNL     1       0.683   4.412  20.139  0.00  0.00    +0.014 C 
ATOM     58  H   UNL     1       0.078   3.930  20.917  0.00  0.00    +0.035 HD
ATOM     59  H   UNL     1      -0.034   4.902  19.466  0.00  0.00    +0.035 HD
BRANCH  57  60
ATOM     60  C   UNL     1       1.422   3.366  19.378  0.00  0.00    +0.134 A 
ATOM     61  N   UNL     1       1.612   3.339  18.074  0.00  0.00    -0.135 NA
ATOM     62  N   UNL     1       2.348   2.218  17.772  0.00  0.00    -0.138 NA
ATOM     63  C   UNL     1       2.585   1.582  18.895  0.00  0.00    +0.120 A 
ATOM     64  N   UNL     1       2.023   2.264  19.930  0.00  0.00    -0.320 N 
ATOM     65  H   UNL     1       3.138   0.659  18.999  0.00  0.00    +0.105 HD
BRANCH  64  66
ATOM     66  C   UNL     1       2.061   1.885  21.317  0.00  0.00    +0.014 C 
ATOM     67  H   UNL     1       1.712   2.726  21.922  0.00  0.00    +0.046 HD
ATOM     68  H   UNL     1       3.088   1.634  21.599  0.00  0.00    +0.046 HD
ATOM     69  H   UNL     1       1.416   1.014  21.458  0.00  0.00    +0.046 HD
ENDBRANCH  64  66
ENDBRANCH  57  60
ENDBRANCH  51  57
ENDBRANCH   1  51
TORSDOF 8
ENDMDL
MODEL 4
REMARK VINA RESULT:    -7.477      4.347     11.171
REMARK INTER + INTRA:          -9.576
REMARK INTER:                 -10.271
REMARK INTRA:                   0.696
REMARK UNBOUND:                 0.961
REMARK  Name = 
REMARK  8 active torsions:
REMARK  status: ('A' for Active; 'I' for Inactive)
REMARK    1  A    between atoms: C_1  and  C_2
REMARK    2  A    between atoms: C_2  and  C_3
REMARK    3  A    between atoms: C_2  and  C_10
REMARK    4  A    between atoms: C_3  and  C_4
REMARK    5  A    between atoms: N_8  and  C_9
REMARK    6  A    between atoms: N_16  and  C_17
REMARK    7  A    between atoms: C_24  and  N_26
REMARK    8  A    between atoms: C_33  and  C_34
REMARK                            x       y       z     vdW  Elec       q    Type
REMARK                         _______ _______ _______ _____ _____    ______ ____
ROOT
ATOM      1  C   UNL     1       0.974  12.174  19.087  0.00  0.00    -0.038 A 
ATOM      2  C   UNL     1      -0.007  12.281  20.079  0.00  0.00    -0.018 A 
ATOM      3  C   UNL     1      -0.331  11.161  20.822  0.00  0.00    +0.128 A 
ATOM      4  N   UNL     1      -1.273  11.143  21.849  0.00  0.00    -0.254 N 
ATOM      5  C   UNL     1      -1.942  12.197  22.410  0.00  0.00    +0.305 C 
ATOM      6  O   UNL     1      -1.811  13.379  22.117  0.00  0.00    -0.252 OA
ATOM      7  N   UNL     1      -2.802  11.764  23.399  0.00  0.00    -0.296 N 
ATOM      8  N   UNL     1       0.247   9.964  20.616  0.00  0.00    -0.217 NA
ATOM      9  C   UNL     1       1.195   9.836  19.669  0.00  0.00    +0.130 A 
ATOM     10  C   UNL     1       1.586  10.928  18.896  0.00  0.00    -0.018 A 
ATOM     11  H   UNL     1      -0.496  13.231  20.253  0.00  0.00    +0.065 HD
ATOM     12  H   UNL     1      -1.331  10.237  22.290  0.00  0.00    +0.158 HD
ATOM     13  H   UNL     1      -3.129  10.813  23.305  0.00  0.00    +0.151 HD
ATOM     14  H   UNL     1       2.362  10.832  18.145  0.00  0.00    +0.065 HD
ENDROOT
BRANCH   7  15
ATOM     15  C   UNL     1      -3.684  12.692  24.098  0.00  0.00    +0.025 C 
ATOM     16  C   UNL     1      -5.055  12.751  23.403  0.00  0.00    -0.034 C 
ATOM     17  C   UNL     1      -5.133  13.889  22.392  0.00  0.00    -0.051 C 
ATOM     18  C   UNL     1      -4.926  15.252  23.056  0.00  0.00    -0.053 C 
ATOM     19  C   UNL     1      -4.043  15.196  24.304  0.00  0.00    -0.051 C 
ATOM     20  C   UNL     1      -3.017  14.074  24.222  0.00  0.00    -0.034 C 
ATOM     21  H   UNL     1      -3.843  12.286  25.107  0.00  0.00    +0.050 HD
ATOM     22  H   UNL     1      -5.288  11.797  22.914  0.00  0.00    +0.028 HD
ATOM     23  H   UNL     1      -5.833  12.909  24.162  0.00  0.00    +0.028 HD
ATOM     24  H   UNL     1      -6.101  13.874  21.878  0.00  0.00    +0.027 HD
ATOM     25  H   UNL     1      -4.368  13.741  21.620  0.00  0.00    +0.027 HD
ATOM     26  H   UNL     1      -4.490  15.938  22.320  0.00  0.00    +0.027 HD
ATOM     27  H   UNL     1      -5.898  15.679  23.333  0.00  0.00    +0.027 HD
ATOM     28  H   UNL     1      -4.673  15.042  25.190  0.00  0.00    +0.027 HD
ATOM     29  H   UNL     1      -3.544  16.161  24.443  0.00  0.00    +0.027 HD
ATOM     30  H   UNL     1      -2.359  14.261  23.362  0.00  0.00    +0.028 HD
ATOM     31  H   UNL     1      -2.371  14.093  25.109  0.00  0.00    +0.028 HD
ENDBRANCH   7  15
BRANCH   9  32
ATOM     32  N   UNL     1       1.786   8.568  19.484  0.00  0.00    -0.248 N 
ATOM     33  C   UNL     1       2.708   8.268  18.404  0.00  0.00    +0.048 C 
ATOM     34  C   UNL     1       3.043   6.829  18.629  0.00  0.00    -0.006 A 
ATOM     35  C   UNL     1       2.361   6.363  19.749  0.00  0.00    +0.042 A 
ATOM     36  C   UNL     1       2.475   5.062  20.203  0.00  0.00    -0.049 A 
ATOM     37  C   UNL     1       3.315   4.203  19.494  0.00  0.00    -0.060 A 
ATOM     38  C   UNL     1       4.013   4.660  18.359  0.00  0.00    -0.050 A 
ATOM     39  C   UNL     1       3.887   5.987  17.908  0.00  0.00    +0.060 A 
ATOM     40  C   UNL     1       1.559   7.463  20.304  0.00  0.00    +0.253 C 
ATOM     41  O   UNL     1       0.870   7.312  21.295  0.00  0.00    -0.270 OA
ATOM     42  H   UNL     1       3.601   8.894  18.496  0.00  0.00    +0.052 HD
ATOM     43  H   UNL     1       2.207   8.406  17.441  0.00  0.00    +0.052 HD
ATOM     44  H   UNL     1       1.929   4.729  21.081  0.00  0.00    +0.063 HD
ATOM     45  H   UNL     1       3.432   3.172  19.822  0.00  0.00    +0.062 HD
ATOM     46  H   UNL     1       4.663   3.963  17.831  0.00  0.00    +0.062 HD
BRANCH  39  47
ATOM     47  C   UNL     1       4.637   6.490  16.704  0.00  0.00    +0.418 C 
ATOM     48  F   UNL     1       3.944   7.393  15.960  0.00  0.00    -0.166 F 
ATOM     49  F   UNL     1       4.976   5.480  15.856  0.00  0.00    -0.166 F 
ATOM     50  F   UNL     1       5.807   7.095  17.044  0.00  0.00    -0.166 F 
ENDBRANCH  39  47
ENDBRANCH   9  32
BRANCH   1  51
ATOM     51  C   UNL     1       1.369  13.411  18.292  0.00  0.00    -0.012 C 
ATOM     52  H   UNL     1       0.642  13.526  17.475  0.00  0.00    +0.035 HD
BRANCH  51  53
ATOM     53  C   UNL     1       2.740  13.252  17.620  0.00  0.00    -0.058 C 
ATOM     54  H   UNL     1       2.660  13.376  16.534  0.00  0.00    +0.024 HD
ATOM     55  H   UNL     1       3.444  14.008  17.984  0.00  0.00    +0.024 HD
ATOM     56  H   UNL     1       3.183  12.271  17.814  0.00  0.00    +0.024 HD
ENDBRANCH  51  53
BRANCH  51  57
ATOM     57  C   UNL     1       1.298  14.655  19.200  0.00  0.00    +0.014 C 
ATOM     58  H   UNL     1       1.301  15.571  18.596  0.00  0.00    +0.035 HD
ATOM     59  H   UNL     1       0.348  14.666  19.752  0.00  0.00    +0.035 HD
BRANCH  57  60
ATOM     60  C   UNL     1       2.423  14.709  20.175  0.00  0.00    +0.134 A 
ATOM     61  N   UNL     1       3.698  14.512  19.904  0.00  0.00    -0.135 NA
ATOM     62  N   UNL     1       4.411  14.660  21.070  0.00  0.00    -0.138 NA
ATOM     63  C   UNL     1       3.556  14.936  22.027  0.00  0.00    +0.120 A 
ATOM     64  N   UNL     1       2.297  14.976  21.514  0.00  0.00    -0.320 N 
ATOM     65  H   UNL     1       3.798  15.107  23.067  0.00  0.00    +0.105 HD
BRANCH  64  66
ATOM     66  C   UNL     1       1.088  15.244  22.247  0.00  0.00    +0.014 C 
ATOM     67  H   UNL     1       1.286  15.110  23.314  0.00  0.00    +0.046 HD
ATOM     68  H   UNL     1       0.306  14.548  21.930  0.00  0.00    +0.046 HD
ATOM     69  H   UNL     1       0.776  16.270  22.038  0.00  0.00    +0.046 HD
ENDBRANCH  64  66
ENDBRANCH  57  60
ENDBRANCH  51  57
ENDBRANCH   1  51
TORSDOF 8
ENDMDL
MODEL 5
REMARK VINA RESULT:    -7.268      2.095      2.791
REMARK INTER + INTRA:          -9.281
REMARK INTER:                 -10.056
REMARK INTRA:                   0.775
REMARK UNBOUND:                 0.961
REMARK  Name = 
REMARK  8 active torsions:
REMARK  status: ('A' for Active; 'I' for Inactive)
REMARK    1  A    between atoms: C_1  and  C_2
REMARK    2  A    between atoms: C_2  and  C_3
REMARK    3  A    between atoms: C_2  and  C_10
REMARK    4  A    between atoms: C_3  and  C_4
REMARK    5  A    between atoms: N_8  and  C_9
REMARK    6  A    between atoms: N_16  and  C_17
REMARK    7  A    between atoms: C_24  and  N_26
REMARK    8  A    between atoms: C_33  and  C_34
REMARK                            x       y       z     vdW  Elec       q    Type
REMARK                         _______ _______ _______ _____ _____    ______ ____
ROOT
ATOM      1  C   UNL     1       1.511   5.851  20.527  0.00  0.00    -0.038 A 
ATOM      2  C   UNL     1       2.431   5.965  19.480  0.00  0.00    -0.018 A 
ATOM      3  C   UNL     1       2.669   7.212  18.931  0.00  0.00    +0.128 A 
ATOM      4  N   UNL     1       3.574   7.459  17.900  0.00  0.00    -0.254 N 
ATOM      5  C   UNL     1       4.476   6.600  17.334  0.00  0.00    +0.305 C 
ATOM      6  O   UNL     1       4.670   5.434  17.658  0.00  0.00    -0.252 OA
ATOM      7  N   UNL     1       5.189   7.224  16.330  0.00  0.00    -0.296 N 
ATOM      8  N   UNL     1       2.035   8.320  19.352  0.00  0.00    -0.217 NA
ATOM      9  C   UNL     1       1.147   8.237  20.361  0.00  0.00    +0.130 A 
ATOM     10  C   UNL     1       0.873   7.016  20.975  0.00  0.00    -0.018 A 
ATOM     11  H   UNL     1       2.944   5.084  19.114  0.00  0.00    +0.065 HD
ATOM     12  H   UNL     1       3.626   8.441  17.674  0.00  0.00    +0.158 HD
ATOM     13  H   UNL     1       4.721   7.999  15.884  0.00  0.00    +0.151 HD
ATOM     14  H   UNL     1       0.172   6.949  21.798  0.00  0.00    +0.065 HD
ENDROOT
BRANCH   7  15
ATOM     15  C   UNL     1       6.161   6.495  15.523  0.00  0.00    +0.025 C 
ATOM     16  C   UNL     1       5.457   5.776  14.360  0.00  0.00    -0.034 C 
ATOM     17  C   UNL     1       5.101   4.337  14.712  0.00  0.00    -0.051 C 
ATOM     18  C   UNL     1       6.346   3.510  15.042  0.00  0.00    -0.053 C 
ATOM     19  C   UNL     1       7.493   4.337  15.626  0.00  0.00    -0.051 C 
ATOM     20  C   UNL     1       6.982   5.540  16.408  0.00  0.00    -0.034 C 
ATOM     21  H   UNL     1       6.840   7.242  15.088  0.00  0.00    +0.050 HD
ATOM     22  H   UNL     1       4.558   6.320  14.050  0.00  0.00    +0.028 HD
ATOM     23  H   UNL     1       6.128   5.763  13.491  0.00  0.00    +0.028 HD
ATOM     24  H   UNL     1       4.557   3.867  13.884  0.00  0.00    +0.027 HD
ATOM     25  H   UNL     1       4.423   4.331  15.574  0.00  0.00    +0.027 HD
ATOM     26  H   UNL     1       6.063   2.715  15.743  0.00  0.00    +0.027 HD
ATOM     27  H   UNL     1       6.704   3.004  14.136  0.00  0.00    +0.027 HD
ATOM     28  H   UNL     1       8.141   4.687  14.812  0.00  0.00    +0.027 HD
ATOM     29  H   UNL     1       8.115   3.701  16.266  0.00  0.00    +0.027 HD
ATOM     30  H   UNL     1       6.375   5.180  17.250  0.00  0.00    +0.028 HD
ATOM     31  H   UNL     1       7.826   6.082  16.852  0.00  0.00    +0.028 HD
ENDBRANCH   7  15
BRANCH   9  32
ATOM     32  N   UNL     1       0.505   9.421  20.784  0.00  0.00    -0.248 N 
ATOM     33  C   UNL     1       0.403  10.611  19.960  0.00  0.00    +0.048 C 
ATOM     34  C   UNL     1      -0.342  11.569  20.833  0.00  0.00    -0.006 A 
ATOM     35  C   UNL     1      -0.633  10.960  22.049  0.00  0.00    +0.042 A 
ATOM     36  C   UNL     1      -1.319  11.606  23.061  0.00  0.00    -0.049 A 
ATOM     37  C   UNL     1      -1.725  12.920  22.827  0.00  0.00    -0.060 A 
ATOM     38  C   UNL     1      -1.439  13.550  21.601  0.00  0.00    -0.050 A 
ATOM     39  C   UNL     1      -0.740  12.880  20.579  0.00  0.00    +0.060 A 
ATOM     40  C   UNL     1      -0.101   9.590  22.029  0.00  0.00    +0.253 C 
ATOM     41  O   UNL     1      -0.230   8.842  22.980  0.00  0.00    -0.270 OA
ATOM     42  H   UNL     1      -0.169  10.385  19.054  0.00  0.00    +0.052 HD
ATOM     43  H   UNL     1       1.403  10.990  19.730  0.00  0.00    +0.052 HD
ATOM     44  H   UNL     1      -1.530  11.102  24.000  0.00  0.00    +0.063 HD
ATOM     45  H   UNL     1      -2.268  13.461  23.600  0.00  0.00    +0.062 HD
ATOM     46  H   UNL     1      -1.774  14.577  21.451  0.00  0.00    +0.062 HD
BRANCH  39  47
ATOM     47  C   UNL     1      -0.439  13.540  19.261  0.00  0.00    +0.418 C 
ATOM     48  F   UNL     1      -1.027  12.935  18.195  0.00  0.00    -0.166 F 
ATOM     49  F   UNL     1       0.897  13.563  18.995  0.00  0.00    -0.166 F 
ATOM     50  F   UNL     1      -0.844  14.839  19.232  0.00  0.00    -0.166 F 
ENDBRANCH  39  47
ENDBRANCH   9  32
BRANCH   1  51
ATOM     51  C   UNL     1       1.273   4.491  21.167  0.00  0.00    -0.012 C 
ATOM     52  H   UNL     1       0.575   4.635  22.003  0.00  0.00    +0.035 HD
BRANCH  51  53
ATOM     53  C   UNL     1       2.555   3.908  21.780  0.00  0.00    -0.058 C 
ATOM     54  H   UNL     1       2.321   3.245  22.620  0.00  0.00    +0.024 HD
ATOM     55  H   UNL     1       3.108   3.318  21.042  0.00  0.00    +0.024 HD
ATOM     56  H   UNL     1       3.228   4.689  22.147  0.00  0.00    +0.024 HD
ENDBRANCH  51  53
BRANCH  51  57
ATOM     57  C   UNL     1       0.628   3.541  20.138  0.00  0.00    +0.014 C 
ATOM     58  H   UNL     1      -0.012   2.806  20.644  0.00  0.00    +0.035 HD
ATOM     59  H   UNL     1      -0.037   4.104  19.469  0.00  0.00    +0.035 HD
BRANCH  57  60
ATOM     60  C   UNL     1       1.642   2.821  19.318  0.00  0.00    +0.134 A 
ATOM     61  N   UNL     1       2.400   1.819  19.719  0.00  0.00    -0.135 NA
ATOM     62  N   UNL     1       3.191   1.432  18.664  0.00  0.00    -0.138 NA
ATOM     63  C   UNL     1       2.904   2.209  17.645  0.00  0.00    +0.120 A 
ATOM     64  N   UNL     1       1.939   3.096  18.008  0.00  0.00    -0.320 N 
ATOM     65  H   UNL     1       3.356   2.164  16.664  0.00  0.00    +0.105 HD
BRANCH  64  66
ATOM     66  C   UNL     1       1.362   4.114  17.171  0.00  0.00    +0.014 C 
ATOM     67  H   UNL     1       1.993   5.005  17.213  0.00  0.00    +0.046 HD
ATOM     68  H   UNL     1       0.359   4.358  17.532  0.00  0.00    +0.046 HD
ATOM     69  H   UNL     1       1.303   3.730  16.149  0.00  0.00    +0.046 HD
ENDBRANCH  64  66
ENDBRANCH  57  60
ENDBRANCH  51  57
ENDBRANCH   1  51
TORSDOF 8
ENDMDL
MODEL 6
REMARK VINA RESULT:    -7.144      3.964     10.881
REMARK INTER + INTRA:          -9.106
REMARK INTER:                  -9.862
REMARK INTRA:                   0.756
REMARK UNBOUND:                 0.961
REMARK  Name = 
REMARK  8 active torsions:
REMARK  status: ('A' for Active; 'I' for Inactive)
REMARK    1  A    between atoms: C_1  and  C_2
REMARK    2  A    between atoms: C_2  and  C_3
REMARK    3  A    between atoms: C_2  and  C_10
REMARK    4  A    between atoms: C_3  and  C_4
REMARK    5  A    between atoms: N_8  and  C_9
REMARK    6  A    between atoms: N_16  and  C_17
REMARK    7  A    between atoms: C_24  and  N_26
REMARK    8  A    between atoms: C_33  and  C_34
REMARK                            x       y       z     vdW  Elec       q    Type
REMARK                         _______ _______ _______ _____ _____    ______ ____
ROOT
ATOM      1  C   UNL     1       1.161  12.103  19.015  0.00  0.00    -0.038 A 
ATOM      2  C   UNL     1       0.184  12.187  20.013  0.00  0.00    -0.018 A 
ATOM      3  C   UNL     1      -0.183  11.038  20.689  0.00  0.00    +0.128 A 
ATOM      4  N   UNL     1      -1.126  10.994  21.713  0.00  0.00    -0.254 N 
ATOM      5  C   UNL     1      -1.755  12.037  22.338  0.00  0.00    +0.305 C 
ATOM      6  O   UNL     1      -1.579  13.228  22.116  0.00  0.00    -0.252 OA
ATOM      7  N   UNL     1      -2.632  11.579  23.300  0.00  0.00    -0.296 N 
ATOM      8  N   UNL     1       0.348   9.834  20.410  0.00  0.00    -0.217 NA
ATOM      9  C   UNL     1       1.292   9.727  19.456  0.00  0.00    +0.130 A 
ATOM     10  C   UNL     1       1.726  10.848  18.749  0.00  0.00    -0.018 A 
ATOM     11  H   UNL     1      -0.268  13.143  20.245  0.00  0.00    +0.065 HD
ATOM     12  H   UNL     1      -1.219  10.066  22.099  0.00  0.00    +0.158 HD
ATOM     13  H   UNL     1      -2.995  10.648  23.149  0.00  0.00    +0.151 HD
ATOM     14  H   UNL     1       2.498  10.768  17.993  0.00  0.00    +0.065 HD
ENDROOT
BRANCH   7  15
ATOM     15  C   UNL     1      -3.479  12.496  24.055  0.00  0.00    +0.025 C 
ATOM     16  C   UNL     1      -4.837  12.667  23.353  0.00  0.00    -0.034 C 
ATOM     17  C   UNL     1      -4.850  13.875  22.424  0.00  0.00    -0.051 C 
ATOM     18  C   UNL     1      -4.589  15.177  23.184  0.00  0.00    -0.053 C 
ATOM     19  C   UNL     1      -3.724  14.993  24.433  0.00  0.00    -0.051 C 
ATOM     20  C   UNL     1      -2.750  13.833  24.282  0.00  0.00    -0.034 C 
ATOM     21  H   UNL     1      -3.668  12.029  25.031  0.00  0.00    +0.050 HD
ATOM     22  H   UNL     1      -5.107  11.762  22.797  0.00  0.00    +0.028 HD
ATOM     23  H   UNL     1      -5.616  12.809  24.114  0.00  0.00    +0.028 HD
ATOM     24  H   UNL     1      -5.812  13.942  21.902  0.00  0.00    +0.027 HD
ATOM     25  H   UNL     1      -4.083  13.746  21.650  0.00  0.00    +0.027 HD
ATOM     26  H   UNL     1      -4.113  15.892  22.502  0.00  0.00    +0.027 HD
ATOM     27  H   UNL     1      -5.543  15.630  23.482  0.00  0.00    +0.027 HD
ATOM     28  H   UNL     1      -4.371  14.808  25.300  0.00  0.00    +0.027 HD
ATOM     29  H   UNL     1      -3.182  15.922  24.643  0.00  0.00    +0.027 HD
ATOM     30  H   UNL     1      -2.074  14.048  23.443  0.00  0.00    +0.028 HD
ATOM     31  H   UNL     1      -2.115  13.759  25.173  0.00  0.00    +0.028 HD
ENDBRANCH   7  15
BRANCH   9  32
ATOM     32  N   UNL     1       1.835   8.451  19.194  0.00  0.00    -0.248 N 
ATOM     33  C   UNL     1       1.571   7.287  20.018  0.00  0.00    +0.048 C 
ATOM     34  C   UNL     1       2.357   6.207  19.348  0.00  0.00    -0.006 A 
ATOM     35  C   UNL     1       3.008   6.728  18.235  0.00  0.00    +0.042 A 
ATOM     36  C   UNL     1       3.813   5.960  17.415  0.00  0.00    -0.049 A 
ATOM     37  C   UNL     1       3.960   4.610  17.738  0.00  0.00    -0.060 A 
ATOM     38  C   UNL     1       3.306   4.067  18.860  0.00  0.00    -0.050 A 
ATOM     39  C   UNL     1       2.489   4.861  19.686  0.00  0.00    +0.060 A 
ATOM     40  C   UNL     1       2.682   8.157  18.125  0.00  0.00    +0.253 C 
ATOM     41  O   UNL     1       3.127   8.845  17.225  0.00  0.00    -0.270 OA
ATOM     42  H   UNL     1       0.500   7.058  20.001  0.00  0.00    +0.052 HD
ATOM     43  H   UNL     1       1.936   7.462  21.035  0.00  0.00    +0.052 HD
ATOM     44  H   UNL     1       4.309   6.397  16.553  0.00  0.00    +0.063 HD
ATOM     45  H   UNL     1       4.585   3.973  17.114  0.00  0.00    +0.062 HD
ATOM     46  H   UNL     1       3.440   3.008  19.081  0.00  0.00    +0.062 HD
BRANCH  39  47
ATOM     47  C   UNL     1       1.776   4.290  20.882  0.00  0.00    +0.418 C 
ATOM     48  F   UNL     1       0.436   4.521  20.888  0.00  0.00    -0.166 F 
ATOM     49  F   UNL     1       2.255   4.796  22.052  0.00  0.00    -0.166 F 
ATOM     50  F   UNL     1       1.929   2.940  20.974  0.00  0.00    -0.166 F 
ENDBRANCH  39  47
ENDBRANCH   9  32
BRANCH   1  51
ATOM     51  C   UNL     1       1.604  13.369  18.296  0.00  0.00    -0.012 C 
ATOM     52  H   UNL     1       0.953  13.498  17.420  0.00  0.00    +0.035 HD
BRANCH  51  53
ATOM     53  C   UNL     1       3.034  13.253  17.748  0.00  0.00    -0.058 C 
ATOM     54  H   UNL     1       3.246  12.228  17.423  0.00  0.00    +0.024 HD
ATOM     55  H   UNL     1       3.175  13.907  16.882  0.00  0.00    +0.024 HD
ATOM     56  H   UNL     1       3.784  13.530  18.495  0.00  0.00    +0.024 HD
ENDBRANCH  51  53
BRANCH  51  57
ATOM     57  C   UNL     1       1.427  14.584  19.229  0.00  0.00    +0.014 C 
ATOM     58  H   UNL     1       1.406  15.514  18.647  0.00  0.00    +0.035 HD
ATOM     59  H   UNL     1       0.456  14.529  19.740  0.00  0.00    +0.035 HD
BRANCH  57  60
ATOM     60  C   UNL     1       2.507  14.674  20.252  0.00  0.00    +0.134 A 
ATOM     61  N   UNL     1       3.793  14.475  20.046  0.00  0.00    -0.135 NA
ATOM     62  N   UNL     1       4.451  14.662  21.239  0.00  0.00    -0.138 NA
ATOM     63  C   UNL     1       3.553  14.962  22.147  0.00  0.00    +0.120 A 
ATOM     64  N   UNL     1       2.318  14.980  21.575  0.00  0.00    -0.320 N 
ATOM     65  H   UNL     1       3.746  15.166  23.191  0.00  0.00    +0.105 HD
BRANCH  64  66
ATOM     66  C   UNL     1       1.076  15.264  22.244  0.00  0.00    +0.014 C 
ATOM     67  H   UNL     1       0.304  14.599  21.851  0.00  0.00    +0.046 HD
ATOM     68  H   UNL     1       0.791  16.304  22.059  0.00  0.00    +0.046 HD
ATOM     69  H   UNL     1       1.214  15.104  23.316  0.00  0.00    +0.046 HD
ENDBRANCH  64  66
ENDBRANCH  57  60
ENDBRANCH  51  57
ENDBRANCH   1  51
TORSDOF 8
ENDMDL
MODEL 7
REMARK VINA RESULT:    -7.135      4.272     11.005
REMARK INTER + INTRA:          -9.094
REMARK INTER:                  -9.983
REMARK INTRA:                   0.889
REMARK UNBOUND:                 0.961
REMARK  Name = 
REMARK  8 active torsions:
REMARK  status: ('A' for Active; 'I' for Inactive)
REMARK    1  A    between atoms: C_1  and  C_2
REMARK    2  A    between atoms: C_2  and  C_3
REMARK    3  A    between atoms: C_2  and  C_10
REMARK    4  A    between atoms: C_3  and  C_4
REMARK    5  A    between atoms: N_8  and  C_9
REMARK    6  A    between atoms: N_16  and  C_17
REMARK    7  A    between atoms: C_24  and  N_26
REMARK    8  A    between atoms: C_33  and  C_34
REMARK                            x       y       z     vdW  Elec       q    Type
REMARK                         _______ _______ _______ _____ _____    ______ ____
ROOT
ATOM      1  C   UNL     1       1.178  11.763  19.015  0.00  0.00    -0.038 A 
ATOM      2  C   UNL     1       0.213  11.954  20.010  0.00  0.00    -0.018 A 
ATOM      3  C   UNL     1      -0.149  10.882  20.805  0.00  0.00    +0.128 A 
ATOM      4  N   UNL     1      -1.080  10.947  21.839  0.00  0.00    -0.254 N 
ATOM      5  C   UNL     1      -1.699  12.052  22.360  0.00  0.00    +0.305 C 
ATOM      6  O   UNL     1      -1.521  13.214  22.015  0.00  0.00    -0.252 OA
ATOM      7  N   UNL     1      -2.565  11.699  23.375  0.00  0.00    -0.296 N 
ATOM      8  N   UNL     1       0.375   9.653  20.645  0.00  0.00    -0.217 NA
ATOM      9  C   UNL     1       1.307   9.445  19.697  0.00  0.00    +0.130 A 
ATOM     10  C   UNL     1       1.735  10.485  18.873  0.00  0.00    -0.018 A 
ATOM     11  H   UNL     1      -0.234  12.930  20.147  0.00  0.00    +0.065 HD
ATOM     12  H   UNL     1      -1.171  10.065  22.320  0.00  0.00    +0.158 HD
ATOM     13  H   UNL     1      -2.933  10.760  23.325  0.00  0.00    +0.151 HD
ATOM     14  H   UNL     1       2.498  10.324  18.120  0.00  0.00    +0.065 HD
ENDROOT
BRANCH   7  15
ATOM     15  C   UNL     1      -3.400  12.693  24.041  0.00  0.00    +0.025 C 
ATOM     16  C   UNL     1      -4.771  12.786  23.351  0.00  0.00    -0.034 C 
ATOM     17  C   UNL     1      -4.806  13.885  22.295  0.00  0.00    -0.051 C 
ATOM     18  C   UNL     1      -4.533  15.263  22.903  0.00  0.00    -0.053 C 
ATOM     19  C   UNL     1      -3.645  15.217  24.149  0.00  0.00    -0.051 C 
ATOM     20  C   UNL     1      -2.670  14.047  24.106  0.00  0.00    -0.034 C 
ATOM     21  H   UNL     1      -3.570  12.335  25.066  0.00  0.00    +0.050 HD
ATOM     22  H   UNL     1      -5.050  11.825  22.901  0.00  0.00    +0.028 HD
ATOM     23  H   UNL     1      -5.536  13.009  24.106  0.00  0.00    +0.028 HD
ATOM     24  H   UNL     1      -5.776  13.894  21.787  0.00  0.00    +0.027 HD
ATOM     25  H   UNL     1      -4.053  13.673  21.526  0.00  0.00    +0.027 HD
ATOM     26  H   UNL     1      -4.072  15.899  22.138  0.00  0.00    +0.027 HD
ATOM     27  H   UNL     1      -5.483  15.744  23.168  0.00  0.00    +0.027 HD
ATOM     28  H   UNL     1      -4.275  15.127  25.042  0.00  0.00    +0.027 HD
ATOM     29  H   UNL     1      -3.102  16.164  24.246  0.00  0.00    +0.027 HD
ATOM     30  H   UNL     1      -2.011  14.170  23.236  0.00  0.00    +0.028 HD
ATOM     31  H   UNL     1      -2.019  14.072  24.988  0.00  0.00    +0.028 HD
ENDBRANCH   7  15
BRANCH   9  32
ATOM     32  N   UNL     1       1.843   8.146  19.561  0.00  0.00    -0.248 N 
ATOM     33  C   UNL     1       2.788   7.777  18.525  0.00  0.00    +0.048 C 
ATOM     34  C   UNL     1       3.044   6.329  18.793  0.00  0.00    -0.006 A 
ATOM     35  C   UNL     1       2.299   5.922  19.896  0.00  0.00    +0.042 A 
ATOM     36  C   UNL     1       2.333   4.629  20.382  0.00  0.00    -0.049 A 
ATOM     37  C   UNL     1       3.156   3.715  19.724  0.00  0.00    -0.060 A 
ATOM     38  C   UNL     1       3.918   4.111  18.608  0.00  0.00    -0.050 A 
ATOM     39  C   UNL     1       3.873   5.432  18.123  0.00  0.00    +0.060 A 
ATOM     40  C   UNL     1       1.532   7.072  20.396  0.00  0.00    +0.253 C 
ATOM     41  O   UNL     1       0.799   6.977  21.363  0.00  0.00    -0.270 OA
ATOM     42  H   UNL     1       3.706   8.362  18.637  0.00  0.00    +0.052 HD
ATOM     43  H   UNL     1       2.331   7.916  17.540  0.00  0.00    +0.052 HD
ATOM     44  H   UNL     1       1.740   4.342  21.246  0.00  0.00    +0.063 HD
ATOM     45  H   UNL     1       3.211   2.687  20.079  0.00  0.00    +0.062 HD
ATOM     46  H   UNL     1       4.552   3.371  18.120  0.00  0.00    +0.062 HD
BRANCH  39  47
ATOM     47  C   UNL     1       4.690   5.869  16.938  0.00  0.00    +0.418 C 
ATOM     48  F   UNL     1       4.139   6.896  16.237  0.00  0.00    -0.166 F 
ATOM     49  F   UNL     1       4.880   4.858  16.047  0.00  0.00    -0.166 F 
ATOM     50  F   UNL     1       5.937   6.282  17.298  0.00  0.00    -0.166 F 
ENDBRANCH  39  47
ENDBRANCH   9  32
BRANCH   1  51
ATOM     51  C   UNL     1       1.615  12.946  18.163  0.00  0.00    -0.012 C 
ATOM     52  H   UNL     1       0.872  13.071  17.363  0.00  0.00    +0.035 HD
BRANCH  51  53
ATOM     53  C   UNL     1       2.956  12.688  17.461  0.00  0.00    -0.058 C 
ATOM     54  H   UNL     1       2.799  12.369  16.425  0.00  0.00    +0.024 HD
ATOM     55  H   UNL     1       3.565  13.597  17.435  0.00  0.00    +0.024 HD
ATOM     56  H   UNL     1       3.543  11.914  17.965  0.00  0.00    +0.024 HD
ENDBRANCH  51  53
BRANCH  51  57
ATOM     57  C   UNL     1       1.638  14.224  19.025  0.00  0.00    +0.014 C 
ATOM     58  H   UNL     1       1.605  15.117  18.387  0.00  0.00    +0.035 HD
ATOM     59  H   UNL     1       0.737  14.273  19.652  0.00  0.00    +0.035 HD
BRANCH  57  60
ATOM     60  C   UNL     1       2.841  14.295  19.902  0.00  0.00    +0.134 A 
ATOM     61  N   UNL     1       2.906  13.928  21.166  0.00  0.00    -0.135 NA
ATOM     62  N   UNL     1       4.189  14.143  21.609  0.00  0.00    -0.138 NA
ATOM     63  C   UNL     1       4.877  14.642  20.609  0.00  0.00    +0.120 A 
ATOM     64  N   UNL     1       4.073  14.757  19.517  0.00  0.00    -0.320 N 
ATOM     65  H   UNL     1       5.920  14.925  20.632  0.00  0.00    +0.105 HD
BRANCH  64  66
ATOM     66  C   UNL     1       4.458  15.267  18.228  0.00  0.00    +0.014 C 
ATOM     67  H   UNL     1       5.411  14.816  17.941  0.00  0.00    +0.046 HD
ATOM     68  H   UNL     1       4.569  16.353  18.282  0.00  0.00    +0.046 HD
ATOM     69  H   UNL     1       3.678  15.011  17.506  0.00  0.00    +0.046 HD
ENDBRANCH  64  66
ENDBRANCH  57  60
ENDBRANCH  51  57
ENDBRANCH   1  51
TORSDOF 8
ENDMDL
MODEL 8
REMARK VINA RESULT:    -6.376      4.374     11.144
REMARK INTER + INTRA:          -8.025
REMARK INTER:                  -9.102
REMARK INTRA:                   1.077
REMARK UNBOUND:                 0.961
REMARK  Name = 
REMARK  8 active torsions:
REMARK  status: ('A' for Active; 'I' for Inactive)
REMARK    1  A    between atoms: C_1  and  C_2
REMARK    2  A    between atoms: C_2  and  C_3
REMARK    3  A    between atoms: C_2  and  C_10
REMARK    4  A    between atoms: C_3  and  C_4
REMARK    5  A    between atoms: N_8  and  C_9
REMARK    6  A    between atoms: N_16  and  C_17
REMARK    7  A    between atoms: C_24  and  N_26
REMARK    8  A    between atoms: C_33  and  C_34
REMARK                            x       y       z     vdW  Elec       q    Type
REMARK                         _______ _______ _______ _____ _____    ______ ____
ROOT
ATOM      1  C   UNL     1       1.809  12.529  18.494  0.00  0.00    -0.038 A 
ATOM      2  C   UNL     1       0.590  12.688  19.162  0.00  0.00    -0.018 A 
ATOM      3  C   UNL     1      -0.042  11.570  19.675  0.00  0.00    +0.128 A 
ATOM      4  N   UNL     1      -1.246  11.598  20.376  0.00  0.00    -0.254 N 
ATOM      5  C   UNL     1      -1.954  12.686  20.810  0.00  0.00    +0.305 C 
ATOM      6  O   UNL     1      -1.634  13.861  20.675  0.00  0.00    -0.252 OA
ATOM      7  N   UNL     1      -3.107  12.297  21.462  0.00  0.00    -0.296 N 
ATOM      8  N   UNL     1       0.459  10.329  19.540  0.00  0.00    -0.217 NA
ATOM      9  C   UNL     1       1.632  10.151  18.903  0.00  0.00    +0.130 A 
ATOM     10  C   UNL     1       2.334  11.235  18.379  0.00  0.00    -0.018 A 
ATOM     11  H   UNL     1       0.159  13.675  19.271  0.00  0.00    +0.065 HD
ATOM     12  H   UNL     1      -1.516  10.681  20.698  0.00  0.00    +0.158 HD
ATOM     13  H   UNL     1      -3.475  11.396  21.191  0.00  0.00    +0.151 HD
ATOM     14  H   UNL     1       3.287  11.096  17.881  0.00  0.00    +0.065 HD
ENDROOT
BRANCH   7  15
ATOM     15  C   UNL     1      -4.069  13.276  21.954  0.00  0.00    +0.025 C 
ATOM     16  C   UNL     1      -3.408  14.660  22.073  0.00  0.00    -0.034 C 
ATOM     17  C   UNL     1      -2.868  14.914  23.476  0.00  0.00    -0.051 C 
ATOM     18  C   UNL     1      -3.980  14.874  24.527  0.00  0.00    -0.053 C 
ATOM     19  C   UNL     1      -5.147  13.959  24.147  0.00  0.00    -0.051 C 
ATOM     20  C   UNL     1      -4.694  12.796  23.276  0.00  0.00    -0.034 C 
ATOM     21  H   UNL     1      -4.863  13.354  21.197  0.00  0.00    +0.050 HD
ATOM     22  H   UNL     1      -2.606  14.776  21.335  0.00  0.00    +0.028 HD
ATOM     23  H   UNL     1      -4.155  15.432  21.846  0.00  0.00    +0.028 HD
ATOM     24  H   UNL     1      -2.359  15.884  23.517  0.00  0.00    +0.027 HD
ATOM     25  H   UNL     1      -2.113  14.156  23.717  0.00  0.00    +0.027 HD
ATOM     26  H   UNL     1      -3.548  14.551  25.482  0.00  0.00    +0.027 HD
ATOM     27  H   UNL     1      -4.368  15.887  24.694  0.00  0.00    +0.027 HD
ATOM     28  H   UNL     1      -5.904  14.541  23.606  0.00  0.00    +0.027 HD
ATOM     29  H   UNL     1      -5.632  13.589  25.057  0.00  0.00    +0.027 HD
ATOM     30  H   UNL     1      -3.974  12.190  23.843  0.00  0.00    +0.028 HD
ATOM     31  H   UNL     1      -5.544  12.136  23.063  0.00  0.00    +0.028 HD
ENDBRANCH   7  15
BRANCH   9  32
ATOM     32  N   UNL     1       2.134   8.837  18.785  0.00  0.00    -0.248 N 
ATOM     33  C   UNL     1       3.056   8.425  17.744  0.00  0.00    +0.048 C 
ATOM     34  C   UNL     1       3.280   6.977  18.036  0.00  0.00    -0.006 A 
ATOM     35  C   UNL     1       2.541   6.609  19.156  0.00  0.00    +0.042 A 
ATOM     36  C   UNL     1       2.550   5.324  19.666  0.00  0.00    -0.049 A 
ATOM     37  C   UNL     1       3.341   4.378  19.014  0.00  0.00    -0.060 A 
ATOM     38  C   UNL     1       4.097   4.735  17.881  0.00  0.00    -0.050 A 
ATOM     39  C   UNL     1       4.078   6.047  17.372  0.00  0.00    +0.060 A 
ATOM     40  C   UNL     1       1.808   7.787  19.644  0.00  0.00    +0.253 C 
ATOM     41  O   UNL     1       1.087   7.728  20.623  0.00  0.00    -0.270 OA
ATOM     42  H   UNL     1       3.990   8.990  17.832  0.00  0.00    +0.052 HD
ATOM     43  H   UNL     1       2.589   8.557  16.763  0.00  0.00    +0.052 HD
ATOM     44  H   UNL     1       1.961   5.069  20.542  0.00  0.00    +0.063 HD
ATOM     45  H   UNL     1       3.375   3.356  19.387  0.00  0.00    +0.062 HD
ATOM     46  H   UNL     1       4.706   3.971  17.398  0.00  0.00    +0.062 HD
BRANCH  39  47
ATOM     47  C   UNL     1       4.889   6.443  16.168  0.00  0.00    +0.418 C 
ATOM     48  F   UNL     1       6.099   6.983  16.472  0.00  0.00    -0.166 F 
ATOM     49  F   UNL     1       4.245   7.362  15.398  0.00  0.00    -0.166 F 
ATOM     50  F   UNL     1       5.141   5.386  15.349  0.00  0.00    -0.166 F 
ENDBRANCH  39  47
ENDBRANCH   9  32
BRANCH   1  51
ATOM     51  C   UNL     1       2.534  13.757  17.963  0.00  0.00    -0.012 C 
ATOM     52  H   UNL     1       2.137  13.970  16.961  0.00  0.00    +0.035 HD
BRANCH  51  53
ATOM     53  C   UNL     1       4.038  13.506  17.779  0.00  0.00    -0.058 C 
ATOM     54  H   UNL     1       4.320  12.522  18.170  0.00  0.00    +0.024 HD
ATOM     55  H   UNL     1       4.311  13.527  16.719  0.00  0.00    +0.024 HD
ATOM     56  H   UNL     1       4.646  14.257  18.290  0.00  0.00    +0.024 HD
ENDBRANCH  51  53
BRANCH  51  57
ATOM     57  C   UNL     1       2.246  14.964  18.878  0.00  0.00    +0.014 C 
ATOM     58  H   UNL     1       2.335  15.902  18.315  0.00  0.00    +0.035 HD
ATOM     59  H   UNL     1       1.208  14.928  19.235  0.00  0.00    +0.035 HD
BRANCH  57  60
ATOM     60  C   UNL     1       3.160  15.014  20.054  0.00  0.00    +0.134 A 
ATOM     61  N   UNL     1       4.473  15.119  20.017  0.00  0.00    -0.135 NA
ATOM     62  N   UNL     1       4.938  15.140  21.310  0.00  0.00    -0.138 NA
ATOM     63  C   UNL     1       3.900  15.041  22.108  0.00  0.00    +0.120 A 
ATOM     64  N   UNL     1       2.763  14.957  21.366  0.00  0.00    -0.320 N 
ATOM     65  H   UNL     1       3.928  15.025  23.188  0.00  0.00    +0.105 HD
BRANCH  64  66
ATOM     66  C   UNL     1       1.423  14.833  21.875  0.00  0.00    +0.014 C 
ATOM     67  H   UNL     1       1.175  13.772  21.960  0.00  0.00    +0.046 HD
ATOM     68  H   UNL     1       0.725  15.318  21.187  0.00  0.00    +0.046 HD
ATOM     69  H   UNL     1       1.377  15.320  22.852  0.00  0.00    +0.046 HD
ENDBRANCH  64  66
ENDBRANCH  57  60
ENDBRANCH  51  57
ENDBRANCH   1  51
TORSDOF 8
ENDMDL
MODEL 9
REMARK VINA RESULT:    -6.354      1.882      2.190
REMARK INTER + INTRA:          -7.994
REMARK INTER:                  -8.373
REMARK INTRA:                   0.379
REMARK UNBOUND:                 0.961
REMARK  Name = 
REMARK  8 active torsions:
REMARK  status: ('A' for Active; 'I' for Inactive)
REMARK    1  A    between atoms: C_1  and  C_2
REMARK    2  A    between atoms: C_2  and  C_3
REMARK    3  A    between atoms: C_2  and  C_10
REMARK    4  A    between atoms: C_3  and  C_4
REMARK    5  A    between atoms: N_8  and  C_9
REMARK    6  A    between atoms: N_16  and  C_17
REMARK    7  A    between atoms: C_24  and  N_26
REMARK    8  A    between atoms: C_33  and  C_34
REMARK                            x       y       z     vdW  Elec       q    Type
REMARK                         _______ _______ _______ _____ _____    ______ ____
ROOT
ATOM      1  C   UNL     1       1.834   5.354  20.187  0.00  0.00    -0.038 A 
ATOM      2  C   UNL     1       2.700   5.169  19.104  0.00  0.00    -0.018 A 
ATOM      3  C   UNL     1       2.947   6.234  18.257  0.00  0.00    +0.128 A 
ATOM      4  N   UNL     1       3.803   6.184  17.158  0.00  0.00    -0.254 N 
ATOM      5  C   UNL     1       4.647   5.175  16.781  0.00  0.00    +0.305 C 
ATOM      6  O   UNL     1       4.822   4.116  17.372  0.00  0.00    -0.252 OA
ATOM      7  N   UNL     1       5.324   5.504  15.624  0.00  0.00    -0.296 N 
ATOM      8  N   UNL     1       2.370   7.438  18.421  0.00  0.00    -0.217 NA
ATOM      9  C   UNL     1       1.535   7.641  19.457  0.00  0.00    +0.130 A 
ATOM     10  C   UNL     1       1.256   6.619  20.363  0.00  0.00    -0.018 A 
ATOM     11  H   UNL     1       3.165   4.205  18.943  0.00  0.00    +0.065 HD
ATOM     12  H   UNL     1       3.874   7.078  16.695  0.00  0.00    +0.158 HD
ATOM     13  H   UNL     1       4.857   6.168  15.022  0.00  0.00    +0.151 HD
ATOM     14  H   UNL     1       0.598   6.784  21.207  0.00  0.00    +0.065 HD
ENDROOT
BRANCH   7  15
ATOM     15  C   UNL     1       6.230   4.560  14.979  0.00  0.00    +0.025 C 
ATOM     16  C   UNL     1       7.577   5.237  14.675  0.00  0.00    -0.034 C 
ATOM     17  C   UNL     1       7.625   5.805  13.262  0.00  0.00    -0.051 C 
ATOM     18  C   UNL     1       7.441   4.713  12.206  0.00  0.00    -0.053 C 
ATOM     19  C   UNL     1       6.599   3.530  12.689  0.00  0.00    -0.051 C 
ATOM     20  C   UNL     1       5.569   3.956  13.726  0.00  0.00    -0.034 C 
ATOM     21  H   UNL     1       6.420   3.754  15.700  0.00  0.00    +0.050 HD
ATOM     22  H   UNL     1       7.792   6.027  15.405  0.00  0.00    +0.028 HD
ATOM     23  H   UNL     1       8.380   4.494  14.775  0.00  0.00    +0.028 HD
ATOM     24  H   UNL     1       8.575   6.324  13.093  0.00  0.00    +0.027 HD
ATOM     25  H   UNL     1       6.834   6.558  13.147  0.00  0.00    +0.027 HD
ATOM     26  H   UNL     1       6.983   5.160  11.315  0.00  0.00    +0.027 HD
ATOM     27  H   UNL     1       8.423   4.338  11.888  0.00  0.00    +0.027 HD
ATOM     28  H   UNL     1       7.257   2.769  13.127  0.00  0.00    +0.027 HD
ATOM     29  H   UNL     1       6.106   3.058  11.832  0.00  0.00    +0.027 HD
ATOM     30  H   UNL     1       4.884   4.681  13.266  0.00  0.00    +0.028 HD
ATOM     31  H   UNL     1       4.952   3.096  14.015  0.00  0.00    +0.028 HD
ENDBRANCH   7  15
BRANCH   9  32
ATOM     32  N   UNL     1       0.953   8.918  19.604  0.00  0.00    -0.248 N 
ATOM     33  C   UNL     1      -0.048   9.448  18.699  0.00  0.00    +0.048 C 
ATOM     34  C   UNL     1      -0.338  10.802  19.261  0.00  0.00    -0.006 A 
ATOM     35  C   UNL     1       0.441  11.011  20.394  0.00  0.00    +0.042 A 
ATOM     36  C   UNL     1       0.388  12.179  21.131  0.00  0.00    -0.049 A 
ATOM     37  C   UNL     1      -0.492  13.172  20.700  0.00  0.00    -0.060 A 
ATOM     38  C   UNL     1      -1.290  12.976  19.556  0.00  0.00    -0.050 A 
ATOM     39  C   UNL     1      -1.224  11.780  18.815  0.00  0.00    +0.060 A 
ATOM     40  C   UNL     1       1.267   9.816  20.625  0.00  0.00    +0.253 C 
ATOM     41  O   UNL     1       2.038   9.746  21.564  0.00  0.00    -0.270 OA
ATOM     42  H   UNL     1      -0.942   8.816  18.725  0.00  0.00    +0.052 HD
ATOM     43  H   UNL     1       0.368   9.526  17.690  0.00  0.00    +0.052 HD
ATOM     44  H   UNL     1       1.010  12.312  22.011  0.00  0.00    +0.063 HD
ATOM     45  H   UNL     1      -0.563  14.106  21.255  0.00  0.00    +0.062 HD
ATOM     46  H   UNL     1      -1.969  13.772  19.250  0.00  0.00    +0.062 HD
BRANCH  39  47
ATOM     47  C   UNL     1      -2.079  11.555  17.598  0.00  0.00    +0.418 C 
ATOM     48  F   UNL     1      -2.293  10.243  17.310  0.00  0.00    -0.166 F 
ATOM     49  F   UNL     1      -1.531  12.105  16.480  0.00  0.00    -0.166 F 
ATOM     50  F   UNL     1      -3.310  12.122  17.723  0.00  0.00    -0.166 F 
ENDBRANCH  39  47
ENDBRANCH   9  32
BRANCH   1  51
ATOM     51  C   UNL     1       1.588   4.201  21.151  0.00  0.00    -0.012 C 
ATOM     52  H   UNL     1       0.655   4.413  21.691  0.00  0.00    +0.035 HD
BRANCH  51  53
ATOM     53  C   UNL     1       2.685   4.099  22.221  0.00  0.00    -0.058 C 
ATOM     54  H   UNL     1       2.595   3.164  22.785  0.00  0.00    +0.024 HD
ATOM     55  H   UNL     1       3.680   4.111  21.764  0.00  0.00    +0.024 HD
ATOM     56  H   UNL     1       2.642   4.927  22.934  0.00  0.00    +0.024 HD
ENDBRANCH  51  53
BRANCH  51  57
ATOM     57  C   UNL     1       1.416   2.890  20.357  0.00  0.00    +0.014 C 
ATOM     58  H   UNL     1       0.811   2.174  20.927  0.00  0.00    +0.035 HD
ATOM     59  H   UNL     1       0.858   3.081  19.430  0.00  0.00    +0.035 HD
BRANCH  57  60
ATOM     60  C   UNL     1       2.722   2.261  20.013  0.00  0.00    +0.134 A 
ATOM     61  N   UNL     1       3.719   2.032  20.844  0.00  0.00    -0.135 NA
ATOM     62  N   UNL     1       4.734   1.430  20.139  0.00  0.00    -0.138 NA
ATOM     63  C   UNL     1       4.338   1.312  18.894  0.00  0.00    +0.120 A 
ATOM     64  N   UNL     1       3.083   1.820  18.766  0.00  0.00    -0.320 N 
ATOM     65  H   UNL     1       4.909   0.881  18.083  0.00  0.00    +0.105 HD
BRANCH  64  66
ATOM     66  C   UNL     1       2.308   1.876  17.555  0.00  0.00    +0.014 C 
ATOM     67  H   UNL     1       2.733   1.175  16.832  0.00  0.00    +0.046 HD
ATOM     68  H   UNL     1       2.342   2.890  17.145  0.00  0.00    +0.046 HD
ATOM     69  H   UNL     1       1.275   1.608  17.791  0.00  0.00    +0.046 HD
ENDBRANCH  64  66
ENDBRANCH  57  60
ENDBRANCH  51  57
ENDBRANCH   1  51
TORSDOF 8
ENDMDL
MODEL 10
REMARK VINA RESULT:    -6.051      3.868     10.776
REMARK INTER + INTRA:          -7.566
REMARK INTER:                  -8.476
REMARK INTRA:                   0.910
REMARK UNBOUND:                 0.961
REMARK  Name = 
REMARK  8 active torsions:
REMARK  status: ('A' for Active; 'I' for Inactive)
REMARK    1  A    between atoms: C_1  and  C_2
REMARK    2  A    between atoms: C_2  and  C_3
REMARK    3  A    between atoms: C_2  and  C_10
REMARK    4  A    between atoms: C_3  and  C_4
REMARK    5  A    between atoms: N_8  and  C_9
REMARK    6  A    between atoms: N_16  and  C_17
REMARK    7  A    between atoms: C_24  and  N_26
REMARK    8  A    between atoms: C_33  and  C_34
REMARK                            x       y       z     vdW  Elec       q    Type
REMARK                         _______ _______ _______ _____ _____    ______ ____
ROOT
ATOM      1  C   UNL     1       1.595  11.227  18.938  0.00  0.00    -0.038 A 
ATOM      2  C   UNL     1       0.637  11.399  19.943  0.00  0.00    -0.018 A 
ATOM      3  C   UNL     1       0.213  10.295  20.659  0.00  0.00    +0.128 A 
ATOM      4  N   UNL     1      -0.719  10.338  21.694  0.00  0.00    -0.254 N 
ATOM      5  C   UNL     1      -1.280  11.434  22.290  0.00  0.00    +0.305 C 
ATOM      6  O   UNL     1      -1.040  12.606  22.028  0.00  0.00    -0.252 OA
ATOM      7  N   UNL     1      -2.171  11.059  23.276  0.00  0.00    -0.296 N 
ATOM      8  N   UNL     1       0.673   9.054  20.415  0.00  0.00    -0.217 NA
ATOM      9  C   UNL     1       1.598   8.863  19.456  0.00  0.00    +0.130 A 
ATOM     10  C   UNL     1       2.085   9.934  18.708  0.00  0.00    -0.018 A 
ATOM     11  H   UNL     1       0.241  12.386  20.148  0.00  0.00    +0.065 HD
ATOM     12  H   UNL     1      -0.859   9.430  22.112  0.00  0.00    +0.158 HD
ATOM     13  H   UNL     1      -2.587  10.146  23.160  0.00  0.00    +0.151 HD
ATOM     14  H   UNL     1       2.842   9.786  17.947  0.00  0.00    +0.065 HD
ENDROOT
BRANCH   7  15
ATOM     15  C   UNL     1      -2.955  12.047  24.008  0.00  0.00    +0.025 C 
ATOM     16  C   UNL     1      -4.314  12.263  23.322  0.00  0.00    -0.034 C 
ATOM     17  C   UNL     1      -4.281  13.435  22.348  0.00  0.00    -0.051 C 
ATOM     18  C   UNL     1      -3.939  14.749  23.054  0.00  0.00    -0.053 C 
ATOM     19  C   UNL     1      -3.063  14.566  24.296  0.00  0.00    -0.051 C 
ATOM     20  C   UNL     1      -2.153  13.351  24.173  0.00  0.00    -0.034 C 
ATOM     21  H   UNL     1      -3.151  11.626  25.005  0.00  0.00    +0.050 HD
ATOM     22  H   UNL     1      -4.641  11.354  22.804  0.00  0.00    +0.028 HD
ATOM     23  H   UNL     1      -5.071  12.474  24.089  0.00  0.00    +0.028 HD
ATOM     24  H   UNL     1      -5.246  13.533  21.838  0.00  0.00    +0.027 HD
ATOM     25  H   UNL     1      -3.535  13.237  21.568  0.00  0.00    +0.027 HD
ATOM     26  H   UNL     1      -3.438  15.412  22.338  0.00  0.00    +0.027 HD
ATOM     27  H   UNL     1      -4.863  15.261  23.349  0.00  0.00    +0.027 HD
ATOM     28  H   UNL     1      -3.704  14.447  25.179  0.00  0.00    +0.027 HD
ATOM     29  H   UNL     1      -2.470  15.472  24.462  0.00  0.00    +0.027 HD
ATOM     30  H   UNL     1      -1.482  13.499  23.317  0.00  0.00    +0.028 HD
ATOM     31  H   UNL     1      -1.508  13.277  25.057  0.00  0.00    +0.028 HD
ENDBRANCH   7  15
BRANCH   9  32
ATOM     32  N   UNL     1       2.064   7.551  19.231  0.00  0.00    -0.248 N 
ATOM     33  C   UNL     1       1.766   6.436  20.110  0.00  0.00    +0.048 C 
ATOM     34  C   UNL     1       2.473   5.289  19.463  0.00  0.00    -0.006 A 
ATOM     35  C   UNL     1       3.115   5.730  18.310  0.00  0.00    +0.042 A 
ATOM     36  C   UNL     1       3.853   4.888  17.500  0.00  0.00    -0.049 A 
ATOM     37  C   UNL     1       3.939   3.547  17.873  0.00  0.00    -0.060 A 
ATOM     38  C   UNL     1       3.293   3.084  19.036  0.00  0.00    -0.050 A 
ATOM     39  C   UNL     1       2.545   3.953  19.852  0.00  0.00    +0.060 A 
ATOM     40  C   UNL     1       2.860   7.169  18.151  0.00  0.00    +0.253 C 
ATOM     41  O   UNL     1       3.313   7.796  17.211  0.00  0.00    -0.270 OA
ATOM     42  H   UNL     1       0.685   6.264  20.134  0.00  0.00    +0.052 HD
ATOM     43  H   UNL     1       2.172   6.632  21.108  0.00  0.00    +0.052 HD
ATOM     44  H   UNL     1       4.343   5.264  16.606  0.00  0.00    +0.063 HD
ATOM     45  H   UNL     1       4.510   2.852  17.258  0.00  0.00    +0.062 HD
ATOM     46  H   UNL     1       3.379   2.029  19.296  0.00  0.00    +0.062 HD
BRANCH  39  47
ATOM     47  C   UNL     1       1.842   3.468  21.091  0.00  0.00    +0.418 C 
ATOM     48  F   UNL     1       1.905   2.122  21.270  0.00  0.00    -0.166 F 
ATOM     49  F   UNL     1       0.518   3.789  21.085  0.00  0.00    -0.166 F 
ATOM     50  F   UNL     1       2.351   4.026  22.223  0.00  0.00    -0.166 F 
ENDBRANCH  39  47
ENDBRANCH   9  32
BRANCH   1  51
ATOM     51  C   UNL     1       2.100  12.442  18.173  0.00  0.00    -0.012 C 
ATOM     52  H   UNL     1       1.336  12.705  17.428  0.00  0.00    +0.035 HD
BRANCH  51  53
ATOM     53  C   UNL     1       3.379  12.135  17.380  0.00  0.00    -0.058 C 
ATOM     54  H   UNL     1       3.210  12.256  16.304  0.00  0.00    +0.024 HD
ATOM     55  H   UNL     1       4.187  12.817  17.663  0.00  0.00    +0.024 HD
ATOM     56  H   UNL     1       3.734  11.115  17.551  0.00  0.00    +0.024 HD
ENDBRANCH  51  53
BRANCH  51  57
ATOM     57  C   UNL     1       2.278  13.627  19.142  0.00  0.00    +0.014 C 
ATOM     58  H   UNL     1       2.785  13.300  20.059  0.00  0.00    +0.035 HD
ATOM     59  H   UNL     1       2.934  14.386  18.694  0.00  0.00    +0.035 HD
BRANCH  57  60
ATOM     60  C   UNL     1       0.980  14.264  19.504  0.00  0.00    +0.134 A 
ATOM     61  N   UNL     1      -0.066  14.403  18.714  0.00  0.00    -0.135 NA
ATOM     62  N   UNL     1      -1.060  15.029  19.426  0.00  0.00    -0.138 NA
ATOM     63  C   UNL     1      -0.598  15.266  20.631  0.00  0.00    +0.120 A 
ATOM     64  N   UNL     1       0.679  14.804  20.727  0.00  0.00    -0.320 N 
ATOM     65  H   UNL     1      -1.134  15.751  21.435  0.00  0.00    +0.105 HD
BRANCH  64  66
ATOM     66  C   UNL     1       1.525  14.880  21.888  0.00  0.00    +0.014 C 
ATOM     67  H   UNL     1       2.569  14.827  21.567  0.00  0.00    +0.046 HD
ATOM     68  H   UNL     1       1.305  14.043  22.556  0.00  0.00    +0.046 HD
ATOM     69  H   UNL     1       1.327  15.824  22.401  0.00  0.00    +0.046 HD
ENDBRANCH  64  66
ENDBRANCH  57  60
ENDBRANCH  51  57
ENDBRANCH   1  51
TORSDOF 8
ENDMDL
MODEL 11
REMARK VINA RESULT:    -6.028      3.337      7.417
REMARK INTER + INTRA:          -7.535
REMARK INTER:                  -6.683
REMARK INTRA:                  -0.852
REMARK UNBOUND:                 0.961
REMARK  Name = 
REMARK  8 active torsions:
REMARK  status: ('A' for Active; 'I' for Inactive)
REMARK    1  A    between atoms: C_1  and  C_2
REMARK    2  A    between atoms: C_2  and  C_3
REMARK    3  A    between atoms: C_2  and  C_10
REMARK    4  A    between atoms: C_3  and  C_4
REMARK    5  A    between atoms: N_8  and  C_9
REMARK    6  A    between atoms: N_16  and  C_17
REMARK    7  A    between atoms: C_24  and  N_26
REMARK    8  A    between atoms: C_33  and  C_34
REMARK                            x       y       z     vdW  Elec       q    Type
REMARK                         _______ _______ _______ _____ _____    ______ ____
ROOT
ATOM      1  C   UNL     1       2.302  12.264  18.265  0.00  0.00    -0.038 A 
ATOM      2  C   UNL     1       2.515  10.881  18.234  0.00  0.00    -0.018 A 
ATOM      3  C   UNL     1       1.574  10.046  18.808  0.00  0.00    +0.128 A 
ATOM      4  N   UNL     1       1.661   8.656  18.825  0.00  0.00    -0.254 N 
ATOM      5  C   UNL     1       2.568   7.851  18.191  0.00  0.00    +0.305 C 
ATOM      6  O   UNL     1       3.477   8.219  17.457  0.00  0.00    -0.252 OA
ATOM      7  N   UNL     1       2.323   6.520  18.464  0.00  0.00    -0.296 N 
ATOM      8  N   UNL     1       0.468  10.512  19.415  0.00  0.00    -0.217 NA
ATOM      9  C   UNL     1       0.238  11.838  19.455  0.00  0.00    +0.130 A 
ATOM     10  C   UNL     1       1.134  12.738  18.879  0.00  0.00    -0.018 A 
ATOM     11  H   UNL     1       3.406  10.483  17.764  0.00  0.00    +0.065 HD
ATOM     12  H   UNL     1       0.852   8.234  19.257  0.00  0.00    +0.158 HD
ATOM     13  H   UNL     1       1.848   6.337  19.336  0.00  0.00    +0.151 HD
ATOM     14  H   UNL     1       0.944  13.804  18.895  0.00  0.00    +0.065 HD
ENDROOT
BRANCH   7  15
ATOM     15  C   UNL     1       3.200   5.468  17.963  0.00  0.00    +0.025 C 
ATOM     16  C   UNL     1       2.372   4.250  17.519  0.00  0.00    -0.034 C 
ATOM     17  C   UNL     1       2.240   3.214  18.629  0.00  0.00    -0.051 C 
ATOM     18  C   UNL     1       3.605   2.674  19.064  0.00  0.00    -0.053 C 
ATOM     19  C   UNL     1       4.747   3.676  18.878  0.00  0.00    -0.051 C 
ATOM     20  C   UNL     1       4.267   5.114  19.016  0.00  0.00    -0.034 C 
ATOM     21  H   UNL     1       3.704   5.867  17.072  0.00  0.00    +0.050 HD
ATOM     22  H   UNL     1       1.378   4.557  17.173  0.00  0.00    +0.028 HD
ATOM     23  H   UNL     1       2.867   3.776  16.662  0.00  0.00    +0.028 HD
ATOM     24  H   UNL     1       1.605   2.384  18.301  0.00  0.00    +0.027 HD
ATOM     25  H   UNL     1       1.738   3.669  19.492  0.00  0.00    +0.027 HD
ATOM     26  H   UNL     1       3.542   2.371  20.117  0.00  0.00    +0.027 HD
ATOM     27  H   UNL     1       3.840   1.764  18.498  0.00  0.00    +0.027 HD
ATOM     28  H   UNL     1       5.192   3.539  17.884  0.00  0.00    +0.027 HD
ATOM     29  H   UNL     1       5.540   3.466  19.604  0.00  0.00    +0.027 HD
ATOM     30  H   UNL     1       3.867   5.257  20.029  0.00  0.00    +0.028 HD
ATOM     31  H   UNL     1       5.116   5.802  18.924  0.00  0.00    +0.028 HD
ENDBRANCH   7  15
BRANCH   9  32
ATOM     32  N   UNL     1      -0.936  12.293  20.092  0.00  0.00    -0.248 N 
ATOM     33  C   UNL     1      -0.943  12.908  21.406  0.00  0.00    +0.048 C 
ATOM     34  C   UNL     1      -2.390  13.204  21.639  0.00  0.00    -0.006 A 
ATOM     35  C   UNL     1      -3.132  12.787  20.538  0.00  0.00    +0.042 A 
ATOM     36  C   UNL     1      -4.504  12.933  20.466  0.00  0.00    -0.049 A 
ATOM     37  C   UNL     1      -5.147  13.526  21.553  0.00  0.00    -0.060 A 
ATOM     38  C   UNL     1      -4.410  13.955  22.674  0.00  0.00    -0.050 A 
ATOM     39  C   UNL     1      -3.012  13.799  22.734  0.00  0.00    +0.060 A 
ATOM     40  C   UNL     1      -2.216  12.208  19.545  0.00  0.00    +0.253 C 
ATOM     41  O   UNL     1      -2.621  11.771  18.483  0.00  0.00    -0.270 OA
ATOM     42  H   UNL     1      -0.355  13.831  21.386  0.00  0.00    +0.052 HD
ATOM     43  H   UNL     1      -0.566  12.198  22.149  0.00  0.00    +0.052 HD
ATOM     44  H   UNL     1      -5.055  12.597  19.592  0.00  0.00    +0.063 HD
ATOM     45  H   UNL     1      -6.228  13.659  21.533  0.00  0.00    +0.062 HD
ATOM     46  H   UNL     1      -4.944  14.416  23.505  0.00  0.00    +0.062 HD
BRANCH  39  47
ATOM     47  C   UNL     1      -2.213  14.263  23.921  0.00  0.00    +0.418 C 
ATOM     48  F   UNL     1      -1.466  13.285  24.499  0.00  0.00    -0.166 F 
ATOM     49  F   UNL     1      -3.007  14.768  24.906  0.00  0.00    -0.166 F 
ATOM     50  F   UNL     1      -1.347  15.262  23.598  0.00  0.00    -0.166 F 
ENDBRANCH  39  47
ENDBRANCH   9  32
BRANCH   1  51
ATOM     51  C   UNL     1       3.310  13.189  17.599  0.00  0.00    -0.012 C 
ATOM     52  H   UNL     1       3.084  13.207  16.524  0.00  0.00    +0.035 HD
BRANCH  51  53
ATOM     53  C   UNL     1       4.747  12.663  17.722  0.00  0.00    -0.058 C 
ATOM     54  H   UNL     1       5.200  12.528  16.734  0.00  0.00    +0.024 HD
ATOM     55  H   UNL     1       5.375  13.368  18.277  0.00  0.00    +0.024 HD
ATOM     56  H   UNL     1       4.791  11.703  18.246  0.00  0.00    +0.024 HD
ENDBRANCH  51  53
BRANCH  51  57
ATOM     57  C   UNL     1       3.154  14.616  18.163  0.00  0.00    +0.014 C 
ATOM     58  H   UNL     1       3.355  15.360  17.382  0.00  0.00    +0.035 HD
ATOM     59  H   UNL     1       2.116  14.786  18.478  0.00  0.00    +0.035 HD
BRANCH  57  60
ATOM     60  C   UNL     1       4.058  14.869  19.321  0.00  0.00    +0.134 A 
ATOM     61  N   UNL     1       5.361  15.058  19.265  0.00  0.00    -0.135 NA
ATOM     62  N   UNL     1       5.818  15.267  20.545  0.00  0.00    -0.138 NA
ATOM     63  C   UNL     1       4.787  15.193  21.353  0.00  0.00    +0.120 A 
ATOM     64  N   UNL     1       3.661  14.944  20.631  0.00  0.00    -0.320 N 
ATOM     65  H   UNL     1       4.811  15.310  22.427  0.00  0.00    +0.105 HD
BRANCH  64  66
ATOM     66  C   UNL     1       2.330  14.791  21.157  0.00  0.00    +0.014 C 
ATOM     67  H   UNL     1       2.392  14.307  22.135  0.00  0.00    +0.046 HD
ATOM     68  H   UNL     1       1.738  14.171  20.479  0.00  0.00    +0.046 HD
ATOM     69  H   UNL     1       1.876  15.781  21.245  0.00  0.00    +0.046 HD
ENDBRANCH  64  66
ENDBRANCH  57  60
ENDBRANCH  51  57
ENDBRANCH   1  51
TORSDOF 8
ENDMDL
MODEL 12
REMARK VINA RESULT:    -5.928      4.370     10.869
REMARK INTER + INTRA:          -7.393
REMARK INTER:                  -7.697
REMARK INTRA:                   0.304
REMARK UNBOUND:                 0.961
REMARK  Name = 
REMARK  8 active torsions:
REMARK  status: ('A' for Active; 'I' for Inactive)
REMARK    1  A    between atoms: C_1  and  C_2
REMARK    2  A    between atoms: C_2  and  C_3
REMARK    3  A    between atoms: C_2  and  C_10
REMARK    4  A    between atoms: C_3  and  C_4
REMARK    5  A    between atoms: N_8  and  C_9
REMARK    6  A    between atoms: N_16  and  C_17
REMARK    7  A    between atoms: C_24  and  N_26
REMARK    8  A    between atoms: C_33  and  C_34
REMARK                            x       y       z     vdW  Elec       q    Type
REMARK                         _______ _______ _______ _____ _____    ______ ____
ROOT
ATOM      1  C   UNL     1       0.284  11.380  18.863  0.00  0.00    -0.038 A 
ATOM      2  C   UNL     1      -0.467  11.633  20.016  0.00  0.00    -0.018 A 
ATOM      3  C   UNL     1      -0.481  10.688  21.025  0.00  0.00    +0.128 A 
ATOM      4  N   UNL     1      -1.172  10.829  22.227  0.00  0.00    -0.254 N 
ATOM      5  C   UNL     1      -1.832  11.929  22.706  0.00  0.00    +0.305 C 
ATOM      6  O   UNL     1      -1.916  13.021  22.158  0.00  0.00    -0.252 OA
ATOM      7  N   UNL     1      -2.399  11.666  23.937  0.00  0.00    -0.296 N 
ATOM      8  N   UNL     1       0.184   9.522  20.934  0.00  0.00    -0.217 NA
ATOM      9  C   UNL     1       0.917   9.257  19.836  0.00  0.00    +0.130 A 
ATOM     10  C   UNL     1       0.993  10.173  18.788  0.00  0.00    -0.018 A 
ATOM     11  H   UNL     1      -1.022  12.558  20.105  0.00  0.00    +0.065 HD
ATOM     12  H   UNL     1      -1.020  10.045  22.843  0.00  0.00    +0.158 HD
ATOM     13  H   UNL     1      -2.617  10.696  24.116  0.00  0.00    +0.151 HD
ATOM     14  H   UNL     1       1.595   9.970  17.911  0.00  0.00    +0.065 HD
ENDROOT
BRANCH   7  15
ATOM     15  C   UNL     1      -3.220  12.658  24.622  0.00  0.00    +0.025 C 
ATOM     16  C   UNL     1      -4.705  12.449  24.279  0.00  0.00    -0.034 C 
ATOM     17  C   UNL     1      -5.147  13.316  23.106  0.00  0.00    -0.051 C 
ATOM     18  C   UNL     1      -4.978  14.807  23.407  0.00  0.00    -0.053 C 
ATOM     19  C   UNL     1      -3.845  15.107  24.391  0.00  0.00    -0.051 C 
ATOM     20  C   UNL     1      -2.725  14.079  24.297  0.00  0.00    -0.034 C 
ATOM     21  H   UNL     1      -3.102  12.483  25.700  0.00  0.00    +0.050 HD
ATOM     22  H   UNL     1      -4.914  11.394  24.066  0.00  0.00    +0.028 HD
ATOM     23  H   UNL     1      -5.313  12.716  25.153  0.00  0.00    +0.028 HD
ATOM     24  H   UNL     1      -6.193  13.109  22.853  0.00  0.00    +0.027 HD
ATOM     25  H   UNL     1      -4.555  13.056  22.219  0.00  0.00    +0.027 HD
ATOM     26  H   UNL     1      -4.804  15.338  22.464  0.00  0.00    +0.027 HD
ATOM     27  H   UNL     1      -5.913  15.209  23.816  0.00  0.00    +0.027 HD
ATOM     28  H   UNL     1      -4.242  15.112  25.414  0.00  0.00    +0.027 HD
ATOM     29  H   UNL     1      -3.456  16.114  24.205  0.00  0.00    +0.027 HD
ATOM     30  H   UNL     1      -2.299  14.115  23.284  0.00  0.00    +0.028 HD
ATOM     31  H   UNL     1      -1.910  14.350  24.979  0.00  0.00    +0.028 HD
ENDBRANCH   7  15
BRANCH   9  32
ATOM     32  N   UNL     1       1.609   8.029  19.776  0.00  0.00    -0.248 N 
ATOM     33  C   UNL     1       2.644   7.743  18.802  0.00  0.00    +0.048 C 
ATOM     34  C   UNL     1       3.056   6.346  19.137  0.00  0.00    -0.006 A 
ATOM     35  C   UNL     1       2.307   5.887  20.217  0.00  0.00    +0.042 A 
ATOM     36  C   UNL     1       2.468   4.624  20.753  0.00  0.00    -0.049 A 
ATOM     37  C   UNL     1       3.427   3.795  20.171  0.00  0.00    -0.060 A 
ATOM     38  C   UNL     1       4.195   4.244  19.078  0.00  0.00    -0.050 A 
ATOM     39  C   UNL     1       4.019   5.534  18.543  0.00  0.00    +0.060 A 
ATOM     40  C   UNL     1       1.383   6.952  20.634  0.00  0.00    +0.253 C 
ATOM     41  O   UNL     1       0.617   6.800  21.568  0.00  0.00    -0.270 OA
ATOM     42  H   UNL     1       3.480   8.437  18.936  0.00  0.00    +0.052 HD
ATOM     43  H   UNL     1       2.227   7.795  17.791  0.00  0.00    +0.052 HD
ATOM     44  H   UNL     1       1.868   4.295  21.596  0.00  0.00    +0.063 HD
ATOM     45  H   UNL     1       3.584   2.792  20.566  0.00  0.00    +0.062 HD
ATOM     46  H   UNL     1       4.937   3.571  18.650  0.00  0.00    +0.062 HD
BRANCH  39  47
ATOM     47  C   UNL     1       4.841   6.029  17.383  0.00  0.00    +0.418 C 
ATOM     48  F   UNL     1       4.136   6.763  16.482  0.00  0.00    -0.166 F 
ATOM     49  F   UNL     1       5.404   5.006  16.683  0.00  0.00    -0.166 F 
ATOM     50  F   UNL     1       5.876   6.814  17.786  0.00  0.00    -0.166 F 
ENDBRANCH  39  47
ENDBRANCH   9  32
BRANCH   1  51
ATOM     51  C   UNL     1       0.342  12.432  17.764  0.00  0.00    -0.012 C 
ATOM     52  H   UNL     1       0.787  11.961  16.877  0.00  0.00    +0.035 HD
BRANCH  51  53
ATOM     53  C   UNL     1       1.265  13.602  18.132  0.00  0.00    -0.058 C 
ATOM     54  H   UNL     1       1.833  13.941  17.259  0.00  0.00    +0.024 HD
ATOM     55  H   UNL     1       0.687  14.457  18.497  0.00  0.00    +0.024 HD
ATOM     56  H   UNL     1       1.981  13.332  18.914  0.00  0.00    +0.024 HD
ENDBRANCH  51  53
BRANCH  51  57
ATOM     57  C   UNL     1      -1.087  12.896  17.416  0.00  0.00    +0.014 C 
ATOM     58  H   UNL     1      -1.475  13.561  18.199  0.00  0.00    +0.035 HD
ATOM     59  H   UNL     1      -1.076  13.494  16.495  0.00  0.00    +0.035 HD
BRANCH  57  60
ATOM     60  C   UNL     1      -2.027  11.753  17.239  0.00  0.00    +0.134 A 
ATOM     61  N   UNL     1      -1.937  10.805  16.327  0.00  0.00    -0.135 NA
ATOM     62  N   UNL     1      -2.988   9.938  16.506  0.00  0.00    -0.138 NA
ATOM     63  C   UNL     1      -3.699  10.378  17.517  0.00  0.00    +0.120 A 
ATOM     64  N   UNL     1      -3.136  11.515  18.009  0.00  0.00    -0.320 N 
ATOM     65  H   UNL     1      -4.596   9.920  17.911  0.00  0.00    +0.105 HD
BRANCH  64  66
ATOM     66  C   UNL     1      -3.624  12.296  19.114  0.00  0.00    +0.014 C 
ATOM     67  H   UNL     1      -3.761  13.328  18.783  0.00  0.00    +0.046 HD
ATOM     68  H   UNL     1      -2.897  12.267  19.931  0.00  0.00    +0.046 HD
ATOM     69  H   UNL     1      -4.572  11.869  19.449  0.00  0.00    +0.046 HD
ENDBRANCH  64  66
ENDBRANCH  57  60
ENDBRANCH  51  57
ENDBRANCH   1  51
TORSDOF 8
ENDMDL
MODEL 13
REMARK VINA RESULT:    -5.831      3.972      7.901
REMARK INTER + INTRA:          -7.256
REMARK INTER:                  -7.070
REMARK INTRA:                  -0.186
REMARK UNBOUND:                 0.961
REMARK  Name = 
REMARK  8 active torsions:
REMARK  status: ('A' for Active; 'I' for Inactive)
REMARK    1  A    between atoms: C_1  and  C_2
REMARK    2  A    between atoms: C_2  and  C_3
REMARK    3  A    between atoms: C_2  and  C_10
REMARK    4  A    between atoms: C_3  and  C_4
REMARK    5  A    between atoms: N_8  and  C_9
REMARK    6  A    between atoms: N_16  and  C_17
REMARK    7  A    between atoms: C_24  and  N_26
REMARK    8  A    between atoms: C_33  and  C_34
REMARK                            x       y       z     vdW  Elec       q    Type
REMARK                         _______ _______ _______ _____ _____    ______ ____
ROOT
ATOM      1  C   UNL     1       1.488  12.109  18.803  0.00  0.00    -0.038 A 
ATOM      2  C   UNL     1       1.699  10.763  19.124  0.00  0.00    -0.018 A 
ATOM      3  C   UNL     1       0.829  10.140  20.000  0.00  0.00    +0.128 A 
ATOM      4  N   UNL     1       0.919   8.804  20.383  0.00  0.00    -0.254 N 
ATOM      5  C   UNL     1       1.752   7.833  19.896  0.00  0.00    +0.305 C 
ATOM      6  O   UNL     1       2.572   7.964  18.996  0.00  0.00    -0.252 OA
ATOM      7  N   UNL     1       1.541   6.632  20.543  0.00  0.00    -0.296 N 
ATOM      8  N   UNL     1      -0.203  10.784  20.574  0.00  0.00    -0.217 NA
ATOM      9  C   UNL     1      -0.429  12.078  20.279  0.00  0.00    +0.130 A 
ATOM     10  C   UNL     1       0.396  12.763  19.388  0.00  0.00    -0.018 A 
ATOM     11  H   UNL     1       2.532  10.228  18.686  0.00  0.00    +0.065 HD
ATOM     12  H   UNL     1       0.165   8.537  20.998  0.00  0.00    +0.158 HD
ATOM     13  H   UNL     1       1.167   6.703  21.479  0.00  0.00    +0.151 HD
ATOM     14  H   UNL     1       0.207  13.800  19.136  0.00  0.00    +0.065 HD
ENDROOT
BRANCH   7  15
ATOM     15  C   UNL     1       2.358   5.459  20.254  0.00  0.00    +0.025 C 
ATOM     16  C   UNL     1       1.901   4.802  18.940  0.00  0.00    -0.034 C 
ATOM     17  C   UNL     1       0.894   3.684  19.182  0.00  0.00    -0.051 C 
ATOM     18  C   UNL     1       1.486   2.565  20.042  0.00  0.00    -0.053 C 
ATOM     19  C   UNL     1       2.569   3.045  21.010  0.00  0.00    -0.051 C 
ATOM     20  C   UNL     1       2.340   4.486  21.447  0.00  0.00    -0.034 C 
ATOM     21  H   UNL     1       3.387   5.814  20.105  0.00  0.00    +0.050 HD
ATOM     22  H   UNL     1       1.478   5.547  18.256  0.00  0.00    +0.028 HD
ATOM     23  H   UNL     1       2.776   4.374  18.433  0.00  0.00    +0.028 HD
ATOM     24  H   UNL     1       0.550   3.269  18.227  0.00  0.00    +0.027 HD
ATOM     25  H   UNL     1       0.008   4.095  19.681  0.00  0.00    +0.027 HD
ATOM     26  H   UNL     1       0.673   2.084  20.600  0.00  0.00    +0.027 HD
ATOM     27  H   UNL     1       1.913   1.788  19.396  0.00  0.00    +0.027 HD
ATOM     28  H   UNL     1       3.551   2.969  20.525  0.00  0.00    +0.027 HD
ATOM     29  H   UNL     1       2.602   2.382  21.882  0.00  0.00    +0.027 HD
ATOM     30  H   UNL     1       1.378   4.545  21.975  0.00  0.00    +0.028 HD
ATOM     31  H   UNL     1       3.105   4.782  22.175  0.00  0.00    +0.028 HD
ENDBRANCH   7  15
BRANCH   9  32
ATOM     32  N   UNL     1      -1.525  12.721  20.893  0.00  0.00    -0.248 N 
ATOM     33  C   UNL     1      -2.056  12.333  22.186  0.00  0.00    +0.048 C 
ATOM     34  C   UNL     1      -3.188  13.287  22.393  0.00  0.00    -0.006 A 
ATOM     35  C   UNL     1      -3.280  14.143  21.299  0.00  0.00    +0.042 A 
ATOM     36  C   UNL     1      -4.237  15.136  21.208  0.00  0.00    -0.049 A 
ATOM     37  C   UNL     1      -5.132  15.267  22.270  0.00  0.00    -0.060 A 
ATOM     38  C   UNL     1      -5.051  14.410  23.385  0.00  0.00    -0.050 A 
ATOM     39  C   UNL     1      -4.071  13.402  23.464  0.00  0.00    +0.060 A 
ATOM     40  C   UNL     1      -2.224  13.793  20.337  0.00  0.00    +0.253 C 
ATOM     41  O   UNL     1      -2.088  14.400  19.292  0.00  0.00    -0.270 OA
ATOM     42  H   UNL     1      -1.289  12.467  22.955  0.00  0.00    +0.052 HD
ATOM     43  H   UNL     1      -2.419  11.302  22.143  0.00  0.00    +0.052 HD
ATOM     44  H   UNL     1      -4.283  15.788  20.341  0.00  0.00    +0.063 HD
ATOM     45  H   UNL     1      -5.899  16.039  22.235  0.00  0.00    +0.062 HD
ATOM     46  H   UNL     1      -5.765  14.543  24.198  0.00  0.00    +0.062 HD
BRANCH  39  47
ATOM     47  C   UNL     1      -3.968  12.489  24.654  0.00  0.00    +0.418 C 
ATOM     48  F   UNL     1      -3.038  11.507  24.517  0.00  0.00    -0.166 F 
ATOM     49  F   UNL     1      -5.147  11.862  24.921  0.00  0.00    -0.166 F 
ATOM     50  F   UNL     1      -3.644  13.163  25.792  0.00  0.00    -0.166 F 
ENDBRANCH  39  47
ENDBRANCH   9  32
BRANCH   1  51
ATOM     51  C   UNL     1       2.414  12.792  17.807  0.00  0.00    -0.012 C 
ATOM     52  H   UNL     1       1.967  12.682  16.809  0.00  0.00    +0.035 HD
BRANCH  51  53
ATOM     53  C   UNL     1       3.788  12.110  17.733  0.00  0.00    -0.058 C 
ATOM     54  H   UNL     1       4.163  11.877  18.736  0.00  0.00    +0.024 HD
ATOM     55  H   UNL     1       3.727  11.167  17.180  0.00  0.00    +0.024 HD
ATOM     56  H   UNL     1       4.532  12.737  17.233  0.00  0.00    +0.024 HD
ENDBRANCH  51  53
BRANCH  51  57
ATOM     57  C   UNL     1       2.519  14.293  18.143  0.00  0.00    +0.014 C 
ATOM     58  H   UNL     1       2.352  14.899  17.243  0.00  0.00    +0.035 HD
ATOM     59  H   UNL     1       1.725  14.579  18.846  0.00  0.00    +0.035 HD
BRANCH  57  60
ATOM     60  C   UNL     1       3.839  14.651  18.734  0.00  0.00    +0.134 A 
ATOM     61  N   UNL     1       4.945  14.913  18.067  0.00  0.00    -0.135 NA
ATOM     62  N   UNL     1       5.933  15.206  18.976  0.00  0.00    -0.138 NA
ATOM     63  C   UNL     1       5.412  15.109  20.176  0.00  0.00    +0.120 A 
ATOM     64  N   UNL     1       4.100  14.761  20.075  0.00  0.00    -0.320 N 
ATOM     65  H   UNL     1       5.930  15.275  21.111  0.00  0.00    +0.105 HD
BRANCH  64  66
ATOM     66  C   UNL     1       3.189  14.554  21.169  0.00  0.00    +0.014 C 
ATOM     67  H   UNL     1       3.606  15.017  22.067  0.00  0.00    +0.046 HD
ATOM     68  H   UNL     1       3.058  13.481  21.338  0.00  0.00    +0.046 HD
ATOM     69  H   UNL     1       2.229  15.008  20.911  0.00  0.00    +0.046 HD
ENDBRANCH  64  66
ENDBRANCH  57  60
ENDBRANCH  51  57
ENDBRANCH   1  51
TORSDOF 8
ENDMDL
MODEL 14
REMARK VINA RESULT:    -5.809      3.843     10.784
REMARK INTER + INTRA:          -7.225
REMARK INTER:                  -8.526
REMARK INTRA:                   1.301
REMARK UNBOUND:                 0.961
REMARK  Name = 
REMARK  8 active torsions:
REMARK  status: ('A' for Active; 'I' for Inactive)
REMARK    1  A    between atoms: C_1  and  C_2
REMARK    2  A    between atoms: C_2  and  C_3
REMARK    3  A    between atoms: C_2  and  C_10
REMARK    4  A    between atoms: C_3  and  C_4
REMARK    5  A    between atoms: N_8  and  C_9
REMARK    6  A    between atoms: N_16  and  C_17
REMARK    7  A    between atoms: C_24  and  N_26
REMARK    8  A    between atoms: C_33  and  C_34
REMARK                            x       y       z     vdW  Elec       q    Type
REMARK                         _______ _______ _______ _____ _____    ______ ____
ROOT
ATOM      1  C   UNL     1       1.749  11.968  18.556  0.00  0.00    -0.038 A 
ATOM      2  C   UNL     1       0.648  12.141  19.401  0.00  0.00    -0.018 A 
ATOM      3  C   UNL     1       0.093  11.032  20.014  0.00  0.00    +0.128 A 
ATOM      4  N   UNL     1      -0.989  11.075  20.890  0.00  0.00    -0.254 N 
ATOM      5  C   UNL     1      -1.615  12.172  21.417  0.00  0.00    +0.305 C 
ATOM      6  O   UNL     1      -1.312  13.343  21.226  0.00  0.00    -0.252 OA
ATOM      7  N   UNL     1      -2.658  11.797  22.241  0.00  0.00    -0.296 N 
ATOM      8  N   UNL     1       0.560   9.787  19.814  0.00  0.00    -0.217 NA
ATOM      9  C   UNL     1       1.621   9.594  19.008  0.00  0.00    +0.130 A 
ATOM     10  C   UNL     1       2.242  10.668  18.373  0.00  0.00    -0.018 A 
ATOM     11  H   UNL     1       0.245  13.133  19.566  0.00  0.00    +0.065 HD
ATOM     12  H   UNL     1      -1.213  10.162  21.257  0.00  0.00    +0.158 HD
ATOM     13  H   UNL     1      -3.069  10.897  22.037  0.00  0.00    +0.151 HD
ATOM     14  H   UNL     1       3.107  10.518  17.738  0.00  0.00    +0.065 HD
ENDROOT
BRANCH   7  15
ATOM     15  C   UNL     1      -3.528  12.787  22.865  0.00  0.00    +0.025 C 
ATOM     16  C   UNL     1      -2.846  14.166  22.872  0.00  0.00    -0.034 C 
ATOM     17  C   UNL     1      -2.097  14.425  24.175  0.00  0.00    -0.051 C 
ATOM     18  C   UNL     1      -3.037  14.401  25.382  0.00  0.00    -0.053 C 
ATOM     19  C   UNL     1      -4.255  13.494  25.191  0.00  0.00    -0.051 C 
ATOM     20  C   UNL     1      -3.948  12.320  24.270  0.00  0.00    -0.034 C 
ATOM     21  H   UNL     1      -4.426  12.867  22.237  0.00  0.00    +0.050 HD
ATOM     22  H   UNL     1      -2.163  14.271  22.020  0.00  0.00    +0.028 HD
ATOM     23  H   UNL     1      -3.612  14.943  22.755  0.00  0.00    +0.028 HD
ATOM     24  H   UNL     1      -1.581  15.391  24.131  0.00  0.00    +0.027 HD
ATOM     25  H   UNL     1      -1.320  13.662  24.304  0.00  0.00    +0.027 HD
ATOM     26  H   UNL     1      -2.468  14.081  26.264  0.00  0.00    +0.027 HD
ATOM     27  H   UNL     1      -3.388  15.418  25.598  0.00  0.00    +0.027 HD
ATOM     28  H   UNL     1      -5.081  14.078  24.766  0.00  0.00    +0.027 HD
ATOM     29  H   UNL     1      -4.600  13.134  26.167  0.00  0.00    +0.027 HD
ATOM     30  H   UNL     1      -3.155  11.713  24.726  0.00  0.00    +0.028 HD
ATOM     31  H   UNL     1      -4.826  11.667  24.193  0.00  0.00    +0.028 HD
ENDBRANCH   7  15
BRANCH   9  32
ATOM     32  N   UNL     1       2.090   8.275  18.826  0.00  0.00    -0.248 N 
ATOM     33  C   UNL     1       1.735   7.174  19.701  0.00  0.00    +0.048 C 
ATOM     34  C   UNL     1       2.469   6.015  19.109  0.00  0.00    -0.006 A 
ATOM     35  C   UNL     1       3.178   6.437  17.989  0.00  0.00    +0.042 A 
ATOM     36  C   UNL     1       3.954   5.579  17.231  0.00  0.00    -0.049 A 
ATOM     37  C   UNL     1       4.009   4.242  17.626  0.00  0.00    -0.060 A 
ATOM     38  C   UNL     1       3.296   3.799  18.756  0.00  0.00    -0.050 A 
ATOM     39  C   UNL     1       2.510   4.684  19.519  0.00  0.00    +0.060 A 
ATOM     40  C   UNL     1       2.942   7.875  17.797  0.00  0.00    +0.253 C 
ATOM     41  O   UNL     1       3.451   8.486  16.876  0.00  0.00    -0.270 OA
ATOM     42  H   UNL     1       0.653   7.009  19.667  0.00  0.00    +0.052 HD
ATOM     43  H   UNL     1       2.086   7.380  20.717  0.00  0.00    +0.052 HD
ATOM     44  H   UNL     1       4.496   5.940  16.362  0.00  0.00    +0.063 HD
ATOM     45  H   UNL     1       4.609   3.536  17.053  0.00  0.00    +0.062 HD
ATOM     46  H   UNL     1       3.359   2.747  19.034  0.00  0.00    +0.062 HD
BRANCH  39  47
ATOM     47  C   UNL     1       1.735   4.219  20.722  0.00  0.00    +0.418 C 
ATOM     48  F   UNL     1       2.296   4.571  21.909  0.00  0.00    -0.166 F 
ATOM     49  F   UNL     1       1.601   2.864  20.751  0.00  0.00    -0.166 F 
ATOM     50  F   UNL     1       0.467   4.716  20.739  0.00  0.00    -0.166 F 
ENDBRANCH  39  47
ENDBRANCH   9  32
BRANCH   1  51
ATOM     51  C   UNL     1       2.394  13.186  17.911  0.00  0.00    -0.012 C 
ATOM     52  H   UNL     1       1.976  13.286  16.899  0.00  0.00    +0.035 HD
BRANCH  51  53
ATOM     53  C   UNL     1       3.908  13.010  17.729  0.00  0.00    -0.058 C 
ATOM     54  H   UNL     1       4.138  12.037  17.282  0.00  0.00    +0.024 HD
ATOM     55  H   UNL     1       4.314  13.780  17.064  0.00  0.00    +0.024 HD
ATOM     56  H   UNL     1       4.448  13.080  18.678  0.00  0.00    +0.024 HD
ENDBRANCH  51  53
BRANCH  51  57
ATOM     57  C   UNL     1       2.040  14.449  18.722  0.00  0.00    +0.014 C 
ATOM     58  H   UNL     1       1.917  15.311  18.053  0.00  0.00    +0.035 HD
ATOM     59  H   UNL     1       1.071  14.318  19.221  0.00  0.00    +0.035 HD
BRANCH  57  60
ATOM     60  C   UNL     1       3.072  14.771  19.747  0.00  0.00    +0.134 A 
ATOM     61  N   UNL     1       4.355  14.976  19.524  0.00  0.00    -0.135 NA
ATOM     62  N   UNL     1       4.960  15.253  20.726  0.00  0.00    -0.138 NA
ATOM     63  C   UNL     1       4.036  15.204  21.657  0.00  0.00    +0.120 A 
ATOM     64  N   UNL     1       2.836  14.904  21.091  0.00  0.00    -0.320 N 
ATOM     65  H   UNL     1       4.188  15.373  22.714  0.00  0.00    +0.105 HD
BRANCH  64  66
ATOM     66  C   UNL     1       1.583  14.758  21.783  0.00  0.00    +0.014 C 
ATOM     67  H   UNL     1       0.785  14.635  21.045  0.00  0.00    +0.046 HD
ATOM     68  H   UNL     1       1.391  15.652  22.383  0.00  0.00    +0.046 HD
ATOM     69  H   UNL     1       1.645  13.882  22.433  0.00  0.00    +0.046 HD
ENDBRANCH  64  66
ENDBRANCH  57  60
ENDBRANCH  51  57
ENDBRANCH   1  51
TORSDOF 8
ENDMDL
MODEL 15
REMARK VINA RESULT:    -5.776      4.071      8.854
REMARK INTER + INTRA:          -7.179
REMARK INTER:                  -7.288
REMARK INTRA:                   0.109
REMARK UNBOUND:                 0.961
REMARK  Name = 
REMARK  8 active torsions:
REMARK  status: ('A' for Active; 'I' for Inactive)
REMARK    1  A    between atoms: C_1  and  C_2
REMARK    2  A    between atoms: C_2  and  C_3
REMARK    3  A    between atoms: C_2  and  C_10
REMARK    4  A    between atoms: C_3  and  C_4
REMARK    5  A    between atoms: N_8  and  C_9
REMARK    6  A    between atoms: N_16  and  C_17
REMARK    7  A    between atoms: C_24  and  N_26
REMARK    8  A    between atoms: C_33  and  C_34
REMARK                            x       y       z     vdW  Elec       q    Type
REMARK                         _______ _______ _______ _____ _____    ______ ____
ROOT
ATOM      1  C   UNL     1       2.289   5.704  19.251  0.00  0.00    -0.038 A 
ATOM      2  C   UNL     1       1.912   7.051  19.290  0.00  0.00    -0.018 A 
ATOM      3  C   UNL     1       2.471   7.929  18.379  0.00  0.00    +0.128 A 
ATOM      4  N   UNL     1       2.164   9.286  18.303  0.00  0.00    -0.254 N 
ATOM      5  C   UNL     1       1.195   9.979  18.976  0.00  0.00    +0.305 C 
ATOM      6  O   UNL     1       0.388   9.513  19.771  0.00  0.00    -0.252 OA
ATOM      7  N   UNL     1       1.215  11.316  18.630  0.00  0.00    -0.296 N 
ATOM      8  N   UNL     1       3.380   7.542  17.467  0.00  0.00    -0.217 NA
ATOM      9  C   UNL     1       3.757   6.251  17.407  0.00  0.00    +0.130 A 
ATOM     10  C   UNL     1       3.219   5.307  18.281  0.00  0.00    -0.018 A 
ATOM     11  H   UNL     1       1.192   7.389  20.025  0.00  0.00    +0.065 HD
ATOM     12  H   UNL     1       2.651   9.739  17.544  0.00  0.00    +0.158 HD
ATOM     13  H   UNL     1       2.104  11.667  18.307  0.00  0.00    +0.151 HD
ATOM     14  H   UNL     1       3.508   4.264  18.224  0.00  0.00    +0.065 HD
ENDROOT
BRANCH   7  15
ATOM     15  C   UNL     1       0.325  12.279  19.269  0.00  0.00    +0.025 C 
ATOM     16  C   UNL     1       0.174  13.531  18.389  0.00  0.00    -0.034 C 
ATOM     17  C   UNL     1       1.164  14.623  18.776  0.00  0.00    -0.051 C 
ATOM     18  C   UNL     1       0.962  15.084  20.221  0.00  0.00    -0.053 C 
ATOM     19  C   UNL     1       0.395  13.996  21.136  0.00  0.00    -0.051 C 
ATOM     20  C   UNL     1       0.820  12.603  20.691  0.00  0.00    -0.034 C 
ATOM     21  H   UNL     1      -0.664  11.804  19.341  0.00  0.00    +0.050 HD
ATOM     22  H   UNL     1       0.288  13.280  17.327  0.00  0.00    +0.028 HD
ATOM     23  H   UNL     1      -0.843  13.929  18.507  0.00  0.00    +0.028 HD
ATOM     24  H   UNL     1       1.067  15.481  18.100  0.00  0.00    +0.027 HD
ATOM     25  H   UNL     1       2.187  14.245  18.655  0.00  0.00    +0.027 HD
ATOM     26  H   UNL     1       1.923  15.439  20.613  0.00  0.00    +0.027 HD
ATOM     27  H   UNL     1       0.286  15.948  20.243  0.00  0.00    +0.027 HD
ATOM     28  H   UNL     1      -0.700  14.055  21.137  0.00  0.00    +0.027 HD
ATOM     29  H   UNL     1       0.716  14.182  22.167  0.00  0.00    +0.027 HD
ATOM     30  H   UNL     1       1.915  12.536  20.740  0.00  0.00    +0.028 HD
ATOM     31  H   UNL     1       0.437  11.853  21.394  0.00  0.00    +0.028 HD
ENDBRANCH   7  15
BRANCH   9  32
ATOM     32  N   UNL     1       4.708   5.878  16.433  0.00  0.00    -0.248 N 
ATOM     33  C   UNL     1       4.398   5.023  15.303  0.00  0.00    +0.048 C 
ATOM     34  C   UNL     1       5.704   4.919  14.583  0.00  0.00    -0.006 A 
ATOM     35  C   UNL     1       6.667   5.661  15.259  0.00  0.00    +0.042 A 
ATOM     36  C   UNL     1       7.977   5.753  14.826  0.00  0.00    -0.049 A 
ATOM     37  C   UNL     1       8.319   5.068  13.660  0.00  0.00    -0.060 A 
ATOM     38  C   UNL     1       7.355   4.314  12.963  0.00  0.00    -0.050 A 
ATOM     39  C   UNL     1       6.025   4.229  13.416  0.00  0.00    +0.060 A 
ATOM     40  C   UNL     1       6.044   6.278  16.439  0.00  0.00    +0.253 C 
ATOM     41  O   UNL     1       6.680   6.985  17.198  0.00  0.00    -0.270 OA
ATOM     42  H   UNL     1       3.643   5.502  14.672  0.00  0.00    +0.052 HD
ATOM     43  H   UNL     1       4.071   4.041  15.660  0.00  0.00    +0.052 HD
ATOM     44  H   UNL     1       8.706   6.340  15.377  0.00  0.00    +0.063 HD
ATOM     45  H   UNL     1       9.341   5.118  13.287  0.00  0.00    +0.062 HD
ATOM     46  H   UNL     1       7.657   3.794  12.054  0.00  0.00    +0.062 HD
BRANCH  39  47
ATOM     47  C   UNL     1       4.984   3.436  12.674  0.00  0.00    +0.418 C 
ATOM     48  F   UNL     1       4.276   4.165  11.770  0.00  0.00    -0.166 F 
ATOM     49  F   UNL     1       4.069   2.881  13.515  0.00  0.00    -0.166 F 
ATOM     50  F   UNL     1       5.527   2.397  11.982  0.00  0.00    -0.166 F 
ENDBRANCH  39  47
ENDBRANCH   9  32
BRANCH   1  51
ATOM     51  C   UNL     1       1.648   4.722  20.221  0.00  0.00    -0.012 C 
ATOM     52  H   UNL     1       0.611   5.048  20.387  0.00  0.00    +0.035 HD
BRANCH  51  53
ATOM     53  C   UNL     1       2.325   4.744  21.598  0.00  0.00    -0.058 C 
ATOM     54  H   UNL     1       1.990   5.606  22.185  0.00  0.00    +0.024 HD
ATOM     55  H   UNL     1       2.078   3.843  22.170  0.00  0.00    +0.024 HD
ATOM     56  H   UNL     1       3.415   4.794  21.520  0.00  0.00    +0.024 HD
ENDBRANCH  51  53
BRANCH  51  57
ATOM     57  C   UNL     1       1.631   3.313  19.595  0.00  0.00    +0.014 C 
ATOM     58  H   UNL     1       0.784   2.732  19.981  0.00  0.00    +0.035 HD
ATOM     59  H   UNL     1       1.474   3.383  18.510  0.00  0.00    +0.035 HD
BRANCH  57  60
ATOM     60  C   UNL     1       2.893   2.564  19.852  0.00  0.00    +0.134 A 
ATOM     61  N   UNL     1       3.473   2.394  21.024  0.00  0.00    -0.135 NA
ATOM     62  N   UNL     1       4.607   1.640  20.835  0.00  0.00    -0.138 NA
ATOM     63  C   UNL     1       4.698   1.373  19.553  0.00  0.00    +0.120 A 
ATOM     64  N   UNL     1       3.646   1.932  18.896  0.00  0.00    -0.320 N 
ATOM     65  H   UNL     1       5.481   0.799  19.077  0.00  0.00    +0.105 HD
BRANCH  64  66
ATOM     66  C   UNL     1       3.395   1.865  17.481  0.00  0.00    +0.014 C 
ATOM     67  H   UNL     1       4.352   1.840  16.954  0.00  0.00    +0.046 HD
ATOM     68  H   UNL     1       2.828   2.746  17.168  0.00  0.00    +0.046 HD
ATOM     69  H   UNL     1       2.817   0.961  17.274  0.00  0.00    +0.046 HD
ENDBRANCH  64  66
ENDBRANCH  57  60
ENDBRANCH  51  57
ENDBRANCH   1  51
TORSDOF 8
ENDMDL
MODEL 16
REMARK VINA RESULT:    -5.754      4.779     10.631
REMARK INTER + INTRA:          -7.148
REMARK INTER:                  -7.350
REMARK INTRA:                   0.202
REMARK UNBOUND:                 0.961
REMARK  Name = 
REMARK  8 active torsions:
REMARK  status: ('A' for Active; 'I' for Inactive)
REMARK    1  A    between atoms: C_1  and  C_2
REMARK    2  A    between atoms: C_2  and  C_3
REMARK    3  A    between atoms: C_2  and  C_10
REMARK    4  A    between atoms: C_3  and  C_4
REMARK    5  A    between atoms: N_8  and  C_9
REMARK    6  A    between atoms: N_16  and  C_17
REMARK    7  A    between atoms: C_24  and  N_26
REMARK    8  A    between atoms: C_33  and  C_34
REMARK                            x       y       z     vdW  Elec       q    Type
REMARK                         _______ _______ _______ _____ _____    ______ ____
ROOT
ATOM      1  C   UNL     1      -0.576  10.011  17.921  0.00  0.00    -0.038 A 
ATOM      2  C   UNL     1      -0.853  10.596  19.161  0.00  0.00    -0.018 A 
ATOM      3  C   UNL     1      -0.129  10.192  20.268  0.00  0.00    +0.128 A 
ATOM      4  N   UNL     1      -0.295  10.711  21.550  0.00  0.00    -0.254 N 
ATOM      5  C   UNL     1      -1.064  11.772  21.946  0.00  0.00    +0.305 C 
ATOM      6  O   UNL     1      -1.744  12.487  21.221  0.00  0.00    -0.252 OA
ATOM      7  N   UNL     1      -0.969  11.968  23.310  0.00  0.00    -0.296 N 
ATOM      8  N   UNL     1       0.820   9.241  20.203  0.00  0.00    -0.217 NA
ATOM      9  C   UNL     1       1.106   8.665  19.021  0.00  0.00    +0.130 A 
ATOM     10  C   UNL     1       0.430   9.037  17.860  0.00  0.00    -0.018 A 
ATOM     11  H   UNL     1      -1.623  11.354  19.240  0.00  0.00    +0.065 HD
ATOM     12  H   UNL     1       0.358  10.310  22.206  0.00  0.00    +0.158 HD
ATOM     13  H   UNL     1      -0.732  11.148  23.850  0.00  0.00    +0.151 HD
ATOM     14  H   UNL     1       0.671   8.588  16.904  0.00  0.00    +0.065 HD
ENDROOT
BRANCH   7  15
ATOM     15  C   UNL     1      -1.754  12.994  23.986  0.00  0.00    +0.025 C 
ATOM     16  C   UNL     1      -3.214  12.533  24.139  0.00  0.00    -0.034 C 
ATOM     17  C   UNL     1      -4.090  13.026  22.993  0.00  0.00    -0.051 C 
ATOM     18  C   UNL     1      -4.124  14.555  22.923  0.00  0.00    -0.053 C 
ATOM     19  C   UNL     1      -2.852  15.219  23.454  0.00  0.00    -0.051 C 
ATOM     20  C   UNL     1      -1.625  14.340  23.250  0.00  0.00    -0.034 C 
ATOM     21  H   UNL     1      -1.336  13.104  24.996  0.00  0.00    +0.050 HD
ATOM     22  H   UNL     1      -3.274  11.441  24.214  0.00  0.00    +0.028 HD
ATOM     23  H   UNL     1      -3.618  12.933  25.078  0.00  0.00    +0.028 HD
ATOM     24  H   UNL     1      -5.110  12.641  23.102  0.00  0.00    +0.027 HD
ATOM     25  H   UNL     1      -3.706  12.628  22.045  0.00  0.00    +0.027 HD
ATOM     26  H   UNL     1      -4.295  14.854  21.882  0.00  0.00    +0.027 HD
ATOM     27  H   UNL     1      -4.981  14.932  23.495  0.00  0.00    +0.027 HD
ATOM     28  H   UNL     1      -2.969  15.428  24.525  0.00  0.00    +0.027 HD
ATOM     29  H   UNL     1      -2.713  16.189  22.962  0.00  0.00    +0.027 HD
ATOM     30  H   UNL     1      -1.485  14.175  22.173  0.00  0.00    +0.028 HD
ATOM     31  H   UNL     1      -0.727  14.865  23.597  0.00  0.00    +0.028 HD
ENDBRANCH   7  15
BRANCH   9  32
ATOM     32  N   UNL     1       2.113   7.676  18.987  0.00  0.00    -0.248 N 
ATOM     33  C   UNL     1       3.206   7.683  18.034  0.00  0.00    +0.048 C 
ATOM     34  C   UNL     1       3.982   6.456  18.393  0.00  0.00    -0.006 A 
ATOM     35  C   UNL     1       3.368   5.815  19.464  0.00  0.00    +0.042 A 
ATOM     36  C   UNL     1       3.862   4.649  20.017  0.00  0.00    -0.049 A 
ATOM     37  C   UNL     1       5.025   4.114  19.461  0.00  0.00    -0.060 A 
ATOM     38  C   UNL     1       5.659   4.752  18.378  0.00  0.00    -0.050 A 
ATOM     39  C   UNL     1       5.144   5.939  17.824  0.00  0.00    +0.060 A 
ATOM     40  C   UNL     1       2.177   6.584  19.853  0.00  0.00    +0.253 C 
ATOM     41  O   UNL     1       1.465   6.232  20.775  0.00  0.00    -0.270 OA
ATOM     42  H   UNL     1       3.814   8.582  18.175  0.00  0.00    +0.052 HD
ATOM     43  H   UNL     1       2.811   7.610  17.016  0.00  0.00    +0.052 HD
ATOM     44  H   UNL     1       3.359   4.172  20.853  0.00  0.00    +0.063 HD
ATOM     45  H   UNL     1       5.445   3.197  19.871  0.00  0.00    +0.062 HD
ATOM     46  H   UNL     1       6.568   4.308  17.970  0.00  0.00    +0.062 HD
BRANCH  39  47
ATOM     47  C   UNL     1       5.819   6.636  16.674  0.00  0.00    +0.418 C 
ATOM     48  F   UNL     1       4.978   6.961  15.656  0.00  0.00    -0.166 F 
ATOM     49  F   UNL     1       6.806   5.874  16.124  0.00  0.00    -0.166 F 
ATOM     50  F   UNL     1       6.419   7.796  17.056  0.00  0.00    -0.166 F 
ENDBRANCH  39  47
ENDBRANCH   9  32
BRANCH   1  51
ATOM     51  C   UNL     1      -1.337  10.479  16.688  0.00  0.00    -0.012 C 
ATOM     52  H   UNL     1      -0.613  10.573  15.867  0.00  0.00    +0.035 HD
BRANCH  51  53
ATOM     53  C   UNL     1      -1.946  11.875  16.880  0.00  0.00    -0.058 C 
ATOM     54  H   UNL     1      -3.012  11.875  16.632  0.00  0.00    +0.024 HD
ATOM     55  H   UNL     1      -1.853  12.202  17.921  0.00  0.00    +0.024 HD
ATOM     56  H   UNL     1      -1.456  12.627  16.255  0.00  0.00    +0.024 HD
ENDBRANCH  51  53
BRANCH  51  57
ATOM     57  C   UNL     1      -2.394   9.424  16.301  0.00  0.00    +0.014 C 
ATOM     58  H   UNL     1      -1.954   8.419  16.314  0.00  0.00    +0.035 HD
ATOM     59  H   UNL     1      -3.201   9.406  17.046  0.00  0.00    +0.035 HD
BRANCH  57  60
ATOM     60  C   UNL     1      -2.983   9.681  14.956  0.00  0.00    +0.134 A 
ATOM     61  N   UNL     1      -2.519   9.238  13.805  0.00  0.00    -0.135 NA
ATOM     62  N   UNL     1      -3.351   9.686  12.807  0.00  0.00    -0.138 NA
ATOM     63  C   UNL     1      -4.299  10.398  13.369  0.00  0.00    +0.120 A 
ATOM     64  N   UNL     1      -4.110  10.424  14.717  0.00  0.00    -0.320 N 
ATOM     65  H   UNL     1      -5.112  10.894  12.857  0.00  0.00    +0.105 HD
BRANCH  64  66
ATOM     66  C   UNL     1      -4.937  11.103  15.678  0.00  0.00    +0.014 C 
ATOM     67  H   UNL     1      -5.681  10.401  16.062  0.00  0.00    +0.046 HD
ATOM     68  H   UNL     1      -5.443  11.944  15.196  0.00  0.00    +0.046 HD
ATOM     69  H   UNL     1      -4.300  11.470  16.487  0.00  0.00    +0.046 HD
ENDBRANCH  64  66
ENDBRANCH  57  60
ENDBRANCH  51  57
ENDBRANCH   1  51
TORSDOF 8
ENDMDL
MODEL 17
REMARK VINA RESULT:    -5.406      3.995     10.545
REMARK INTER + INTRA:          -6.657
REMARK INTER:                  -7.137
REMARK INTRA:                   0.480
REMARK UNBOUND:                 0.961
REMARK  Name = 
REMARK  8 active torsions:
REMARK  status: ('A' for Active; 'I' for Inactive)
REMARK    1  A    between atoms: C_1  and  C_2
REMARK    2  A    between atoms: C_2  and  C_3
REMARK    3  A    between atoms: C_2  and  C_10
REMARK    4  A    between atoms: C_3  and  C_4
REMARK    5  A    between atoms: N_8  and  C_9
REMARK    6  A    between atoms: N_16  and  C_17
REMARK    7  A    between atoms: C_24  and  N_26
REMARK    8  A    between atoms: C_33  and  C_34
REMARK                            x       y       z     vdW  Elec       q    Type
REMARK                         _______ _______ _______ _____ _____    ______ ____
ROOT
ATOM      1  C   UNL     1       0.616  11.156  18.774  0.00  0.00    -0.038 A 
ATOM      2  C   UNL     1      -0.152  11.345  19.928  0.00  0.00    -0.018 A 
ATOM      3  C   UNL     1      -0.191  10.341  20.878  0.00  0.00    +0.128 A 
ATOM      4  N   UNL     1      -0.900  10.416  22.075  0.00  0.00    -0.254 N 
ATOM      5  C   UNL     1      -1.559  11.490  22.609  0.00  0.00    +0.305 C 
ATOM      6  O   UNL     1      -1.626  12.614  22.127  0.00  0.00    -0.252 OA
ATOM      7  N   UNL     1      -2.149  11.158  23.812  0.00  0.00    -0.296 N 
ATOM      8  N   UNL     1       0.467   9.177  20.727  0.00  0.00    -0.217 NA
ATOM      9  C   UNL     1       1.215   8.973  19.627  0.00  0.00    +0.130 A 
ATOM     10  C   UNL     1       1.316   9.950  18.638  0.00  0.00    -0.018 A 
ATOM     11  H   UNL     1      -0.702  12.268  20.065  0.00  0.00    +0.065 HD
ATOM     12  H   UNL     1      -0.764   9.594  22.645  0.00  0.00    +0.158 HD
ATOM     13  H   UNL     1      -2.377  10.182  23.929  0.00  0.00    +0.151 HD
ATOM     14  H   UNL     1       1.932   9.794  17.760  0.00  0.00    +0.065 HD
ENDROOT
BRANCH   7  15
ATOM     15  C   UNL     1      -2.974  12.114  24.543  0.00  0.00    +0.025 C 
ATOM     16  C   UNL     1      -4.450  11.962  24.139  0.00  0.00    -0.034 C 
ATOM     17  C   UNL     1      -4.837  12.922  23.020  0.00  0.00    -0.051 C 
ATOM     18  C   UNL     1      -4.650  14.383  23.437  0.00  0.00    -0.053 C 
ATOM     19  C   UNL     1      -3.545  14.586  24.476  0.00  0.00    -0.051 C 
ATOM     20  C   UNL     1      -2.442  13.545  24.340  0.00  0.00    -0.034 C 
ATOM     21  H   UNL     1      -2.895  11.858  25.608  0.00  0.00    +0.050 HD
ATOM     22  H   UNL     1      -4.671  10.931  23.842  0.00  0.00    +0.028 HD
ATOM     23  H   UNL     1      -5.082  12.177  25.011  0.00  0.00    +0.028 HD
ATOM     24  H   UNL     1      -5.878  12.756  22.720  0.00  0.00    +0.027 HD
ATOM     25  H   UNL     1      -4.221  12.716  22.136  0.00  0.00    +0.027 HD
ATOM     26  H   UNL     1      -4.435  14.979  22.541  0.00  0.00    +0.027 HD
ATOM     27  H   UNL     1      -5.591  14.774  23.845  0.00  0.00    +0.027 HD
ATOM     28  H   UNL     1      -3.976  14.524  25.483  0.00  0.00    +0.027 HD
ATOM     29  H   UNL     1      -3.131  15.596  24.377  0.00  0.00    +0.027 HD
ATOM     30  H   UNL     1      -1.982  13.646  23.347  0.00  0.00    +0.028 HD
ATOM     31  H   UNL     1      -1.645  13.748  25.066  0.00  0.00    +0.028 HD
ENDBRANCH   7  15
BRANCH   9  32
ATOM     32  N   UNL     1       1.899   7.744  19.504  0.00  0.00    -0.248 N 
ATOM     33  C   UNL     1       1.692   6.623  20.401  0.00  0.00    +0.048 C 
ATOM     34  C   UNL     1       2.627   5.583  19.873  0.00  0.00    -0.006 A 
ATOM     35  C   UNL     1       3.303   6.086  18.765  0.00  0.00    +0.042 A 
ATOM     36  C   UNL     1       4.237   5.348  18.063  0.00  0.00    -0.049 A 
ATOM     37  C   UNL     1       4.492   4.048  18.502  0.00  0.00    -0.060 A 
ATOM     38  C   UNL     1       3.815   3.524  19.620  0.00  0.00    -0.050 A 
ATOM     39  C   UNL     1       2.867   4.288  20.326  0.00  0.00    +0.060 A 
ATOM     40  C   UNL     1       2.845   7.462  18.519  0.00  0.00    +0.253 C 
ATOM     41  O   UNL     1       3.285   8.124  17.597  0.00  0.00    -0.270 OA
ATOM     42  H   UNL     1       0.654   6.282  20.334  0.00  0.00    +0.052 HD
ATOM     43  H   UNL     1       1.964   6.909  21.422  0.00  0.00    +0.052 HD
ATOM     44  H   UNL     1       4.748   5.769  17.203  0.00  0.00    +0.063 HD
ATOM     45  H   UNL     1       5.220   3.435  17.974  0.00  0.00    +0.062 HD
ATOM     46  H   UNL     1       4.037   2.504  19.934  0.00  0.00    +0.062 HD
BRANCH  39  47
ATOM     47  C   UNL     1       2.129   3.734  21.515  0.00  0.00    +0.418 C 
ATOM     48  F   UNL     1       0.784   3.645  21.337  0.00  0.00    -0.166 F 
ATOM     49  F   UNL     1       2.316   4.494  22.630  0.00  0.00    -0.166 F 
ATOM     50  F   UNL     1       2.553   2.484  21.846  0.00  0.00    -0.166 F 
ENDBRANCH  39  47
ENDBRANCH   9  32
BRANCH   1  51
ATOM     51  C   UNL     1       0.700  12.272  17.743  0.00  0.00    -0.012 C 
ATOM     52  H   UNL     1       1.029  11.824  16.795  0.00  0.00    +0.035 HD
BRANCH  51  53
ATOM     53  C   UNL     1       1.762  13.319  18.108  0.00  0.00    -0.058 C 
ATOM     54  H   UNL     1       2.296  13.661  17.216  0.00  0.00    +0.024 HD
ATOM     55  H   UNL     1       1.302  14.197  18.571  0.00  0.00    +0.024 HD
ATOM     56  H   UNL     1       2.501  12.926  18.812  0.00  0.00    +0.024 HD
ENDBRANCH  51  53
BRANCH  51  57
ATOM     57  C   UNL     1      -0.696  12.895  17.539  0.00  0.00    +0.014 C 
ATOM     58  H   UNL     1      -0.957  13.537  18.391  0.00  0.00    +0.035 HD
ATOM     59  H   UNL     1      -0.691  13.554  16.660  0.00  0.00    +0.035 HD
BRANCH  57  60
ATOM     60  C   UNL     1      -1.757  11.863  17.364  0.00  0.00    +0.134 A 
ATOM     61  N   UNL     1      -1.781  10.920  16.443  0.00  0.00    -0.135 NA
ATOM     62  N   UNL     1      -2.919  10.172  16.628  0.00  0.00    -0.138 NA
ATOM     63  C   UNL     1      -3.568  10.678  17.650  0.00  0.00    +0.120 A 
ATOM     64  N   UNL     1      -2.878  11.742  18.144  0.00  0.00    -0.320 N 
ATOM     65  H   UNL     1      -4.505  10.318  18.050  0.00  0.00    +0.105 HD
BRANCH  64  66
ATOM     66  C   UNL     1      -3.266  12.562  19.260  0.00  0.00    +0.014 C 
ATOM     67  H   UNL     1      -3.061  12.017  20.186  0.00  0.00    +0.046 HD
ATOM     68  H   UNL     1      -4.334  12.785  19.197  0.00  0.00    +0.046 HD
ATOM     69  H   UNL     1      -2.692  13.491  19.225  0.00  0.00    +0.046 HD
ENDBRANCH  64  66
ENDBRANCH  57  60
ENDBRANCH  51  57
ENDBRANCH   1  51
TORSDOF 8
ENDMDL
MODEL 18
REMARK VINA RESULT:    -5.344      4.473     10.661
REMARK INTER + INTRA:          -6.570
REMARK INTER:                  -6.532
REMARK INTRA:                  -0.038
REMARK UNBOUND:                 0.961
REMARK  Name = 
REMARK  8 active torsions:
REMARK  status: ('A' for Active; 'I' for Inactive)
REMARK    1  A    between atoms: C_1  and  C_2
REMARK    2  A    between atoms: C_2  and  C_3
REMARK    3  A    between atoms: C_2  and  C_10
REMARK    4  A    between atoms: C_3  and  C_4
REMARK    5  A    between atoms: N_8  and  C_9
REMARK    6  A    between atoms: N_16  and  C_17
REMARK    7  A    between atoms: C_24  and  N_26
REMARK    8  A    between atoms: C_33  and  C_34
REMARK                            x       y       z     vdW  Elec       q    Type
REMARK                         _______ _______ _______ _____ _____    ______ ____
ROOT
ATOM      1  C   UNL     1      -0.295  10.284  17.940  0.00  0.00    -0.038 A 
ATOM      2  C   UNL     1      -0.683  10.756  19.198  0.00  0.00    -0.018 A 
ATOM      3  C   UNL     1      -0.119  10.191  20.327  0.00  0.00    +0.128 A 
ATOM      4  N   UNL     1      -0.407  10.584  21.633  0.00  0.00    -0.254 N 
ATOM      5  C   UNL     1      -1.157  11.647  22.056  0.00  0.00    +0.305 C 
ATOM      6  O   UNL     1      -1.706  12.479  21.343  0.00  0.00    -0.252 OA
ATOM      7  N   UNL     1      -1.213  11.694  23.435  0.00  0.00    -0.296 N 
ATOM      8  N   UNL     1       0.777   9.189  20.265  0.00  0.00    -0.217 NA
ATOM      9  C   UNL     1       1.169   8.721  19.065  0.00  0.00    +0.130 A 
ATOM     10  C   UNL     1       0.657   9.257  17.885  0.00  0.00    -0.018 A 
ATOM     11  H   UNL     1      -1.414  11.551  19.275  0.00  0.00    +0.065 HD
ATOM     12  H   UNL     1       0.141  10.073  22.309  0.00  0.00    +0.158 HD
ATOM     13  H   UNL     1      -1.088  10.809  23.904  0.00  0.00    +0.151 HD
ATOM     14  H   UNL     1       0.983   8.893  16.917  0.00  0.00    +0.065 HD
ENDROOT
BRANCH   7  15
ATOM     15  C   UNL     1      -2.015  12.695  24.129  0.00  0.00    +0.025 C 
ATOM     16  C   UNL     1      -3.493  12.269  24.154  0.00  0.00    -0.034 C 
ATOM     17  C   UNL     1      -4.278  12.865  22.992  0.00  0.00    -0.051 C 
ATOM     18  C   UNL     1      -4.268  14.395  23.026  0.00  0.00    -0.053 C 
ATOM     19  C   UNL     1      -3.017  14.984  23.683  0.00  0.00    -0.051 C 
ATOM     20  C   UNL     1      -1.803  14.083  23.498  0.00  0.00    -0.034 C 
ATOM     21  H   UNL     1      -1.662  12.724  25.170  0.00  0.00    +0.050 HD
ATOM     22  H   UNL     1      -3.587  11.177  24.150  0.00  0.00    +0.028 HD
ATOM     23  H   UNL     1      -3.948  12.617  25.092  0.00  0.00    +0.028 HD
ATOM     24  H   UNL     1      -5.313  12.505  23.008  0.00  0.00    +0.027 HD
ATOM     25  H   UNL     1      -3.842  12.521  22.046  0.00  0.00    +0.027 HD
ATOM     26  H   UNL     1      -4.362  14.770  22.000  0.00  0.00    +0.027 HD
ATOM     27  H   UNL     1      -5.151  14.758  23.566  0.00  0.00    +0.027 HD
ATOM     28  H   UNL     1      -3.201  15.123  24.756  0.00  0.00    +0.027 HD
ATOM     29  H   UNL     1      -2.821  15.979  23.270  0.00  0.00    +0.027 HD
ATOM     30  H   UNL     1      -1.596  13.988  22.423  0.00  0.00    +0.028 HD
ATOM     31  H   UNL     1      -0.917  14.556  23.938  0.00  0.00    +0.028 HD
ENDBRANCH   7  15
BRANCH   9  32
ATOM     32  N   UNL     1       2.116   7.675  19.034  0.00  0.00    -0.248 N 
ATOM     33  C   UNL     1       3.248   7.650  18.128  0.00  0.00    +0.048 C 
ATOM     34  C   UNL     1       3.934   6.367  18.470  0.00  0.00    -0.006 A 
ATOM     35  C   UNL     1       3.238   5.725  19.490  0.00  0.00    +0.042 A 
ATOM     36  C   UNL     1       3.638   4.512  20.017  0.00  0.00    -0.049 A 
ATOM     37  C   UNL     1       4.790   3.929  19.489  0.00  0.00    -0.060 A 
ATOM     38  C   UNL     1       5.507   4.566  18.458  0.00  0.00    -0.050 A 
ATOM     39  C   UNL     1       5.087   5.802  17.931  0.00  0.00    +0.060 A 
ATOM     40  C   UNL     1       2.078   6.551  19.859  0.00  0.00    +0.253 C 
ATOM     41  O   UNL     1       1.307   6.209  20.737  0.00  0.00    -0.270 OA
ATOM     42  H   UNL     1       3.901   8.505  18.329  0.00  0.00    +0.052 HD
ATOM     43  H   UNL     1       2.894   7.639  17.093  0.00  0.00    +0.052 HD
ATOM     44  H   UNL     1       3.072   4.037  20.813  0.00  0.00    +0.063 HD
ATOM     45  H   UNL     1       5.138   2.974  19.880  0.00  0.00    +0.062 HD
ATOM     46  H   UNL     1       6.405   4.084  18.071  0.00  0.00    +0.062 HD
BRANCH  39  47
ATOM     47  C   UNL     1       5.851   6.497  16.837  0.00  0.00    +0.418 C 
ATOM     48  F   UNL     1       5.106   6.774  15.734  0.00  0.00    -0.166 F 
ATOM     49  F   UNL     1       6.910   5.758  16.404  0.00  0.00    -0.166 F 
ATOM     50  F   UNL     1       6.374   7.684  17.250  0.00  0.00    -0.166 F 
ENDBRANCH  39  47
ENDBRANCH   9  32
BRANCH   1  51
ATOM     51  C   UNL     1      -0.878  10.928  16.690  0.00  0.00    -0.012 C 
ATOM     52  H   UNL     1      -0.113  10.875  15.902  0.00  0.00    +0.035 HD
BRANCH  51  53
ATOM     53  C   UNL     1      -1.174  12.421  16.893  0.00  0.00    -0.058 C 
ATOM     54  H   UNL     1      -1.608  12.860  15.988  0.00  0.00    +0.024 HD
ATOM     55  H   UNL     1      -1.893  12.569  17.706  0.00  0.00    +0.024 HD
ATOM     56  H   UNL     1      -0.274  12.989  17.144  0.00  0.00    +0.024 HD
ENDBRANCH  51  53
BRANCH  51  57
ATOM     57  C   UNL     1      -2.120  10.138  16.231  0.00  0.00    +0.014 C 
ATOM     58  H   UNL     1      -2.199  10.150  15.136  0.00  0.00    +0.035 HD
ATOM     59  H   UNL     1      -2.018   9.080  16.510  0.00  0.00    +0.035 HD
BRANCH  57  60
ATOM     60  C   UNL     1      -3.380  10.673  16.817  0.00  0.00    +0.134 A 
ATOM     61  N   UNL     1      -4.034  11.744  16.413  0.00  0.00    -0.135 NA
ATOM     62  N   UNL     1      -5.147  11.891  17.206  0.00  0.00    -0.138 NA
ATOM     63  C   UNL     1      -5.145  10.913  18.080  0.00  0.00    +0.120 A 
ATOM     64  N   UNL     1      -4.055  10.124  17.877  0.00  0.00    -0.320 N 
ATOM     65  H   UNL     1      -5.885  10.746  18.850  0.00  0.00    +0.105 HD
BRANCH  64  66
ATOM     66  C   UNL     1      -3.700   8.954  18.634  0.00  0.00    +0.014 C 
ATOM     67  H   UNL     1      -2.704   8.624  18.327  0.00  0.00    +0.046 HD
ATOM     68  H   UNL     1      -4.424   8.158  18.439  0.00  0.00    +0.046 HD
ATOM     69  H   UNL     1      -3.711   9.211  19.696  0.00  0.00    +0.046 HD
ENDBRANCH  64  66
ENDBRANCH  57  60
ENDBRANCH  51  57
ENDBRANCH   1  51
TORSDOF 8
ENDMDL
