MODEL 1
REMARK VINA RESULT:    -8.878      0.000      0.000
REMARK INTER + INTRA:         -11.699
REMARK INTER:                 -11.133
REMARK INTRA:                  -0.566
REMARK UNBOUND:                -0.486
REMARK  Name = 
REMARK  5 active torsions:
REMARK  status: ('A' for Active; 'I' for Inactive)
REMARK    1  A    between atoms: C_1  and  N_2
REMARK    2  A    between atoms: C_6  and  C_7
REMARK    3  A    between atoms: C_11  and  N_12
REMARK    4  A    between atoms: C_13  and  C_15
REMARK    5  A    between atoms: C_18  and  C_19
REMARK                            x       y       z     vdW  Elec       q    Type
REMARK                         _______ _______ _______ _____ _____    ______ ____
ROOT
ATOM      1  N   UNL     1       1.367   9.286  18.255  0.00  0.00    -0.279 N 
ATOM      2  C   UNL     1       1.775   8.349  19.196  0.00  0.00    +0.284 C 
ATOM      3  O   UNL     1       1.573   8.451  20.403  0.00  0.00    -0.266 OA
ATOM      4  H   UNL     1       1.625   9.113  17.295  0.00  0.00    +0.155 HD
ENDROOT
BRANCH   2   5
ATOM      5  C   UNL     1       2.492   7.210  18.632  0.00  0.00    +0.193 A 
ATOM      6  C   UNL     1       3.534   7.085  17.712  0.00  0.00    -0.001 A 
ATOM      7  C   UNL     1       3.781   5.704  17.578  0.00  0.00    +0.051 A 
ATOM      8  C   UNL     1       4.677   4.887  16.832  0.00  0.00    +0.072 A 
ATOM      9  C   UNL     1       4.612   3.545  16.969  0.00  0.00    +0.015 A 
ATOM     10  C   UNL     1       3.614   2.903  17.893  0.00  0.00    +0.252 A 
ATOM     11  O   UNL     1       3.578   1.683  17.999  0.00  0.00    -0.268 OA
ATOM     12  N   UNL     1       2.773   3.736  18.591  0.00  0.00    -0.293 N 
ATOM     13  C   UNL     1       2.892   5.076  18.404  0.00  0.00    +0.210 A 
ATOM     14  O   UNL     1       2.104   5.951  19.051  0.00  0.00    -0.434 OA
ATOM     15  H   UNL     1       4.044   7.892  17.204  0.00  0.00    +0.066 HD
ATOM     16  H   UNL     1       5.263   2.862  16.434  0.00  0.00    +0.068 HD
ATOM     17  H   UNL     1       2.082   3.357  19.225  0.00  0.00    +0.172 HD
BRANCH   8  18
ATOM     18  C   UNL     1       5.642   5.589  15.935  0.00  0.00    +0.418 C 
ATOM     19  F   UNL     1       5.027   6.429  15.063  0.00  0.00    -0.166 F 
ATOM     20  F   UNL     1       6.535   6.338  16.633  0.00  0.00    -0.166 F 
ATOM     21  F   UNL     1       6.367   4.715  15.188  0.00  0.00    -0.166 F 
ENDBRANCH   8  18
ENDBRANCH   2   5
BRANCH   1  26
ATOM     22  C   UNL     1      -1.546  11.578  18.333  0.00  0.00    +0.022 A 
ATOM     23  C   UNL     1      -0.984  12.735  18.881  0.00  0.00    -0.051 A 
ATOM     24  C   UNL     1       0.373  12.769  19.205  0.00  0.00    -0.059 A 
ATOM     25  C   UNL     1       1.179  11.647  18.999  0.00  0.00    -0.040 A 
ATOM     26  C   UNL     1       0.636  10.473  18.477  0.00  0.00    +0.034 A 
ATOM     27  C   UNL     1      -0.728  10.450  18.153  0.00  0.00    -0.030 A 
ATOM     28  H   UNL     1      -1.589  13.613  19.089  0.00  0.00    +0.062 HD
ATOM     29  H   UNL     1       0.808  13.670  19.635  0.00  0.00    +0.062 HD
ATOM     30  H   UNL     1       2.226  11.723  19.275  0.00  0.00    +0.064 HD
ATOM     31  H   UNL     1      -1.178   9.542  17.750  0.00  0.00    +0.064 HD
BRANCH  22  36
ATOM     32  N   UNL     1      -3.493  11.207  16.745  0.00  0.00    -0.228 N 
ATOM     33  N   UNL     1      -4.835  11.212  16.809  0.00  0.00    -0.044 NA
ATOM     34  N   UNL     1      -5.120  11.462  18.077  0.00  0.00    -0.023 NA
ATOM     35  N   UNL     1      -3.976  11.618  18.815  0.00  0.00    -0.108 NA
ATOM     36  C   UNL     1      -2.960  11.490  17.978  0.00  0.00    +0.182 A 
BRANCH  32  37
ATOM     37  C   UNL     1      -2.841  10.852  15.516  0.00  0.00    +0.034 C 
ATOM     38  H   UNL     1      -1.965  11.490  15.373  0.00  0.00    +0.047 HD
ATOM     39  H   UNL     1      -3.529  11.001  14.680  0.00  0.00    +0.047 HD
ATOM     40  H   UNL     1      -2.531   9.806  15.580  0.00  0.00    +0.047 HD
ENDBRANCH  32  37
ENDBRANCH  22  36
ENDBRANCH   1  26
TORSDOF 5
ENDMDL
MODEL 2
REMARK VINA RESULT:    -8.844      2.201      2.535
REMARK INTER + INTRA:         -11.657
REMARK INTER:                 -11.086
REMARK INTRA:                  -0.571
REMARK UNBOUND:                -0.486
REMARK  Name = 
REMARK  5 active torsions:
REMARK  status: ('A' for Active; 'I' for Inactive)
REMARK    1  A    between atoms: C_1  and  N_2
REMARK    2  A    between atoms: C_6  and  C_7
REMARK    3  A    between atoms: C_11  and  N_12
REMARK    4  A    between atoms: C_13  and  C_15
REMARK    5  A    between atoms: C_18  and  C_19
REMARK                            x       y       z     vdW  Elec       q    Type
REMARK                         _______ _______ _______ _____ _____    ______ ____
ROOT
ATOM      1  N   UNL     1       1.427   9.202  18.131  0.00  0.00    -0.279 N 
ATOM      2  C   UNL     1       1.835   8.254  19.061  0.00  0.00    +0.284 C 
ATOM      3  O   UNL     1       1.627   8.337  20.268  0.00  0.00    -0.266 OA
ATOM      4  H   UNL     1       1.690   9.044  17.170  0.00  0.00    +0.155 HD
ENDROOT
BRANCH   2   5
ATOM      5  C   UNL     1       2.559   7.126  18.483  0.00  0.00    +0.193 A 
ATOM      6  C   UNL     1       2.422   5.740  18.578  0.00  0.00    -0.001 A 
ATOM      7  C   UNL     1       3.441   5.185  17.778  0.00  0.00    +0.051 A 
ATOM      8  C   UNL     1       3.874   3.875  17.428  0.00  0.00    +0.072 A 
ATOM      9  C   UNL     1       4.934   3.732  16.603  0.00  0.00    +0.015 A 
ATOM     10  C   UNL     1       5.659   4.929  16.051  0.00  0.00    +0.252 A 
ATOM     11  O   UNL     1       6.617   4.770  15.304  0.00  0.00    -0.268 OA
ATOM     12  N   UNL     1       5.200   6.171  16.419  0.00  0.00    -0.293 N 
ATOM     13  C   UNL     1       4.130   6.241  17.253  0.00  0.00    +0.210 A 
ATOM     14  O   UNL     1       3.627   7.419  17.656  0.00  0.00    -0.434 OA
ATOM     15  H   UNL     1       1.681   5.205  19.157  0.00  0.00    +0.066 HD
ATOM     16  H   UNL     1       5.319   2.767  16.293  0.00  0.00    +0.068 HD
ATOM     17  H   UNL     1       5.652   7.008  16.078  0.00  0.00    +0.172 HD
BRANCH   8  18
ATOM     18  C   UNL     1       3.110   2.733  18.010  0.00  0.00    +0.418 C 
ATOM     19  F   UNL     1       3.143   2.721  19.367  0.00  0.00    -0.166 F 
ATOM     20  F   UNL     1       1.799   2.762  17.653  0.00  0.00    -0.166 F 
ATOM     21  F   UNL     1       3.599   1.533  17.599  0.00  0.00    -0.166 F 
ENDBRANCH   8  18
ENDBRANCH   2   5
BRANCH   1  26
ATOM     22  C   UNL     1      -1.496  11.481  18.230  0.00  0.00    +0.022 A 
ATOM     23  C   UNL     1      -0.941  12.632  18.796  0.00  0.00    -0.051 A 
ATOM     24  C   UNL     1       0.414  12.668  19.127  0.00  0.00    -0.059 A 
ATOM     25  C   UNL     1       1.226  11.551  18.907  0.00  0.00    -0.040 A 
ATOM     26  C   UNL     1       0.691  10.383  18.367  0.00  0.00    +0.034 A 
ATOM     27  C   UNL     1      -0.672  10.359  18.037  0.00  0.00    -0.030 A 
ATOM     28  H   UNL     1      -1.550  13.505  19.015  0.00  0.00    +0.062 HD
ATOM     29  H   UNL     1       0.844  13.564  19.571  0.00  0.00    +0.062 HD
ATOM     30  H   UNL     1       2.272  11.628  19.190  0.00  0.00    +0.064 HD
ATOM     31  H   UNL     1      -1.117   9.456  17.619  0.00  0.00    +0.064 HD
BRANCH  22  36
ATOM     32  N   UNL     1      -3.435  11.116  16.630  0.00  0.00    -0.228 N 
ATOM     33  N   UNL     1      -4.777  11.118  16.688  0.00  0.00    -0.044 NA
ATOM     34  N   UNL     1      -5.069  11.359  17.956  0.00  0.00    -0.023 NA
ATOM     35  N   UNL     1      -3.928  11.512  18.701  0.00  0.00    -0.108 NA
ATOM     36  C   UNL     1      -2.908  11.392  17.868  0.00  0.00    +0.182 A 
BRANCH  32  37
ATOM     37  C   UNL     1      -2.776  10.771  15.402  0.00  0.00    +0.034 C 
ATOM     38  H   UNL     1      -1.873  10.197  15.624  0.00  0.00    +0.047 HD
ATOM     39  H   UNL     1      -2.496  11.682  14.868  0.00  0.00    +0.047 HD
ATOM     40  H   UNL     1      -3.462  10.167  14.802  0.00  0.00    +0.047 HD
ENDBRANCH  32  37
ENDBRANCH  22  36
ENDBRANCH   1  26
TORSDOF 5
ENDMDL
MODEL 3
REMARK VINA RESULT:    -8.563      0.484      1.138
REMARK INTER + INTRA:         -11.301
REMARK INTER:                 -10.824
REMARK INTRA:                  -0.478
REMARK UNBOUND:                -0.486
REMARK  Name = 
REMARK  5 active torsions:
REMARK  status: ('A' for Active; 'I' for Inactive)
REMARK    1  A    between atoms: C_1  and  N_2
REMARK    2  A    between atoms: C_6  and  C_7
REMARK    3  A    between atoms: C_11  and  N_12
REMARK    4  A    between atoms: C_13  and  C_15
REMARK    5  A    between atoms: C_18  and  C_19
REMARK                            x       y       z     vdW  Elec       q    Type
REMARK                         _______ _______ _______ _____ _____    ______ ____
ROOT
ATOM      1  N   UNL     1       1.382   9.267  18.306  0.00  0.00    -0.279 N 
ATOM      2  C   UNL     1       1.775   8.328  19.251  0.00  0.00    +0.284 C 
ATOM      3  O   UNL     1       1.565   8.434  20.456  0.00  0.00    -0.266 OA
ATOM      4  H   UNL     1       1.645   9.090  17.348  0.00  0.00    +0.155 HD
ENDROOT
BRANCH   2   5
ATOM      5  C   UNL     1       2.487   7.182  18.694  0.00  0.00    +0.193 A 
ATOM      6  C   UNL     1       3.518   7.046  17.764  0.00  0.00    -0.001 A 
ATOM      7  C   UNL     1       3.765   5.663  17.645  0.00  0.00    +0.051 A 
ATOM      8  C   UNL     1       4.653   4.838  16.900  0.00  0.00    +0.072 A 
ATOM      9  C   UNL     1       4.591   3.497  17.055  0.00  0.00    +0.015 A 
ATOM     10  C   UNL     1       3.604   2.867  17.999  0.00  0.00    +0.252 A 
ATOM     11  O   UNL     1       3.570   1.648  18.121  0.00  0.00    -0.268 OA
ATOM     12  N   UNL     1       2.770   3.708  18.695  0.00  0.00    -0.293 N 
ATOM     13  C   UNL     1       2.886   5.046  18.490  0.00  0.00    +0.210 A 
ATOM     14  O   UNL     1       2.105   5.928  19.133  0.00  0.00    -0.434 OA
ATOM     15  H   UNL     1       4.022   7.847  17.240  0.00  0.00    +0.066 HD
ATOM     16  H   UNL     1       5.236   2.807  16.522  0.00  0.00    +0.068 HD
ATOM     17  H   UNL     1       2.087   3.337  19.341  0.00  0.00    +0.172 HD
BRANCH   8  18
ATOM     18  C   UNL     1       5.608   5.528  15.983  0.00  0.00    +0.418 C 
ATOM     19  F   UNL     1       4.987   6.393  15.140  0.00  0.00    -0.166 F 
ATOM     20  F   UNL     1       6.537   6.248  16.663  0.00  0.00    -0.166 F 
ATOM     21  F   UNL     1       6.290   4.648  15.204  0.00  0.00    -0.166 F 
ENDBRANCH   8  18
ENDBRANCH   2   5
BRANCH   1  26
ATOM     22  C   UNL     1      -1.510  11.586  18.350  0.00  0.00    +0.022 A 
ATOM     23  C   UNL     1      -0.945  12.737  18.908  0.00  0.00    -0.051 A 
ATOM     24  C   UNL     1       0.408  12.758  19.251  0.00  0.00    -0.059 A 
ATOM     25  C   UNL     1       1.206  11.628  19.052  0.00  0.00    -0.040 A 
ATOM     26  C   UNL     1       0.660  10.461  18.520  0.00  0.00    +0.034 A 
ATOM     27  C   UNL     1      -0.700  10.451  18.178  0.00  0.00    -0.030 A 
ATOM     28  H   UNL     1      -1.544  13.620  19.110  0.00  0.00    +0.062 HD
ATOM     29  H   UNL     1       0.846  13.653  19.688  0.00  0.00    +0.062 HD
ATOM     30  H   UNL     1       2.250  11.693  19.343  0.00  0.00    +0.064 HD
ATOM     31  H   UNL     1      -1.153   9.549  17.767  0.00  0.00    +0.064 HD
BRANCH  22  36
ATOM     32  N   UNL     1      -4.003  11.884  18.734  0.00  0.00    -0.228 N 
ATOM     33  N   UNL     1      -5.140  11.672  18.050  0.00  0.00    -0.044 NA
ATOM     34  N   UNL     1      -4.754  11.208  16.872  0.00  0.00    -0.023 NA
ATOM     35  N   UNL     1      -3.388  11.121  16.803  0.00  0.00    -0.108 NA
ATOM     36  C   UNL     1      -2.920  11.513  17.976  0.00  0.00    +0.182 A 
BRANCH  32  37
ATOM     37  C   UNL     1      -4.057  12.499  20.030  0.00  0.00    +0.034 C 
ATOM     38  H   UNL     1      -5.096  12.542  20.368  0.00  0.00    +0.047 HD
ATOM     39  H   UNL     1      -3.661  13.516  19.969  0.00  0.00    +0.047 HD
ATOM     40  H   UNL     1      -3.466  11.895  20.722  0.00  0.00    +0.047 HD
ENDBRANCH  32  37
ENDBRANCH  22  36
ENDBRANCH   1  26
TORSDOF 5
ENDMDL
MODEL 4
REMARK VINA RESULT:    -8.471      2.484      2.861
REMARK INTER + INTRA:         -11.185
REMARK INTER:                 -10.881
REMARK INTRA:                  -0.304
REMARK UNBOUND:                -0.486
REMARK  Name = 
REMARK  5 active torsions:
REMARK  status: ('A' for Active; 'I' for Inactive)
REMARK    1  A    between atoms: C_1  and  N_2
REMARK    2  A    between atoms: C_6  and  C_7
REMARK    3  A    between atoms: C_11  and  N_12
REMARK    4  A    between atoms: C_13  and  C_15
REMARK    5  A    between atoms: C_18  and  C_19
REMARK                            x       y       z     vdW  Elec       q    Type
REMARK                         _______ _______ _______ _____ _____    ______ ____
ROOT
ATOM      1  N   UNL     1       1.288   9.192  18.615  0.00  0.00    -0.279 N 
ATOM      2  C   UNL     1       1.581   8.426  19.736  0.00  0.00    +0.284 C 
ATOM      3  O   UNL     1       1.346   8.773  20.889  0.00  0.00    -0.266 OA
ATOM      4  H   UNL     1       1.564   8.819  17.719  0.00  0.00    +0.155 HD
ENDROOT
BRANCH   2   5
ATOM      5  C   UNL     1       2.218   7.148  19.434  0.00  0.00    +0.193 A 
ATOM      6  C   UNL     1       2.243   5.907  20.073  0.00  0.00    -0.001 A 
ATOM      7  C   UNL     1       3.046   5.067  19.276  0.00  0.00    +0.051 A 
ATOM      8  C   UNL     1       3.485   3.714  19.327  0.00  0.00    +0.072 A 
ATOM      9  C   UNL     1       4.281   3.244  18.342  0.00  0.00    +0.015 A 
ATOM     10  C   UNL     1       4.708   4.122  17.199  0.00  0.00    +0.252 A 
ATOM     11  O   UNL     1       5.430   3.669  16.318  0.00  0.00    -0.268 OA
ATOM     12  N   UNL     1       4.256   5.420  17.196  0.00  0.00    -0.293 N 
ATOM     13  C   UNL     1       3.459   5.827  18.218  0.00  0.00    +0.210 A 
ATOM     14  O   UNL     1       2.980   7.080  18.283  0.00  0.00    -0.434 OA
ATOM     15  H   UNL     1       1.746   5.650  20.999  0.00  0.00    +0.066 HD
ATOM     16  H   UNL     1       4.653   2.225  18.315  0.00  0.00    +0.068 HD
ATOM     17  H   UNL     1       4.514   6.053  16.452  0.00  0.00    +0.172 HD
BRANCH   8  18
ATOM     18  C   UNL     1       3.024   2.898  20.488  0.00  0.00    +0.418 C 
ATOM     19  F   UNL     1       1.963   2.107  20.181  0.00  0.00    -0.166 F 
ATOM     20  F   UNL     1       4.001   2.075  20.952  0.00  0.00    -0.166 F 
ATOM     21  F   UNL     1       2.640   3.675  21.534  0.00  0.00    -0.166 F 
ENDBRANCH   8  18
ENDBRANCH   2   5
BRANCH   1  26
ATOM     22  C   UNL     1      -1.451  11.663  18.234  0.00  0.00    +0.022 A 
ATOM     23  C   UNL     1      -0.783  12.868  18.476  0.00  0.00    -0.051 A 
ATOM     24  C   UNL     1       0.586  12.869  18.744  0.00  0.00    -0.059 A 
ATOM     25  C   UNL     1       1.301  11.669  18.785  0.00  0.00    -0.040 A 
ATOM     26  C   UNL     1       0.653  10.453  18.571  0.00  0.00    +0.034 A 
ATOM     27  C   UNL     1      -0.723  10.463  18.302  0.00  0.00    -0.030 A 
ATOM     28  H   UNL     1      -1.314  13.816  18.489  0.00  0.00    +0.062 HD
ATOM     29  H   UNL     1       1.104  13.808  18.936  0.00  0.00    +0.062 HD
ATOM     30  H   UNL     1       2.363  11.724  19.005  0.00  0.00    +0.064 HD
ATOM     31  H   UNL     1      -1.254   9.525  18.138  0.00  0.00    +0.064 HD
BRANCH  22  36
ATOM     32  N   UNL     1      -3.485  11.256  16.769  0.00  0.00    -0.228 N 
ATOM     33  N   UNL     1      -4.821  11.321  16.894  0.00  0.00    -0.044 NA
ATOM     34  N   UNL     1      -5.035  11.676  18.151  0.00  0.00    -0.023 NA
ATOM     35  N   UNL     1      -3.851  11.839  18.822  0.00  0.00    -0.108 NA
ATOM     36  C   UNL     1      -2.882  11.608  17.952  0.00  0.00    +0.182 A 
BRANCH  32  37
ATOM     37  C   UNL     1      -2.907  10.784  15.542  0.00  0.00    +0.034 C 
ATOM     38  H   UNL     1      -1.903  10.398  15.739  0.00  0.00    +0.047 HD
ATOM     39  H   UNL     1      -2.836  11.609  14.830  0.00  0.00    +0.047 HD
ATOM     40  H   UNL     1      -3.540   9.985  15.148  0.00  0.00    +0.047 HD
ENDBRANCH  32  37
ENDBRANCH  22  36
ENDBRANCH   1  26
TORSDOF 5
ENDMDL
MODEL 5
REMARK VINA RESULT:    -8.328      4.497      9.484
REMARK INTER + INTRA:         -11.004
REMARK INTER:                 -10.947
REMARK INTRA:                  -0.057
REMARK UNBOUND:                -0.486
REMARK  Name = 
REMARK  5 active torsions:
REMARK  status: ('A' for Active; 'I' for Inactive)
REMARK    1  A    between atoms: C_1  and  N_2
REMARK    2  A    between atoms: C_6  and  C_7
REMARK    3  A    between atoms: C_11  and  N_12
REMARK    4  A    between atoms: C_13  and  C_15
REMARK    5  A    between atoms: C_18  and  C_19
REMARK                            x       y       z     vdW  Elec       q    Type
REMARK                         _______ _______ _______ _____ _____    ______ ____
ROOT
ATOM      1  N   UNL     1       2.230   6.345  18.995  0.00  0.00    -0.279 N 
ATOM      2  C   UNL     1       2.364   7.635  18.495  0.00  0.00    +0.284 C 
ATOM      3  O   UNL     1       3.000   7.919  17.485  0.00  0.00    -0.266 OA
ATOM      4  H   UNL     1       1.715   6.239  19.857  0.00  0.00    +0.155 HD
ENDROOT
BRANCH   2   5
ATOM      5  C   UNL     1       1.684   8.655  19.287  0.00  0.00    +0.193 A 
ATOM      6  C   UNL     1       1.051   8.648  20.531  0.00  0.00    -0.001 A 
ATOM      7  C   UNL     1       0.584   9.960  20.745  0.00  0.00    +0.051 A 
ATOM      8  C   UNL     1      -0.126  10.644  21.772  0.00  0.00    +0.072 A 
ATOM      9  C   UNL     1      -0.407  11.956  21.616  0.00  0.00    +0.015 A 
ATOM     10  C   UNL     1       0.017  12.702  20.380  0.00  0.00    +0.252 A 
ATOM     11  O   UNL     1      -0.249  13.892  20.265  0.00  0.00    -0.268 OA
ATOM     12  N   UNL     1       0.701  11.996  19.419  0.00  0.00    -0.293 N 
ATOM     13  C   UNL     1       0.949  10.679  19.642  0.00  0.00    +0.210 A 
ATOM     14  O   UNL     1       1.609   9.925  18.748  0.00  0.00    -0.434 OA
ATOM     15  H   UNL     1       0.941   7.799  21.192  0.00  0.00    +0.066 HD
ATOM     16  H   UNL     1      -0.942  12.541  22.356  0.00  0.00    +0.068 HD
ATOM     17  H   UNL     1       1.008  12.448  18.569  0.00  0.00    +0.172 HD
BRANCH   8  18
ATOM     18  C   UNL     1      -0.516   9.845  22.971  0.00  0.00    +0.418 C 
ATOM     19  F   UNL     1       0.537   9.581  23.787  0.00  0.00    -0.166 F 
ATOM     20  F   UNL     1      -1.445  10.484  23.729  0.00  0.00    -0.166 F 
ATOM     21  F   UNL     1      -1.052   8.644  22.628  0.00  0.00    -0.166 F 
ENDBRANCH   8  18
ENDBRANCH   2   5
BRANCH   1  26
ATOM     22  C   UNL     1       4.382   4.140  16.933  0.00  0.00    +0.022 A 
ATOM     23  C   UNL     1       3.910   2.871  17.284  0.00  0.00    -0.051 A 
ATOM     24  C   UNL     1       2.857   2.741  18.190  0.00  0.00    -0.059 A 
ATOM     25  C   UNL     1       2.273   3.874  18.764  0.00  0.00    -0.040 A 
ATOM     26  C   UNL     1       2.742   5.148  18.449  0.00  0.00    +0.034 A 
ATOM     27  C   UNL     1       3.800   5.268  17.536  0.00  0.00    -0.030 A 
ATOM     28  H   UNL     1       4.364   1.969  16.886  0.00  0.00    +0.062 HD
ATOM     29  H   UNL     1       2.492   1.753  18.465  0.00  0.00    +0.062 HD
ATOM     30  H   UNL     1       1.462   3.718  19.470  0.00  0.00    +0.064 HD
ATOM     31  H   UNL     1       4.190   6.252  17.278  0.00  0.00    +0.064 HD
BRANCH  22  36
ATOM     32  N   UNL     1       6.799   4.581  16.288  0.00  0.00    -0.228 N 
ATOM     33  N   UNL     1       7.515   4.692  15.157  0.00  0.00    -0.044 NA
ATOM     34  N   UNL     1       6.651   4.477  14.178  0.00  0.00    -0.023 NA
ATOM     35  N   UNL     1       5.397   4.234  14.675  0.00  0.00    -0.108 NA
ATOM     36  C   UNL     1       5.482   4.329  15.992  0.00  0.00    +0.182 A 
BRANCH  32  37
ATOM     37  C   UNL     1       7.463   4.648  17.560  0.00  0.00    +0.034 C 
ATOM     38  H   UNL     1       7.010   3.925  18.244  0.00  0.00    +0.047 HD
ATOM     39  H   UNL     1       7.350   5.651  17.979  0.00  0.00    +0.047 HD
ATOM     40  H   UNL     1       8.518   4.408  17.411  0.00  0.00    +0.047 HD
ENDBRANCH  32  37
ENDBRANCH  22  36
ENDBRANCH   1  26
TORSDOF 5
ENDMDL
MODEL 6
REMARK VINA RESULT:    -8.318      4.427      9.354
REMARK INTER + INTRA:         -10.992
REMARK INTER:                 -10.409
REMARK INTRA:                  -0.583
REMARK UNBOUND:                -0.486
REMARK  Name = 
REMARK  5 active torsions:
REMARK  status: ('A' for Active; 'I' for Inactive)
REMARK    1  A    between atoms: C_1  and  N_2
REMARK    2  A    between atoms: C_6  and  C_7
REMARK    3  A    between atoms: C_11  and  N_12
REMARK    4  A    between atoms: C_13  and  C_15
REMARK    5  A    between atoms: C_18  and  C_19
REMARK                            x       y       z     vdW  Elec       q    Type
REMARK                         _______ _______ _______ _____ _____    ______ ____
ROOT
ATOM      1  N   UNL     1       4.448   6.799  17.963  0.00  0.00    -0.279 N 
ATOM      2  C   UNL     1       3.129   6.456  18.236  0.00  0.00    +0.284 C 
ATOM      3  O   UNL     1       2.660   5.335  18.064  0.00  0.00    -0.266 OA
ATOM      4  H   UNL     1       4.709   7.763  18.108  0.00  0.00    +0.155 HD
ENDROOT
BRANCH   2   5
ATOM      5  C   UNL     1       2.319   7.558  18.744  0.00  0.00    +0.193 A 
ATOM      6  C   UNL     1       1.724   7.831  19.976  0.00  0.00    -0.001 A 
ATOM      7  C   UNL     1       1.065   9.068  19.833  0.00  0.00    +0.051 A 
ATOM      8  C   UNL     1       0.282   9.918  20.665  0.00  0.00    +0.072 A 
ATOM      9  C   UNL     1      -0.202  11.071  20.156  0.00  0.00    +0.015 A 
ATOM     10  C   UNL     1       0.072  11.470  18.732  0.00  0.00    +0.252 A 
ATOM     11  O   UNL     1      -0.379  12.522  18.295  0.00  0.00    -0.268 OA
ATOM     12  N   UNL     1       0.833  10.615  17.971  0.00  0.00    -0.293 N 
ATOM     13  C   UNL     1       1.287   9.471  18.547  0.00  0.00    +0.210 A 
ATOM     14  O   UNL     1       2.035   8.588  17.866  0.00  0.00    -0.434 OA
ATOM     15  H   UNL     1       1.763   7.209  20.860  0.00  0.00    +0.066 HD
ATOM     16  H   UNL     1      -0.804  11.767  20.730  0.00  0.00    +0.068 HD
ATOM     17  H   UNL     1       1.046  10.834  17.008  0.00  0.00    +0.172 HD
BRANCH   8  18
ATOM     18  C   UNL     1       0.050   9.463  22.067  0.00  0.00    +0.418 C 
ATOM     19  F   UNL     1      -0.716   8.343  22.132  0.00  0.00    -0.166 F 
ATOM     20  F   UNL     1       1.213   9.176  22.709  0.00  0.00    -0.166 F 
ATOM     21  F   UNL     1      -0.582  10.409  22.810  0.00  0.00    -0.166 F 
ENDBRANCH   8  18
ENDBRANCH   2   5
BRANCH   1  26
ATOM     22  C   UNL     1       6.384   4.722  15.579  0.00  0.00    +0.022 A 
ATOM     23  C   UNL     1       7.465   4.315  16.367  0.00  0.00    -0.051 A 
ATOM     24  C   UNL     1       7.545   4.709  17.704  0.00  0.00    -0.059 A 
ATOM     25  C   UNL     1       6.555   5.521  18.263  0.00  0.00    -0.040 A 
ATOM     26  C   UNL     1       5.480   5.960  17.491  0.00  0.00    +0.034 A 
ATOM     27  C   UNL     1       5.409   5.558  16.149  0.00  0.00    -0.030 A 
ATOM     28  H   UNL     1       8.271   3.715  15.955  0.00  0.00    +0.062 HD
ATOM     29  H   UNL     1       8.388   4.394  18.316  0.00  0.00    +0.062 HD
ATOM     30  H   UNL     1       6.668   5.805  19.305  0.00  0.00    +0.064 HD
ATOM     31  H   UNL     1       4.583   5.893  15.522  0.00  0.00    +0.064 HD
BRANCH  22  36
ATOM     32  N   UNL     1       7.058   4.724  13.130  0.00  0.00    -0.228 N 
ATOM     33  N   UNL     1       6.627   4.166  11.987  0.00  0.00    -0.044 NA
ATOM     34  N   UNL     1       5.591   3.420  12.334  0.00  0.00    -0.023 NA
ATOM     35  N   UNL     1       5.359   3.501  13.683  0.00  0.00    -0.108 NA
ATOM     36  C   UNL     1       6.255   4.340  14.176  0.00  0.00    +0.182 A 
BRANCH  32  37
ATOM     37  C   UNL     1       8.255   5.518  13.127  0.00  0.00    +0.034 C 
ATOM     38  H   UNL     1       8.399   5.953  12.135  0.00  0.00    +0.047 HD
ATOM     39  H   UNL     1       9.113   4.886  13.366  0.00  0.00    +0.047 HD
ATOM     40  H   UNL     1       8.141   6.313  13.868  0.00  0.00    +0.047 HD
ENDBRANCH  32  37
ENDBRANCH  22  36
ENDBRANCH   1  26
TORSDOF 5
ENDMDL
MODEL 7
REMARK VINA RESULT:    -8.225      1.913      2.309
REMARK INTER + INTRA:         -10.875
REMARK INTER:                 -10.368
REMARK INTRA:                  -0.507
REMARK UNBOUND:                -0.486
REMARK  Name = 
REMARK  5 active torsions:
REMARK  status: ('A' for Active; 'I' for Inactive)
REMARK    1  A    between atoms: C_1  and  N_2
REMARK    2  A    between atoms: C_6  and  C_7
REMARK    3  A    between atoms: C_11  and  N_12
REMARK    4  A    between atoms: C_13  and  C_15
REMARK    5  A    between atoms: C_18  and  C_19
REMARK                            x       y       z     vdW  Elec       q    Type
REMARK                         _______ _______ _______ _____ _____    ______ ____
ROOT
ATOM      1  N   UNL     1       0.913   8.911  18.997  0.00  0.00    -0.279 N 
ATOM      2  C   UNL     1       2.032   8.383  18.367  0.00  0.00    +0.284 C 
ATOM      3  O   UNL     1       2.746   9.010  17.590  0.00  0.00    -0.266 OA
ATOM      4  H   UNL     1       0.381   8.287  19.585  0.00  0.00    +0.155 HD
ENDROOT
BRANCH   2   5
ATOM      5  C   UNL     1       2.298   6.986  18.695  0.00  0.00    +0.193 A 
ATOM      6  C   UNL     1       2.824   5.909  17.980  0.00  0.00    -0.001 A 
ATOM      7  C   UNL     1       2.823   4.809  18.861  0.00  0.00    +0.051 A 
ATOM      8  C   UNL     1       3.210   3.441  18.797  0.00  0.00    +0.072 A 
ATOM      9  C   UNL     1       3.051   2.661  19.889  0.00  0.00    +0.015 A 
ATOM     10  C   UNL     1       2.475   3.213  21.163  0.00  0.00    +0.252 A 
ATOM     11  O   UNL     1       2.343   2.484  22.139  0.00  0.00    -0.268 OA
ATOM     12  N   UNL     1       2.118   4.541  21.173  0.00  0.00    -0.293 N 
ATOM     13  C   UNL     1       2.305   5.266  20.039  0.00  0.00    +0.210 A 
ATOM     14  O   UNL     1       1.980   6.567  19.974  0.00  0.00    -0.434 OA
ATOM     15  H   UNL     1       3.159   5.923  16.951  0.00  0.00    +0.066 HD
ATOM     16  H   UNL     1       3.324   1.612  19.913  0.00  0.00    +0.068 HD
ATOM     17  H   UNL     1       1.726   4.962  22.003  0.00  0.00    +0.172 HD
BRANCH   8  18
ATOM     18  C   UNL     1       3.775   2.958  17.502  0.00  0.00    +0.418 C 
ATOM     19  F   UNL     1       3.989   1.617  17.494  0.00  0.00    -0.166 F 
ATOM     20  F   UNL     1       2.951   3.227  16.456  0.00  0.00    -0.166 F 
ATOM     21  F   UNL     1       4.968   3.544  17.220  0.00  0.00    -0.166 F 
ENDBRANCH   8  18
ENDBRANCH   2   5
BRANCH   1  26
ATOM     22  C   UNL     1      -1.543  11.636  18.454  0.00  0.00    +0.022 A 
ATOM     23  C   UNL     1      -0.771  12.772  18.718  0.00  0.00    -0.051 A 
ATOM     24  C   UNL     1       0.577  12.641  19.054  0.00  0.00    -0.059 A 
ATOM     25  C   UNL     1       1.165  11.376  19.143  0.00  0.00    -0.040 A 
ATOM     26  C   UNL     1       0.411  10.228  18.909  0.00  0.00    +0.034 A 
ATOM     27  C   UNL     1      -0.943  10.370  18.570  0.00  0.00    -0.030 A 
ATOM     28  H   UNL     1      -1.204  13.767  18.694  0.00  0.00    +0.062 HD
ATOM     29  H   UNL     1       1.176  13.526  19.263  0.00  0.00    +0.062 HD
ATOM     30  H   UNL     1       2.215  11.329  19.416  0.00  0.00    +0.064 HD
ATOM     31  H   UNL     1      -1.556   9.488  18.389  0.00  0.00    +0.064 HD
BRANCH  22  36
ATOM     32  N   UNL     1      -3.529  11.436  16.884  0.00  0.00    -0.228 N 
ATOM     33  N   UNL     1      -4.857  11.626  16.943  0.00  0.00    -0.044 NA
ATOM     34  N   UNL     1      -5.101  11.988  18.193  0.00  0.00    -0.023 NA
ATOM     35  N   UNL     1      -3.942  12.032  18.924  0.00  0.00    -0.108 NA
ATOM     36  C   UNL     1      -2.956  11.718  18.100  0.00  0.00    +0.182 A 
BRANCH  32  37
ATOM     37  C   UNL     1      -2.936  10.924  15.681  0.00  0.00    +0.034 C 
ATOM     38  H   UNL     1      -3.106   9.845  15.624  0.00  0.00    +0.047 HD
ATOM     39  H   UNL     1      -1.860  11.114  15.693  0.00  0.00    +0.047 HD
ATOM     40  H   UNL     1      -3.406  11.419  14.827  0.00  0.00    +0.047 HD
ENDBRANCH  32  37
ENDBRANCH  22  36
ENDBRANCH   1  26
TORSDOF 5
ENDMDL
MODEL 8
REMARK VINA RESULT:    -8.202      2.440      3.022
REMARK INTER + INTRA:         -10.845
REMARK INTER:                 -10.300
REMARK INTRA:                  -0.545
REMARK UNBOUND:                -0.486
REMARK  Name = 
REMARK  5 active torsions:
REMARK  status: ('A' for Active; 'I' for Inactive)
REMARK    1  A    between atoms: C_1  and  N_2
REMARK    2  A    between atoms: C_6  and  C_7
REMARK    3  A    between atoms: C_11  and  N_12
REMARK    4  A    between atoms: C_13  and  C_15
REMARK    5  A    between atoms: C_18  and  C_19
REMARK                            x       y       z     vdW  Elec       q    Type
REMARK                         _______ _______ _______ _____ _____    ______ ____
ROOT
ATOM      1  N   UNL     1       1.975   9.306  18.117  0.00  0.00    -0.279 N 
ATOM      2  C   UNL     1       2.005   8.264  19.034  0.00  0.00    +0.284 C 
ATOM      3  O   UNL     1       1.567   8.339  20.178  0.00  0.00    -0.266 OA
ATOM      4  H   UNL     1       2.402   9.138  17.217  0.00  0.00    +0.155 HD
ENDROOT
BRANCH   2   5
ATOM      5  C   UNL     1       2.624   7.042  18.528  0.00  0.00    +0.193 A 
ATOM      6  C   UNL     1       2.371   5.683  18.718  0.00  0.00    -0.001 A 
ATOM      7  C   UNL     1       3.329   4.991  17.950  0.00  0.00    +0.051 A 
ATOM      8  C   UNL     1       3.645   3.628  17.685  0.00  0.00    +0.072 A 
ATOM      9  C   UNL     1       4.679   3.341  16.864  0.00  0.00    +0.015 A 
ATOM     10  C   UNL     1       5.495   4.432  16.228  0.00  0.00    +0.252 A 
ATOM     11  O   UNL     1       6.427   4.143  15.486  0.00  0.00    -0.268 OA
ATOM     12  N   UNL     1       5.148   5.731  16.515  0.00  0.00    -0.293 N 
ATOM     13  C   UNL     1       4.098   5.947  17.349  0.00  0.00    +0.210 A 
ATOM     14  O   UNL     1       3.702   7.188  17.676  0.00  0.00    -0.434 OA
ATOM     15  H   UNL     1       1.595   5.253  19.336  0.00  0.00    +0.066 HD
ATOM     16  H   UNL     1       4.977   2.328  16.617  0.00  0.00    +0.068 HD
ATOM     17  H   UNL     1       5.665   6.502  16.115  0.00  0.00    +0.172 HD
BRANCH   8  18
ATOM     18  C   UNL     1       2.795   2.597  18.348  0.00  0.00    +0.418 C 
ATOM     19  F   UNL     1       2.805   2.704  19.702  0.00  0.00    -0.166 F 
ATOM     20  F   UNL     1       1.495   2.683  17.961  0.00  0.00    -0.166 F 
ATOM     21  F   UNL     1       3.206   1.335  18.055  0.00  0.00    -0.166 F 
ENDBRANCH   8  18
ENDBRANCH   2   5
BRANCH   1  26
ATOM     22  C   UNL     1      -0.614  11.910  18.634  0.00  0.00    +0.022 A 
ATOM     23  C   UNL     1       0.159  13.075  18.679  0.00  0.00    -0.051 A 
ATOM     24  C   UNL     1       1.542  13.006  18.513  0.00  0.00    -0.059 A 
ATOM     25  C   UNL     1       2.171  11.773  18.314  0.00  0.00    -0.040 A 
ATOM     26  C   UNL     1       1.426  10.596  18.290  0.00  0.00    +0.034 A 
ATOM     27  C   UNL     1       0.035  10.676  18.456  0.00  0.00    -0.030 A 
ATOM     28  H   UNL     1      -0.292  14.045  18.869  0.00  0.00    +0.062 HD
ATOM     29  H   UNL     1       2.143  13.913  18.552  0.00  0.00    +0.062 HD
ATOM     30  H   UNL     1       3.250  11.773  18.198  0.00  0.00    +0.064 HD
ATOM     31  H   UNL     1      -0.569   9.770  18.448  0.00  0.00    +0.064 HD
BRANCH  22  36
ATOM     32  N   UNL     1      -2.767  12.305  19.921  0.00  0.00    -0.228 N 
ATOM     33  N   UNL     1      -4.087  12.191  19.697  0.00  0.00    -0.044 NA
ATOM     34  N   UNL     1      -4.191  11.782  18.443  0.00  0.00    -0.023 NA
ATOM     35  N   UNL     1      -2.954  11.633  17.872  0.00  0.00    -0.108 NA
ATOM     36  C   UNL     1      -2.063  11.929  18.804  0.00  0.00    +0.182 A 
BRANCH  32  37
ATOM     37  C   UNL     1      -2.301  12.842  21.169  0.00  0.00    +0.034 C 
ATOM     38  H   UNL     1      -2.433  12.096  21.956  0.00  0.00    +0.047 HD
ATOM     39  H   UNL     1      -2.880  13.733  21.423  0.00  0.00    +0.047 HD
ATOM     40  H   UNL     1      -1.241  13.087  21.064  0.00  0.00    +0.047 HD
ENDBRANCH  32  37
ENDBRANCH  22  36
ENDBRANCH   1  26
TORSDOF 5
ENDMDL
MODEL 9
REMARK VINA RESULT:    -8.199      2.455      2.741
REMARK INTER + INTRA:         -10.841
REMARK INTER:                 -10.596
REMARK INTRA:                  -0.246
REMARK UNBOUND:                -0.486
REMARK  Name = 
REMARK  5 active torsions:
REMARK  status: ('A' for Active; 'I' for Inactive)
REMARK    1  A    between atoms: C_1  and  N_2
REMARK    2  A    between atoms: C_6  and  C_7
REMARK    3  A    between atoms: C_11  and  N_12
REMARK    4  A    between atoms: C_13  and  C_15
REMARK    5  A    between atoms: C_18  and  C_19
REMARK                            x       y       z     vdW  Elec       q    Type
REMARK                         _______ _______ _______ _____ _____    ______ ____
ROOT
ATOM      1  N   UNL     1       0.961   8.957  19.120  0.00  0.00    -0.279 N 
ATOM      2  C   UNL     1       2.031   8.985  18.233  0.00  0.00    +0.284 C 
ATOM      3  O   UNL     1       2.422   9.996  17.658  0.00  0.00    -0.266 OA
ATOM      4  H   UNL     1       0.707   8.058  19.502  0.00  0.00    +0.155 HD
ENDROOT
BRANCH   2   5
ATOM      5  C   UNL     1       2.664   7.688  18.021  0.00  0.00    +0.193 A 
ATOM      6  C   UNL     1       2.286   6.373  18.296  0.00  0.00    -0.001 A 
ATOM      7  C   UNL     1       3.344   5.555  17.850  0.00  0.00    +0.051 A 
ATOM      8  C   UNL     1       3.620   4.158  17.817  0.00  0.00    +0.072 A 
ATOM      9  C   UNL     1       4.789   3.732  17.292  0.00  0.00    +0.015 A 
ATOM     10  C   UNL     1       5.798   4.704  16.744  0.00  0.00    +0.252 A 
ATOM     11  O   UNL     1       6.850   4.290  16.273  0.00  0.00    -0.268 OA
ATOM     12  N   UNL     1       5.482   6.041  16.799  0.00  0.00    -0.293 N 
ATOM     13  C   UNL     1       4.289   6.399  17.341  0.00  0.00    +0.210 A 
ATOM     14  O   UNL     1       3.913   7.685  17.429  0.00  0.00    -0.434 OA
ATOM     15  H   UNL     1       1.364   6.053  18.763  0.00  0.00    +0.066 HD
ATOM     16  H   UNL     1       5.067   2.685  17.234  0.00  0.00    +0.068 HD
ATOM     17  H   UNL     1       6.125   6.736  16.446  0.00  0.00    +0.172 HD
BRANCH   8  18
ATOM     18  C   UNL     1       2.576   3.250  18.377  0.00  0.00    +0.418 C 
ATOM     19  F   UNL     1       2.466   3.351  19.726  0.00  0.00    -0.166 F 
ATOM     20  F   UNL     1       1.344   3.513  17.866  0.00  0.00    -0.166 F 
ATOM     21  F   UNL     1       2.840   1.945  18.104  0.00  0.00    -0.166 F 
ENDBRANCH   8  18
ENDBRANCH   2   5
BRANCH   1  26
ATOM     22  C   UNL     1      -1.888  11.329  19.192  0.00  0.00    +0.022 A 
ATOM     23  C   UNL     1      -1.560  12.135  20.287  0.00  0.00    -0.051 A 
ATOM     24  C   UNL     1      -0.378  11.911  20.993  0.00  0.00    -0.059 A 
ATOM     25  C   UNL     1       0.483  10.873  20.623  0.00  0.00    -0.040 A 
ATOM     26  C   UNL     1       0.166  10.041  19.551  0.00  0.00    +0.034 A 
ATOM     27  C   UNL     1      -1.024  10.276  18.846  0.00  0.00    -0.030 A 
ATOM     28  H   UNL     1      -2.223  12.926  20.625  0.00  0.00    +0.062 HD
ATOM     29  H   UNL     1      -0.126  12.536  21.848  0.00  0.00    +0.062 HD
ATOM     30  H   UNL     1       1.385  10.736  21.211  0.00  0.00    +0.064 HD
ATOM     31  H   UNL     1      -1.298   9.635  18.008  0.00  0.00    +0.064 HD
BRANCH  22  36
ATOM     32  N   UNL     1      -3.313  11.241  17.092  0.00  0.00    -0.228 N 
ATOM     33  N   UNL     1      -4.572  11.549  16.739  0.00  0.00    -0.044 NA
ATOM     34  N   UNL     1      -5.147  11.982  17.850  0.00  0.00    -0.023 NA
ATOM     35  N   UNL     1      -4.267  11.954  18.900  0.00  0.00    -0.108 NA
ATOM     36  C   UNL     1      -3.112  11.521  18.421  0.00  0.00    +0.182 A 
BRANCH  32  37
ATOM     37  C   UNL     1      -2.435  10.628  16.134  0.00  0.00    +0.034 C 
ATOM     38  H   UNL     1      -2.541  11.134  15.171  0.00  0.00    +0.047 HD
ATOM     39  H   UNL     1      -2.702   9.575  16.014  0.00  0.00    +0.047 HD
ATOM     40  H   UNL     1      -1.409  10.729  16.495  0.00  0.00    +0.047 HD
ENDBRANCH  32  37
ENDBRANCH  22  36
ENDBRANCH   1  26
TORSDOF 5
ENDMDL
MODEL 10
REMARK VINA RESULT:    -8.123      3.216      3.858
REMARK INTER + INTRA:         -10.745
REMARK INTER:                 -10.705
REMARK INTRA:                  -0.040
REMARK UNBOUND:                -0.486
REMARK  Name = 
REMARK  5 active torsions:
REMARK  status: ('A' for Active; 'I' for Inactive)
REMARK    1  A    between atoms: C_1  and  N_2
REMARK    2  A    between atoms: C_6  and  C_7
REMARK    3  A    between atoms: C_11  and  N_12
REMARK    4  A    between atoms: C_13  and  C_15
REMARK    5  A    between atoms: C_18  and  C_19
REMARK                            x       y       z     vdW  Elec       q    Type
REMARK                         _______ _______ _______ _____ _____    ______ ____
ROOT
ATOM      1  N   UNL     1       1.631   8.209  19.987  0.00  0.00    -0.279 N 
ATOM      2  C   UNL     1       1.972   8.292  18.642  0.00  0.00    +0.284 C 
ATOM      3  O   UNL     1       1.663   9.227  17.909  0.00  0.00    -0.266 OA
ATOM      4  H   UNL     1       1.908   7.373  20.479  0.00  0.00    +0.155 HD
ENDROOT
BRANCH   2   5
ATOM      5  C   UNL     1       2.734   7.149  18.149  0.00  0.00    +0.193 A 
ATOM      6  C   UNL     1       2.591   5.767  18.274  0.00  0.00    -0.001 A 
ATOM      7  C   UNL     1       3.663   5.191  17.563  0.00  0.00    +0.051 A 
ATOM      8  C   UNL     1       4.119   3.872  17.281  0.00  0.00    +0.072 A 
ATOM      9  C   UNL     1       5.234   3.708  16.536  0.00  0.00    +0.015 A 
ATOM     10  C   UNL     1       5.995   4.890  16.001  0.00  0.00    +0.252 A 
ATOM     11  O   UNL     1       7.002   4.712  15.327  0.00  0.00    -0.268 OA
ATOM     12  N   UNL     1       5.512   6.141  16.301  0.00  0.00    -0.293 N 
ATOM     13  C   UNL     1       4.386   6.233  17.056  0.00  0.00    +0.210 A 
ATOM     14  O   UNL     1       3.857   7.421  17.390  0.00  0.00    -0.434 OA
ATOM     15  H   UNL     1       1.811   5.247  18.815  0.00  0.00    +0.066 HD
ATOM     16  H   UNL     1       5.639   2.735  16.281  0.00  0.00    +0.068 HD
ATOM     17  H   UNL     1       5.986   6.969  15.968  0.00  0.00    +0.172 HD
BRANCH   8  18
ATOM     18  C   UNL     1       3.317   2.746  17.842  0.00  0.00    +0.418 C 
ATOM     19  F   UNL     1       3.185   2.820  19.191  0.00  0.00    -0.166 F 
ATOM     20  F   UNL     1       2.058   2.712  17.330  0.00  0.00    -0.166 F 
ATOM     21  F   UNL     1       3.879   1.539  17.572  0.00  0.00    -0.166 F 
ENDBRANCH   8  18
ENDBRANCH   2   5
BRANCH   1  26
ATOM     22  C   UNL     1       0.165  11.479  20.939  0.00  0.00    +0.022 A 
ATOM     23  C   UNL     1      -0.466  11.168  22.147  0.00  0.00    -0.051 A 
ATOM     24  C   UNL     1      -0.387   9.875  22.666  0.00  0.00    -0.059 A 
ATOM     25  C   UNL     1       0.310   8.877  21.979  0.00  0.00    -0.040 A 
ATOM     26  C   UNL     1       0.926   9.157  20.760  0.00  0.00    +0.034 A 
ATOM     27  C   UNL     1       0.842  10.460  20.248  0.00  0.00    -0.030 A 
ATOM     28  H   UNL     1      -1.047  11.909  22.689  0.00  0.00    +0.062 HD
ATOM     29  H   UNL     1      -0.882   9.633  23.605  0.00  0.00    +0.062 HD
ATOM     30  H   UNL     1       0.333   7.886  22.422  0.00  0.00    +0.064 HD
ATOM     31  H   UNL     1       1.310  10.702  19.294  0.00  0.00    +0.064 HD
BRANCH  22  36
ATOM     32  N   UNL     1      -0.480  13.183  19.169  0.00  0.00    -0.228 N 
ATOM     33  N   UNL     1      -0.325  14.502  18.966  0.00  0.00    -0.044 NA
ATOM     34  N   UNL     1       0.325  14.943  20.031  0.00  0.00    -0.023 NA
ATOM     35  N   UNL     1       0.586  13.920  20.904  0.00  0.00    -0.108 NA
ATOM     36  C   UNL     1       0.112  12.815  20.353  0.00  0.00    +0.182 A 
BRANCH  32  37
ATOM     37  C   UNL     1      -1.253  12.406  18.242  0.00  0.00    +0.034 C 
ATOM     38  H   UNL     1      -0.775  11.433  18.098  0.00  0.00    +0.047 HD
ATOM     39  H   UNL     1      -1.301  12.924  17.281  0.00  0.00    +0.047 HD
ATOM     40  H   UNL     1      -2.254  12.269  18.659  0.00  0.00    +0.047 HD
ENDBRANCH  32  37
ENDBRANCH  22  36
ENDBRANCH   1  26
TORSDOF 5
ENDMDL
MODEL 11
REMARK VINA RESULT:    -8.092      3.313      4.301
REMARK INTER + INTRA:         -10.706
REMARK INTER:                 -10.081
REMARK INTRA:                  -0.625
REMARK UNBOUND:                -0.486
REMARK  Name = 
REMARK  5 active torsions:
REMARK  status: ('A' for Active; 'I' for Inactive)
REMARK    1  A    between atoms: C_1  and  N_2
REMARK    2  A    between atoms: C_6  and  C_7
REMARK    3  A    between atoms: C_11  and  N_12
REMARK    4  A    between atoms: C_13  and  C_15
REMARK    5  A    between atoms: C_18  and  C_19
REMARK                            x       y       z     vdW  Elec       q    Type
REMARK                         _______ _______ _______ _____ _____    ______ ____
ROOT
ATOM      1  N   UNL     1       1.417   8.967  18.223  0.00  0.00    -0.279 N 
ATOM      2  C   UNL     1       1.914   8.054  19.144  0.00  0.00    +0.284 C 
ATOM      3  O   UNL     1       1.764   8.149  20.359  0.00  0.00    -0.266 OA
ATOM      4  H   UNL     1       1.637   8.805  17.252  0.00  0.00    +0.155 HD
ENDROOT
BRANCH   2   5
ATOM      5  C   UNL     1       2.657   6.949  18.547  0.00  0.00    +0.193 A 
ATOM      6  C   UNL     1       2.530   5.560  18.599  0.00  0.00    -0.001 A 
ATOM      7  C   UNL     1       3.567   5.037  17.801  0.00  0.00    +0.051 A 
ATOM      8  C   UNL     1       4.018   3.741  17.420  0.00  0.00    +0.072 A 
ATOM      9  C   UNL     1       5.093   3.631  16.609  0.00  0.00    +0.015 A 
ATOM     10  C   UNL     1       5.817   4.849  16.106  0.00  0.00    +0.252 A 
ATOM     11  O   UNL     1       6.789   4.720  15.370  0.00  0.00    -0.268 OA
ATOM     12  N   UNL     1       5.341   6.076  16.502  0.00  0.00    -0.293 N 
ATOM     13  C   UNL     1       4.256   6.114  17.319  0.00  0.00    +0.210 A 
ATOM     14  O   UNL     1       3.737   7.275  17.747  0.00  0.00    -0.434 OA
ATOM     15  H   UNL     1       1.784   5.003  19.148  0.00  0.00    +0.066 HD
ATOM     16  H   UNL     1       5.491   2.678  16.278  0.00  0.00    +0.068 HD
ATOM     17  H   UNL     1       5.792   6.927  16.193  0.00  0.00    +0.172 HD
BRANCH   8  18
ATOM     18  C   UNL     1       3.253   2.576  17.955  0.00  0.00    +0.418 C 
ATOM     19  F   UNL     1       1.974   2.540  17.501  0.00  0.00    -0.166 F 
ATOM     20  F   UNL     1       3.822   1.392  17.609  0.00  0.00    -0.166 F 
ATOM     21  F   UNL     1       3.184   2.594  19.312  0.00  0.00    -0.166 F 
ENDBRANCH   8  18
ENDBRANCH   2   5
BRANCH   1  26
ATOM     22  C   UNL     1       0.608  12.387  19.407  0.00  0.00    +0.022 A 
ATOM     23  C   UNL     1      -0.736  12.505  19.039  0.00  0.00    -0.051 A 
ATOM     24  C   UNL     1      -1.389  11.441  18.418  0.00  0.00    -0.059 A 
ATOM     25  C   UNL     1      -0.706  10.252  18.145  0.00  0.00    -0.040 A 
ATOM     26  C   UNL     1       0.641  10.119  18.479  0.00  0.00    +0.034 A 
ATOM     27  C   UNL     1       1.288  11.195  19.105  0.00  0.00    -0.030 A 
ATOM     28  H   UNL     1      -1.288  13.427  19.202  0.00  0.00    +0.062 HD
ATOM     29  H   UNL     1      -2.435  11.536  18.129  0.00  0.00    +0.062 HD
ATOM     30  H   UNL     1      -1.258   9.458  17.652  0.00  0.00    +0.064 HD
ATOM     31  H   UNL     1       2.342  11.118  19.371  0.00  0.00    +0.064 HD
BRANCH  22  36
ATOM     32  N   UNL     1       2.285  14.292  19.498  0.00  0.00    -0.228 N 
ATOM     33  N   UNL     1       2.730  15.173  20.409  0.00  0.00    -0.044 NA
ATOM     34  N   UNL     1       2.035  14.918  21.506  0.00  0.00    -0.023 NA
ATOM     35  N   UNL     1       1.159  13.884  21.302  0.00  0.00    -0.108 NA
ATOM     36  C   UNL     1       1.337  13.471  20.058  0.00  0.00    +0.182 A 
BRANCH  32  37
ATOM     37  C   UNL     1       2.758  14.368  18.144  0.00  0.00    +0.034 C 
ATOM     38  H   UNL     1       2.281  15.212  17.641  0.00  0.00    +0.047 HD
ATOM     39  H   UNL     1       2.501  13.447  17.615  0.00  0.00    +0.047 HD
ATOM     40  H   UNL     1       3.841  14.512  18.166  0.00  0.00    +0.047 HD
ENDBRANCH  32  37
ENDBRANCH  22  36
ENDBRANCH   1  26
TORSDOF 5
ENDMDL
MODEL 12
REMARK VINA RESULT:    -8.016      3.273      4.029
REMARK INTER + INTRA:         -10.610
REMARK INTER:                  -9.894
REMARK INTRA:                  -0.716
REMARK UNBOUND:                -0.486
REMARK  Name = 
REMARK  5 active torsions:
REMARK  status: ('A' for Active; 'I' for Inactive)
REMARK    1  A    between atoms: C_1  and  N_2
REMARK    2  A    between atoms: C_6  and  C_7
REMARK    3  A    between atoms: C_11  and  N_12
REMARK    4  A    between atoms: C_13  and  C_15
REMARK    5  A    between atoms: C_18  and  C_19
REMARK                            x       y       z     vdW  Elec       q    Type
REMARK                         _______ _______ _______ _____ _____    ______ ____
ROOT
ATOM      1  N   UNL     1       0.914   9.739  19.980  0.00  0.00    -0.279 N 
ATOM      2  C   UNL     1       1.243   8.779  20.928  0.00  0.00    +0.284 C 
ATOM      3  O   UNL     1       1.198   8.963  22.141  0.00  0.00    -0.266 OA
ATOM      4  H   UNL     1       1.028   9.484  19.011  0.00  0.00    +0.155 HD
ENDROOT
BRANCH   2   5
ATOM      5  C   UNL     1       1.670   7.503  20.362  0.00  0.00    +0.193 A 
ATOM      6  C   UNL     1       1.494   6.172  20.740  0.00  0.00    -0.001 A 
ATOM      7  C   UNL     1       2.158   5.393  19.771  0.00  0.00    +0.051 A 
ATOM      8  C   UNL     1       2.375   4.005  19.540  0.00  0.00    +0.072 A 
ATOM      9  C   UNL     1       3.093   3.623  18.461  0.00  0.00    +0.015 A 
ATOM     10  C   UNL     1       3.661   4.635  17.505  0.00  0.00    +0.252 A 
ATOM     11  O   UNL     1       4.307   4.260  16.533  0.00  0.00    -0.268 OA
ATOM     12  N   UNL     1       3.421   5.962  17.772  0.00  0.00    -0.293 N 
ATOM     13  C   UNL     1       2.693   6.275  18.875  0.00  0.00    +0.210 A 
ATOM     14  O   UNL     1       2.419   7.549  19.201  0.00  0.00    -0.434 OA
ATOM     15  H   UNL     1       0.956   5.816  21.609  0.00  0.00    +0.066 HD
ATOM     16  H   UNL     1       3.298   2.585  18.222  0.00  0.00    +0.068 HD
ATOM     17  H   UNL     1       3.781   6.683  17.163  0.00  0.00    +0.172 HD
BRANCH   8  18
ATOM     18  C   UNL     1       1.783   3.055  20.527  0.00  0.00    +0.418 C 
ATOM     19  F   UNL     1       0.452   3.256  20.710  0.00  0.00    -0.166 F 
ATOM     20  F   UNL     1       1.932   1.761  20.142  0.00  0.00    -0.166 F 
ATOM     21  F   UNL     1       2.364   3.167  21.750  0.00  0.00    -0.166 F 
ENDBRANCH   8  18
ENDBRANCH   2   5
BRANCH   1  26
ATOM     22  C   UNL     1      -1.496  12.463  20.701  0.00  0.00    +0.022 A 
ATOM     23  C   UNL     1      -0.663  13.586  20.709  0.00  0.00    -0.051 A 
ATOM     24  C   UNL     1       0.701  13.449  20.450  0.00  0.00    -0.059 A 
ATOM     25  C   UNL     1       1.250  12.190  20.194  0.00  0.00    -0.040 A 
ATOM     26  C   UNL     1       0.445  11.052  20.206  0.00  0.00    +0.034 A 
ATOM     27  C   UNL     1      -0.926  11.201  20.465  0.00  0.00    -0.030 A 
ATOM     28  H   UNL     1      -1.050  14.575  20.940  0.00  0.00    +0.062 HD
ATOM     29  H   UNL     1       1.349  14.324  20.460  0.00  0.00    +0.062 HD
ATOM     30  H   UNL     1       2.318  12.136  20.007  0.00  0.00    +0.064 HD
ATOM     31  H   UNL     1      -1.576  10.326  20.486  0.00  0.00    +0.064 HD
BRANCH  22  36
ATOM     32  N   UNL     1      -3.550  12.569  22.192  0.00  0.00    -0.228 N 
ATOM     33  N   UNL     1      -4.880  12.664  22.035  0.00  0.00    -0.044 NA
ATOM     34  N   UNL     1      -5.071  12.740  20.727  0.00  0.00    -0.023 NA
ATOM     35  N   UNL     1      -3.877  12.691  20.055  0.00  0.00    -0.108 NA
ATOM     36  C   UNL     1      -2.929  12.553  20.967  0.00  0.00    +0.182 A 
BRANCH  32  37
ATOM     37  C   UNL     1      -2.987  12.581  23.513  0.00  0.00    +0.034 C 
ATOM     38  H   UNL     1      -3.786  12.718  24.246  0.00  0.00    +0.047 HD
ATOM     39  H   UNL     1      -2.279  13.409  23.601  0.00  0.00    +0.047 HD
ATOM     40  H   UNL     1      -2.487  11.625  23.683  0.00  0.00    +0.047 HD
ENDBRANCH  32  37
ENDBRANCH  22  36
ENDBRANCH   1  26
TORSDOF 5
ENDMDL
MODEL 13
REMARK VINA RESULT:    -7.993      2.674      3.334
REMARK INTER + INTRA:         -10.581
REMARK INTER:                 -10.443
REMARK INTRA:                  -0.138
REMARK UNBOUND:                -0.486
REMARK  Name = 
REMARK  5 active torsions:
REMARK  status: ('A' for Active; 'I' for Inactive)
REMARK    1  A    between atoms: C_1  and  N_2
REMARK    2  A    between atoms: C_6  and  C_7
REMARK    3  A    between atoms: C_11  and  N_12
REMARK    4  A    between atoms: C_13  and  C_15
REMARK    5  A    between atoms: C_18  and  C_19
REMARK                            x       y       z     vdW  Elec       q    Type
REMARK                         _______ _______ _______ _____ _____    ______ ____
ROOT
ATOM      1  N   UNL     1       1.371   8.441  20.399  0.00  0.00    -0.279 N 
ATOM      2  C   UNL     1       1.633   8.487  19.036  0.00  0.00    +0.284 C 
ATOM      3  O   UNL     1       1.249   9.384  18.290  0.00  0.00    -0.266 OA
ATOM      4  H   UNL     1       1.706   7.632  20.903  0.00  0.00    +0.155 HD
ENDROOT
BRANCH   2   5
ATOM      5  C   UNL     1       2.408   7.355  18.538  0.00  0.00    +0.193 A 
ATOM      6  C   UNL     1       3.482   7.234  17.656  0.00  0.00    -0.001 A 
ATOM      7  C   UNL     1       3.783   5.859  17.584  0.00  0.00    +0.051 A 
ATOM      8  C   UNL     1       4.732   5.049  16.898  0.00  0.00    +0.072 A 
ATOM      9  C   UNL     1       4.712   3.711  17.086  0.00  0.00    +0.015 A 
ATOM     10  C   UNL     1       3.710   3.069  18.005  0.00  0.00    +0.252 A 
ATOM     11  O   UNL     1       3.715   1.853  18.158  0.00  0.00    -0.268 OA
ATOM     12  N   UNL     1       2.817   3.895  18.644  0.00  0.00    -0.293 N 
ATOM     13  C   UNL     1       2.893   5.231  18.408  0.00  0.00    +0.210 A 
ATOM     14  O   UNL     1       2.054   6.099  18.995  0.00  0.00    -0.434 OA
ATOM     15  H   UNL     1       3.978   8.040  17.131  0.00  0.00    +0.066 HD
ATOM     16  H   UNL     1       5.404   3.033  16.598  0.00  0.00    +0.068 HD
ATOM     17  H   UNL     1       2.122   3.515  19.271  0.00  0.00    +0.172 HD
BRANCH   8  18
ATOM     18  C   UNL     1       5.698   5.751  16.003  0.00  0.00    +0.418 C 
ATOM     19  F   UNL     1       6.515   6.598  16.680  0.00  0.00    -0.166 F 
ATOM     20  F   UNL     1       6.503   4.881  15.339  0.00  0.00    -0.166 F 
ATOM     21  F   UNL     1       5.066   6.495  15.057  0.00  0.00    -0.166 F 
ENDBRANCH   8  18
ENDBRANCH   2   5
BRANCH   1  26
ATOM     22  C   UNL     1       0.123  11.757  21.492  0.00  0.00    +0.022 A 
ATOM     23  C   UNL     1      -0.667  11.415  22.594  0.00  0.00    -0.051 A 
ATOM     24  C   UNL     1      -0.771  10.083  22.996  0.00  0.00    -0.059 A 
ATOM     25  C   UNL     1      -0.098   9.077  22.296  0.00  0.00    -0.040 A 
ATOM     26  C   UNL     1       0.676   9.390  21.180  0.00  0.00    +0.034 A 
ATOM     27  C   UNL     1       0.775  10.732  20.785  0.00  0.00    -0.030 A 
ATOM     28  H   UNL     1      -1.233  12.166  23.138  0.00  0.00    +0.062 HD
ATOM     29  H   UNL     1      -1.390   9.818  23.852  0.00  0.00    +0.062 HD
ATOM     30  H   UNL     1      -0.219   8.056  22.645  0.00  0.00    +0.064 HD
ATOM     31  H   UNL     1       1.368  11.002  19.911  0.00  0.00    +0.064 HD
BRANCH  22  36
ATOM     32  N   UNL     1      -0.080  13.640  19.800  0.00  0.00    -0.228 N 
ATOM     33  N   UNL     1       0.195  14.954  19.748  0.00  0.00    -0.044 NA
ATOM     34  N   UNL     1       0.669  15.257  20.946  0.00  0.00    -0.023 NA
ATOM     35  N   UNL     1       0.701  14.151  21.754  0.00  0.00    -0.108 NA
ATOM     36  C   UNL     1       0.263  13.135  21.030  0.00  0.00    +0.182 A 
BRANCH  32  37
ATOM     37  C   UNL     1      -0.722  13.002  18.685  0.00  0.00    +0.034 C 
ATOM     38  H   UNL     1      -1.190  12.073  19.020  0.00  0.00    +0.047 HD
ATOM     39  H   UNL     1       0.022  12.769  17.919  0.00  0.00    +0.047 HD
ATOM     40  H   UNL     1      -1.483  13.681  18.292  0.00  0.00    +0.047 HD
ENDBRANCH  32  37
ENDBRANCH  22  36
ENDBRANCH   1  26
TORSDOF 5
ENDMDL
MODEL 14
REMARK VINA RESULT:    -7.991      4.344      9.263
REMARK INTER + INTRA:         -10.579
REMARK INTER:                 -10.508
REMARK INTRA:                  -0.071
REMARK UNBOUND:                -0.486
REMARK  Name = 
REMARK  5 active torsions:
REMARK  status: ('A' for Active; 'I' for Inactive)
REMARK    1  A    between atoms: C_1  and  N_2
REMARK    2  A    between atoms: C_6  and  C_7
REMARK    3  A    between atoms: C_11  and  N_12
REMARK    4  A    between atoms: C_13  and  C_15
REMARK    5  A    between atoms: C_18  and  C_19
REMARK                            x       y       z     vdW  Elec       q    Type
REMARK                         _______ _______ _______ _____ _____    ______ ____
ROOT
ATOM      1  N   UNL     1       2.113   6.556  18.795  0.00  0.00    -0.279 N 
ATOM      2  C   UNL     1       2.351   7.828  18.291  0.00  0.00    +0.284 C 
ATOM      3  O   UNL     1       3.137   8.073  17.380  0.00  0.00    -0.266 OA
ATOM      4  H   UNL     1       1.473   6.483  19.572  0.00  0.00    +0.155 HD
ENDROOT
BRANCH   2   5
ATOM      5  C   UNL     1       1.587   8.883  18.949  0.00  0.00    +0.193 A 
ATOM      6  C   UNL     1       1.116  10.131  18.541  0.00  0.00    -0.001 A 
ATOM      7  C   UNL     1       0.441  10.682  19.649  0.00  0.00    +0.051 A 
ATOM      8  C   UNL     1      -0.260  11.889  19.930  0.00  0.00    +0.072 A 
ATOM      9  C   UNL     1      -0.792  12.069  21.159  0.00  0.00    +0.015 A 
ATOM     10  C   UNL     1      -0.657  11.020  22.228  0.00  0.00    +0.252 A 
ATOM     11  O   UNL     1      -1.150  11.209  23.334  0.00  0.00    -0.268 OA
ATOM     12  N   UNL     1       0.029   9.873  21.905  0.00  0.00    -0.293 N 
ATOM     13  C   UNL     1       0.538   9.758  20.651  0.00  0.00    +0.210 A 
ATOM     14  O   UNL     1       1.220   8.668  20.264  0.00  0.00    -0.434 OA
ATOM     15  H   UNL     1       1.250  10.582  17.567  0.00  0.00    +0.066 HD
ATOM     16  H   UNL     1      -1.339  12.961  21.444  0.00  0.00    +0.068 HD
ATOM     17  H   UNL     1       0.150   9.137  22.587  0.00  0.00    +0.172 HD
BRANCH   8  18
ATOM     18  C   UNL     1      -0.358  12.886  18.824  0.00  0.00    +0.418 C 
ATOM     19  F   UNL     1       0.855  13.215  18.310  0.00  0.00    -0.166 F 
ATOM     20  F   UNL     1      -1.108  12.427  17.788  0.00  0.00    -0.166 F 
ATOM     21  F   UNL     1      -0.933  14.047  19.237  0.00  0.00    -0.166 F 
ENDBRANCH   8  18
ENDBRANCH   2   5
BRANCH   1  26
ATOM     22  C   UNL     1       4.383   4.255  16.976  0.00  0.00    +0.022 A 
ATOM     23  C   UNL     1       3.929   3.006  17.410  0.00  0.00    -0.051 A 
ATOM     24  C   UNL     1       2.851   2.918  18.291  0.00  0.00    -0.059 A 
ATOM     25  C   UNL     1       2.222   4.076  18.757  0.00  0.00    -0.040 A 
ATOM     26  C   UNL     1       2.671   5.334  18.359  0.00  0.00    +0.034 A 
ATOM     27  C   UNL     1       3.755   5.411  17.472  0.00  0.00    -0.030 A 
ATOM     28  H   UNL     1       4.418   2.087  17.097  0.00  0.00    +0.062 HD
ATOM     29  H   UNL     1       2.501   1.945  18.630  0.00  0.00    +0.062 HD
ATOM     30  H   UNL     1       1.392   3.953  19.447  0.00  0.00    +0.064 HD
ATOM     31  H   UNL     1       4.129   6.382  17.151  0.00  0.00    +0.064 HD
BRANCH  22  36
ATOM     32  N   UNL     1       6.826   4.608  16.380  0.00  0.00    -0.228 N 
ATOM     33  N   UNL     1       7.568   4.687  15.264  0.00  0.00    -0.044 NA
ATOM     34  N   UNL     1       6.718   4.498  14.267  0.00  0.00    -0.023 NA
ATOM     35  N   UNL     1       5.446   4.301  14.740  0.00  0.00    -0.108 NA
ATOM     36  C   UNL     1       5.507   4.401  16.057  0.00  0.00    +0.182 A 
BRANCH  32  37
ATOM     37  C   UNL     1       7.465   4.659  17.665  0.00  0.00    +0.034 C 
ATOM     38  H   UNL     1       6.819   4.189  18.410  0.00  0.00    +0.047 HD
ATOM     39  H   UNL     1       7.635   5.701  17.948  0.00  0.00    +0.047 HD
ATOM     40  H   UNL     1       8.412   4.117  17.600  0.00  0.00    +0.047 HD
ENDBRANCH  32  37
ENDBRANCH  22  36
ENDBRANCH   1  26
TORSDOF 5
ENDMDL
MODEL 15
REMARK VINA RESULT:    -7.925      2.433      3.500
REMARK INTER + INTRA:         -10.496
REMARK INTER:                  -9.844
REMARK INTRA:                  -0.652
REMARK UNBOUND:                -0.486
REMARK  Name = 
REMARK  5 active torsions:
REMARK  status: ('A' for Active; 'I' for Inactive)
REMARK    1  A    between atoms: C_1  and  N_2
REMARK    2  A    between atoms: C_6  and  C_7
REMARK    3  A    between atoms: C_11  and  N_12
REMARK    4  A    between atoms: C_13  and  C_15
REMARK    5  A    between atoms: C_18  and  C_19
REMARK                            x       y       z     vdW  Elec       q    Type
REMARK                         _______ _______ _______ _____ _____    ______ ____
ROOT
ATOM      1  N   UNL     1       1.304   9.042  18.320  0.00  0.00    -0.279 N 
ATOM      2  C   UNL     1       1.763   8.140  19.272  0.00  0.00    +0.284 C 
ATOM      3  O   UNL     1       1.603   8.275  20.481  0.00  0.00    -0.266 OA
ATOM      4  H   UNL     1       1.529   8.845  17.356  0.00  0.00    +0.155 HD
ENDROOT
BRANCH   2   5
ATOM      5  C   UNL     1       2.478   6.997  18.714  0.00  0.00    +0.193 A 
ATOM      6  C   UNL     1       3.512   6.864  17.787  0.00  0.00    -0.001 A 
ATOM      7  C   UNL     1       3.761   5.482  17.666  0.00  0.00    +0.051 A 
ATOM      8  C   UNL     1       4.653   4.660  16.921  0.00  0.00    +0.072 A 
ATOM      9  C   UNL     1       4.593   3.319  17.074  0.00  0.00    +0.015 A 
ATOM     10  C   UNL     1       3.604   2.685  18.013  0.00  0.00    +0.252 A 
ATOM     11  O   UNL     1       3.572   1.466  18.133  0.00  0.00    -0.268 OA
ATOM     12  N   UNL     1       2.766   3.524  18.709  0.00  0.00    -0.293 N 
ATOM     13  C   UNL     1       2.881   4.862  18.507  0.00  0.00    +0.210 A 
ATOM     14  O   UNL     1       2.096   5.742  19.150  0.00  0.00    -0.434 OA
ATOM     15  H   UNL     1       4.015   7.667  17.265  0.00  0.00    +0.066 HD
ATOM     16  H   UNL     1       5.241   2.631  16.541  0.00  0.00    +0.068 HD
ATOM     17  H   UNL     1       2.082   3.150  19.352  0.00  0.00    +0.172 HD
BRANCH   8  18
ATOM     18  C   UNL     1       5.609   5.353  16.008  0.00  0.00    +0.418 C 
ATOM     19  F   UNL     1       4.981   6.147  15.103  0.00  0.00    -0.166 F 
ATOM     20  F   UNL     1       6.476   6.149  16.688  0.00  0.00    -0.166 F 
ATOM     21  F   UNL     1       6.362   4.473  15.298  0.00  0.00    -0.166 F 
ENDBRANCH   8  18
ENDBRANCH   2   5
BRANCH   1  26
ATOM     22  C   UNL     1       0.582  12.509  19.420  0.00  0.00    +0.022 A 
ATOM     23  C   UNL     1      -0.747  12.665  19.015  0.00  0.00    -0.051 A 
ATOM     24  C   UNL     1      -1.420  11.612  18.395  0.00  0.00    -0.059 A 
ATOM     25  C   UNL     1      -0.770  10.397  18.162  0.00  0.00    -0.040 A 
ATOM     26  C   UNL     1       0.561  10.224  18.534  0.00  0.00    +0.034 A 
ATOM     27  C   UNL     1       1.228  11.288  19.158  0.00  0.00    -0.030 A 
ATOM     28  H   UNL     1      -1.271  13.608  19.146  0.00  0.00    +0.062 HD
ATOM     29  H   UNL     1      -2.453  11.737  18.076  0.00  0.00    +0.062 HD
ATOM     30  H   UNL     1      -1.336   9.612  17.668  0.00  0.00    +0.064 HD
ATOM     31  H   UNL     1       2.272  11.181  19.454  0.00  0.00    +0.064 HD
BRANCH  22  36
ATOM     32  N   UNL     1       2.277  14.398  19.506  0.00  0.00    -0.228 N 
ATOM     33  N   UNL     1       2.743  15.266  20.419  0.00  0.00    -0.044 NA
ATOM     34  N   UNL     1       2.063  15.005  21.524  0.00  0.00    -0.023 NA
ATOM     35  N   UNL     1       1.175  13.980  21.322  0.00  0.00    -0.108 NA
ATOM     36  C   UNL     1       1.330  13.580  20.071  0.00  0.00    +0.182 A 
BRANCH  32  37
ATOM     37  C   UNL     1       2.729  14.485  18.146  0.00  0.00    +0.034 C 
ATOM     38  H   UNL     1       2.154  13.790  17.528  0.00  0.00    +0.047 HD
ATOM     39  H   UNL     1       3.786  14.214  18.093  0.00  0.00    +0.047 HD
ATOM     40  H   UNL     1       2.574  15.508  17.796  0.00  0.00    +0.047 HD
ENDBRANCH  32  37
ENDBRANCH  22  36
ENDBRANCH   1  26
TORSDOF 5
ENDMDL
MODEL 16
REMARK VINA RESULT:    -7.920      2.844      3.298
REMARK INTER + INTRA:         -10.489
REMARK INTER:                 -10.030
REMARK INTRA:                  -0.458
REMARK UNBOUND:                -0.486
REMARK  Name = 
REMARK  5 active torsions:
REMARK  status: ('A' for Active; 'I' for Inactive)
REMARK    1  A    between atoms: C_1  and  N_2
REMARK    2  A    between atoms: C_6  and  C_7
REMARK    3  A    between atoms: C_11  and  N_12
REMARK    4  A    between atoms: C_13  and  C_15
REMARK    5  A    between atoms: C_18  and  C_19
REMARK                            x       y       z     vdW  Elec       q    Type
REMARK                         _______ _______ _______ _____ _____    ______ ____
ROOT
ATOM      1  N   UNL     1       1.121   8.554  18.767  0.00  0.00    -0.279 N 
ATOM      2  C   UNL     1       2.274   7.992  18.233  0.00  0.00    +0.284 C 
ATOM      3  O   UNL     1       3.079   8.603  17.535  0.00  0.00    -0.266 OA
ATOM      4  H   UNL     1       0.515   7.942  19.293  0.00  0.00    +0.155 HD
ENDROOT
BRANCH   2   5
ATOM      5  C   UNL     1       2.458   6.582  18.560  0.00  0.00    +0.193 A 
ATOM      6  C   UNL     1       2.134   5.799  19.669  0.00  0.00    -0.001 A 
ATOM      7  C   UNL     1       2.580   4.494  19.376  0.00  0.00    +0.051 A 
ATOM      8  C   UNL     1       2.576   3.233  20.037  0.00  0.00    +0.072 A 
ATOM      9  C   UNL     1       3.120   2.164  19.417  0.00  0.00    +0.015 A 
ATOM     10  C   UNL     1       3.726   2.283  18.046  0.00  0.00    +0.252 A 
ATOM     11  O   UNL     1       4.212   1.296  17.506  0.00  0.00    -0.268 OA
ATOM     12  N   UNL     1       3.704   3.522  17.451  0.00  0.00    -0.293 N 
ATOM     13  C   UNL     1       3.142   4.554  18.132  0.00  0.00    +0.210 A 
ATOM     14  O   UNL     1       3.085   5.792  17.615  0.00  0.00    -0.434 OA
ATOM     15  H   UNL     1       1.642   6.134  20.572  0.00  0.00    +0.066 HD
ATOM     16  H   UNL     1       3.151   1.174  19.859  0.00  0.00    +0.068 HD
ATOM     17  H   UNL     1       4.099   3.658  16.531  0.00  0.00    +0.172 HD
BRANCH   8  18
ATOM     18  C   UNL     1       1.957   3.185  21.395  0.00  0.00    +0.418 C 
ATOM     19  F   UNL     1       2.121   1.980  22.000  0.00  0.00    -0.166 F 
ATOM     20  F   UNL     1       2.490   4.115  22.231  0.00  0.00    -0.166 F 
ATOM     21  F   UNL     1       0.620   3.421  21.352  0.00  0.00    -0.166 F 
ENDBRANCH   8  18
ENDBRANCH   2   5
BRANCH   1  26
ATOM     22  C   UNL     1      -1.230  11.375  18.256  0.00  0.00    +0.022 A 
ATOM     23  C   UNL     1      -0.392  12.480  18.431  0.00  0.00    -0.051 A 
ATOM     24  C   UNL     1       0.966  12.295  18.697  0.00  0.00    -0.059 A 
ATOM     25  C   UNL     1       1.498  11.007  18.802  0.00  0.00    -0.040 A 
ATOM     26  C   UNL     1       0.678   9.890  18.655  0.00  0.00    +0.034 A 
ATOM     27  C   UNL     1      -0.685  10.086  18.388  0.00  0.00    -0.030 A 
ATOM     28  H   UNL     1      -0.778  13.495  18.393  0.00  0.00    +0.062 HD
ATOM     29  H   UNL     1       1.616  13.157  18.837  0.00  0.00    +0.062 HD
ATOM     30  H   UNL     1       2.558  10.918  19.017  0.00  0.00    +0.064 HD
ATOM     31  H   UNL     1      -1.349   9.229  18.276  0.00  0.00    +0.064 HD
BRANCH  22  36
ATOM     32  N   UNL     1      -3.300  11.285  16.787  0.00  0.00    -0.228 N 
ATOM     33  N   UNL     1      -4.617  11.517  16.921  0.00  0.00    -0.044 NA
ATOM     34  N   UNL     1      -4.783  11.852  18.190  0.00  0.00    -0.023 NA
ATOM     35  N   UNL     1      -3.587  11.837  18.861  0.00  0.00    -0.108 NA
ATOM     36  C   UNL     1      -2.657  11.514  17.979  0.00  0.00    +0.182 A 
BRANCH  32  37
ATOM     37  C   UNL     1      -2.788  10.787  15.542  0.00  0.00    +0.034 C 
ATOM     38  H   UNL     1      -2.998   9.716  15.466  0.00  0.00    +0.047 HD
ATOM     39  H   UNL     1      -1.707  10.940  15.503  0.00  0.00    +0.047 HD
ATOM     40  H   UNL     1      -3.285  11.320  14.728  0.00  0.00    +0.047 HD
ENDBRANCH  32  37
ENDBRANCH  22  36
ENDBRANCH   1  26
TORSDOF 5
ENDMDL
MODEL 17
REMARK VINA RESULT:    -7.917      2.574      3.374
REMARK INTER + INTRA:         -10.486
REMARK INTER:                  -9.784
REMARK INTRA:                  -0.701
REMARK UNBOUND:                -0.486
REMARK  Name = 
REMARK  5 active torsions:
REMARK  status: ('A' for Active; 'I' for Inactive)
REMARK    1  A    between atoms: C_1  and  N_2
REMARK    2  A    between atoms: C_6  and  C_7
REMARK    3  A    between atoms: C_11  and  N_12
REMARK    4  A    between atoms: C_13  and  C_15
REMARK    5  A    between atoms: C_18  and  C_19
REMARK                            x       y       z     vdW  Elec       q    Type
REMARK                         _______ _______ _______ _____ _____    ______ ____
ROOT
ATOM      1  N   UNL     1       0.588   9.175  18.677  0.00  0.00    -0.279 N 
ATOM      2  C   UNL     1       1.880   9.302  18.180  0.00  0.00    +0.284 C 
ATOM      3  O   UNL     1       2.358  10.354  17.765  0.00  0.00    -0.266 OA
ATOM      4  H   UNL     1       0.293   8.250  18.953  0.00  0.00    +0.155 HD
ENDROOT
BRANCH   2   5
ATOM      5  C   UNL     1       2.643   8.058  18.177  0.00  0.00    +0.193 A 
ATOM      6  C   UNL     1       3.684   7.567  17.389  0.00  0.00    -0.001 A 
ATOM      7  C   UNL     1       3.991   6.286  17.890  0.00  0.00    +0.051 A 
ATOM      8  C   UNL     1       4.918   5.253  17.574  0.00  0.00    +0.072 A 
ATOM      9  C   UNL     1       4.913   4.119  18.307  0.00  0.00    +0.015 A 
ATOM     10  C   UNL     1       3.950   3.931  19.446  0.00  0.00    +0.252 A 
ATOM     11  O   UNL     1       3.968   2.892  20.096  0.00  0.00    -0.268 OA
ATOM     12  N   UNL     1       3.076   4.959  19.711  0.00  0.00    -0.293 N 
ATOM     13  C   UNL     1       3.135   6.071  18.933  0.00  0.00    +0.210 A 
ATOM     14  O   UNL     1       2.313   7.114  19.131  0.00  0.00    -0.434 OA
ATOM     15  H   UNL     1       4.155   8.073  16.557  0.00  0.00    +0.066 HD
ATOM     16  H   UNL     1       5.590   3.291  18.125  0.00  0.00    +0.068 HD
ATOM     17  H   UNL     1       2.406   4.884  20.464  0.00  0.00    +0.172 HD
BRANCH   8  18
ATOM     18  C   UNL     1       5.846   5.505  16.433  0.00  0.00    +0.418 C 
ATOM     19  F   UNL     1       5.190   5.834  15.290  0.00  0.00    -0.166 F 
ATOM     20  F   UNL     1       6.709   6.522  16.693  0.00  0.00    -0.166 F 
ATOM     21  F   UNL     1       6.605   4.414  16.145  0.00  0.00    -0.166 F 
ENDBRANCH   8  18
ENDBRANCH   2   5
BRANCH   1  26
ATOM     22  C   UNL     1      -1.123  12.108  20.165  0.00  0.00    +0.022 A 
ATOM     23  C   UNL     1      -2.197  12.287  19.288  0.00  0.00    -0.051 A 
ATOM     24  C   UNL     1      -2.374  11.418  18.210  0.00  0.00    -0.059 A 
ATOM     25  C   UNL     1      -1.475  10.372  17.989  0.00  0.00    -0.040 A 
ATOM     26  C   UNL     1      -0.382  10.188  18.835  0.00  0.00    +0.034 A 
ATOM     27  C   UNL     1      -0.214  11.066  19.916  0.00  0.00    -0.030 A 
ATOM     28  H   UNL     1      -2.894  13.111  19.408  0.00  0.00    +0.062 HD
ATOM     29  H   UNL     1      -3.209  11.561  17.526  0.00  0.00    +0.062 HD
ATOM     30  H   UNL     1      -1.653   9.729  17.132  0.00  0.00    +0.064 HD
ATOM     31  H   UNL     1       0.636  10.948  20.588  0.00  0.00    +0.064 HD
BRANCH  22  36
ATOM     32  N   UNL     1      -1.485  12.924  22.543  0.00  0.00    -0.228 N 
ATOM     33  N   UNL     1      -1.016  13.904  23.333  0.00  0.00    -0.044 NA
ATOM     34  N   UNL     1      -0.120  14.543  22.598  0.00  0.00    -0.023 NA
ATOM     35  N   UNL     1      -0.018  13.981  21.352  0.00  0.00    -0.108 NA
ATOM     36  C   UNL     1      -0.892  12.990  21.306  0.00  0.00    +0.182 A 
BRANCH  32  37
ATOM     37  C   UNL     1      -2.406  11.960  23.075  0.00  0.00    +0.034 C 
ATOM     38  H   UNL     1      -2.400  11.066  22.445  0.00  0.00    +0.047 HD
ATOM     39  H   UNL     1      -3.414  12.382  23.083  0.00  0.00    +0.047 HD
ATOM     40  H   UNL     1      -2.088  11.702  24.088  0.00  0.00    +0.047 HD
ENDBRANCH  32  37
ENDBRANCH  22  36
ENDBRANCH   1  26
TORSDOF 5
ENDMDL
MODEL 18
REMARK VINA RESULT:    -7.822      4.377      9.328
REMARK INTER + INTRA:         -10.365
REMARK INTER:                 -10.209
REMARK INTRA:                  -0.156
REMARK UNBOUND:                -0.486
REMARK  Name = 
REMARK  5 active torsions:
REMARK  status: ('A' for Active; 'I' for Inactive)
REMARK    1  A    between atoms: C_1  and  N_2
REMARK    2  A    between atoms: C_6  and  C_7
REMARK    3  A    between atoms: C_11  and  N_12
REMARK    4  A    between atoms: C_13  and  C_15
REMARK    5  A    between atoms: C_18  and  C_19
REMARK                            x       y       z     vdW  Elec       q    Type
REMARK                         _______ _______ _______ _____ _____    ______ ____
ROOT
ATOM      1  N   UNL     1       2.182   7.081  19.883  0.00  0.00    -0.279 N 
ATOM      2  C   UNL     1       2.015   8.057  18.910  0.00  0.00    +0.284 C 
ATOM      3  O   UNL     1       2.406   7.949  17.751  0.00  0.00    -0.266 OA
ATOM      4  H   UNL     1       1.853   7.299  20.812  0.00  0.00    +0.155 HD
ENDROOT
BRANCH   2   5
ATOM      5  C   UNL     1       1.333   9.259  19.380  0.00  0.00    +0.193 A 
ATOM      6  C   UNL     1       0.994  10.473  18.783  0.00  0.00    -0.001 A 
ATOM      7  C   UNL     1       0.340  11.233  19.773  0.00  0.00    +0.051 A 
ATOM      8  C   UNL     1      -0.253  12.525  19.852  0.00  0.00    +0.072 A 
ATOM      9  C   UNL     1      -0.803  12.925  21.019  0.00  0.00    +0.015 A 
ATOM     10  C   UNL     1      -0.800  12.032  22.229  0.00  0.00    +0.252 A 
ATOM     11  O   UNL     1      -1.307  12.419  23.274  0.00  0.00    -0.268 OA
ATOM     12  N   UNL     1      -0.216  10.794  22.099  0.00  0.00    -0.293 N 
ATOM     13  C   UNL     1       0.319  10.457  20.896  0.00  0.00    +0.210 A 
ATOM     14  O   UNL     1       0.907   9.267  20.696  0.00  0.00    -0.434 OA
ATOM     15  H   UNL     1       1.200  10.767  17.762  0.00  0.00    +0.066 HD
ATOM     16  H   UNL     1      -1.273  13.894  21.153  0.00  0.00    +0.068 HD
ATOM     17  H   UNL     1      -0.185  10.155  22.881  0.00  0.00    +0.172 HD
BRANCH   8  18
ATOM     18  C   UNL     1      -0.222  13.360  18.615  0.00  0.00    +0.418 C 
ATOM     19  F   UNL     1      -1.000  12.852  17.624  0.00  0.00    -0.166 F 
ATOM     20  F   UNL     1      -0.661  14.625  18.843  0.00  0.00    -0.166 F 
ATOM     21  F   UNL     1       1.033  13.468  18.106  0.00  0.00    -0.166 F 
ENDBRANCH   8  18
ENDBRANCH   2   5
BRANCH   1  26
ATOM     22  C   UNL     1       4.378   4.436  18.493  0.00  0.00    +0.022 A 
ATOM     23  C   UNL     1       4.080   3.352  19.324  0.00  0.00    -0.051 A 
ATOM     24  C   UNL     1       3.129   3.485  20.336  0.00  0.00    -0.059 A 
ATOM     25  C   UNL     1       2.476   4.704  20.538  0.00  0.00    -0.040 A 
ATOM     26  C   UNL     1       2.774   5.807  19.739  0.00  0.00    +0.034 A 
ATOM     27  C   UNL     1       3.730   5.662  18.723  0.00  0.00    -0.030 A 
ATOM     28  H   UNL     1       4.595   2.401  19.219  0.00  0.00    +0.062 HD
ATOM     29  H   UNL     1       2.901   2.641  20.985  0.00  0.00    +0.062 HD
ATOM     30  H   UNL     1       1.751   4.758  21.345  0.00  0.00    +0.064 HD
ATOM     31  H   UNL     1       3.985   6.510  18.089  0.00  0.00    +0.064 HD
BRANCH  22  36
ATOM     32  N   UNL     1       6.671   4.774  17.454  0.00  0.00    -0.228 N 
ATOM     33  N   UNL     1       7.269   4.521  16.278  0.00  0.00    -0.044 NA
ATOM     34  N   UNL     1       6.349   3.917  15.543  0.00  0.00    -0.023 NA
ATOM     35  N   UNL     1       5.175   3.786  16.239  0.00  0.00    -0.108 NA
ATOM     36  C   UNL     1       5.365   4.349  17.421  0.00  0.00    +0.182 A 
BRANCH  32  37
ATOM     37  C   UNL     1       7.434   5.333  18.534  0.00  0.00    +0.034 C 
ATOM     38  H   UNL     1       8.165   6.040  18.134  0.00  0.00    +0.047 HD
ATOM     39  H   UNL     1       7.963   4.534  19.060  0.00  0.00    +0.047 HD
ATOM     40  H   UNL     1       6.747   5.851  19.208  0.00  0.00    +0.047 HD
ENDBRANCH  32  37
ENDBRANCH  22  36
ENDBRANCH   1  26
TORSDOF 5
ENDMDL
MODEL 19
REMARK VINA RESULT:    -7.773      2.408      3.162
REMARK INTER + INTRA:         -10.303
REMARK INTER:                  -9.888
REMARK INTRA:                  -0.415
REMARK UNBOUND:                -0.486
REMARK  Name = 
REMARK  5 active torsions:
REMARK  status: ('A' for Active; 'I' for Inactive)
REMARK    1  A    between atoms: C_1  and  N_2
REMARK    2  A    between atoms: C_6  and  C_7
REMARK    3  A    between atoms: C_11  and  N_12
REMARK    4  A    between atoms: C_13  and  C_15
REMARK    5  A    between atoms: C_18  and  C_19
REMARK                            x       y       z     vdW  Elec       q    Type
REMARK                         _______ _______ _______ _____ _____    ______ ____
ROOT
ATOM      1  N   UNL     1       1.214   9.159  19.374  0.00  0.00    -0.279 N 
ATOM      2  C   UNL     1       1.994   8.504  18.430  0.00  0.00    +0.284 C 
ATOM      3  O   UNL     1       2.421   9.028  17.406  0.00  0.00    -0.266 OA
ATOM      4  H   UNL     1       0.888   8.613  20.158  0.00  0.00    +0.155 HD
ENDROOT
BRANCH   2   5
ATOM      5  C   UNL     1       2.265   7.105  18.747  0.00  0.00    +0.193 A 
ATOM      6  C   UNL     1       2.754   6.026  18.010  0.00  0.00    -0.001 A 
ATOM      7  C   UNL     1       2.784   4.926  18.891  0.00  0.00    +0.051 A 
ATOM      8  C   UNL     1       3.161   3.555  18.811  0.00  0.00    +0.072 A 
ATOM      9  C   UNL     1       3.043   2.776  19.908  0.00  0.00    +0.015 A 
ATOM     10  C   UNL     1       2.524   3.332  21.206  0.00  0.00    +0.252 A 
ATOM     11  O   UNL     1       2.429   2.603  22.187  0.00  0.00    -0.268 OA
ATOM     12  N   UNL     1       2.176   4.661  21.230  0.00  0.00    -0.293 N 
ATOM     13  C   UNL     1       2.319   5.386  20.090  0.00  0.00    +0.210 A 
ATOM     14  O   UNL     1       1.998   6.688  20.038  0.00  0.00    -0.434 OA
ATOM     15  H   UNL     1       3.047   6.038  16.969  0.00  0.00    +0.066 HD
ATOM     16  H   UNL     1       3.311   1.725  19.922  0.00  0.00    +0.068 HD
ATOM     17  H   UNL     1       1.820   5.084  22.076  0.00  0.00    +0.172 HD
BRANCH   8  18
ATOM     18  C   UNL     1       3.669   3.070  17.494  0.00  0.00    +0.418 C 
ATOM     19  F   UNL     1       2.777   3.264  16.488  0.00  0.00    -0.166 F 
ATOM     20  F   UNL     1       4.815   3.700  17.126  0.00  0.00    -0.166 F 
ATOM     21  F   UNL     1       3.946   1.739  17.516  0.00  0.00    -0.166 F 
ENDBRANCH   8  18
ENDBRANCH   2   5
BRANCH   1  26
ATOM     22  C   UNL     1      -0.961  12.103  19.966  0.00  0.00    +0.022 A 
ATOM     23  C   UNL     1      -0.167  13.146  19.479  0.00  0.00    -0.051 A 
ATOM     24  C   UNL     1       1.086  12.875  18.928  0.00  0.00    -0.059 A 
ATOM     25  C   UNL     1       1.565  11.564  18.869  0.00  0.00    -0.040 A 
ATOM     26  C   UNL     1       0.803  10.510  19.371  0.00  0.00    +0.034 A 
ATOM     27  C   UNL     1      -0.456  10.793  19.921  0.00  0.00    -0.030 A 
ATOM     28  H   UNL     1      -0.492  14.181  19.542  0.00  0.00    +0.062 HD
ATOM     29  H   UNL     1       1.705  13.689  18.553  0.00  0.00    +0.062 HD
ATOM     30  H   UNL     1       2.550  11.408  18.439  0.00  0.00    +0.064 HD
ATOM     31  H   UNL     1      -1.068   9.987  20.326  0.00  0.00    +0.064 HD
BRANCH  22  36
ATOM     32  N   UNL     1      -2.599  12.379  21.887  0.00  0.00    -0.228 N 
ATOM     33  N   UNL     1      -3.913  12.616  22.038  0.00  0.00    -0.044 NA
ATOM     34  N   UNL     1      -4.385  12.749  20.809  0.00  0.00    -0.023 NA
ATOM     35  N   UNL     1      -3.387  12.596  19.882  0.00  0.00    -0.108 NA
ATOM     36  C   UNL     1      -2.278  12.334  20.552  0.00  0.00    +0.182 A 
BRANCH  32  37
ATOM     37  C   UNL     1      -1.753  12.294  23.044  0.00  0.00    +0.034 C 
ATOM     38  H   UNL     1      -1.052  11.464  22.921  0.00  0.00    +0.047 HD
ATOM     39  H   UNL     1      -2.364  12.114  23.932  0.00  0.00    +0.047 HD
ATOM     40  H   UNL     1      -1.203  13.234  23.138  0.00  0.00    +0.047 HD
ENDBRANCH  32  37
ENDBRANCH  22  36
ENDBRANCH   1  26
TORSDOF 5
ENDMDL
MODEL 20
REMARK VINA RESULT:    -7.744      4.706      9.706
REMARK INTER + INTRA:         -10.266
REMARK INTER:                 -10.022
REMARK INTRA:                  -0.244
REMARK UNBOUND:                -0.486
REMARK  Name = 
REMARK  5 active torsions:
REMARK  status: ('A' for Active; 'I' for Inactive)
REMARK    1  A    between atoms: C_1  and  N_2
REMARK    2  A    between atoms: C_6  and  C_7
REMARK    3  A    between atoms: C_11  and  N_12
REMARK    4  A    between atoms: C_13  and  C_15
REMARK    5  A    between atoms: C_18  and  C_19
REMARK                            x       y       z     vdW  Elec       q    Type
REMARK                         _______ _______ _______ _____ _____    ______ ____
ROOT
ATOM      1  N   UNL     1       1.847   7.589  20.025  0.00  0.00    -0.279 N 
ATOM      2  C   UNL     1       1.600   8.504  19.010  0.00  0.00    +0.284 C 
ATOM      3  O   UNL     1       1.856   8.307  17.826  0.00  0.00    -0.266 OA
ATOM      4  H   UNL     1       1.630   7.879  20.967  0.00  0.00    +0.155 HD
ENDROOT
BRANCH   2   5
ATOM      5  C   UNL     1       1.009   9.758  19.469  0.00  0.00    +0.193 A 
ATOM      6  C   UNL     1       0.348  10.143  20.636  0.00  0.00    -0.001 A 
ATOM      7  C   UNL     1       0.013  11.502  20.472  0.00  0.00    +0.051 A 
ATOM      8  C   UNL     1      -0.648  12.498  21.244  0.00  0.00    +0.072 A 
ATOM      9  C   UNL     1      -0.788  13.741  20.733  0.00  0.00    +0.015 A 
ATOM     10  C   UNL     1      -0.259  14.086  19.368  0.00  0.00    +0.252 A 
ATOM     11  O   UNL     1      -0.399  15.221  18.929  0.00  0.00    -0.268 OA
ATOM     12  N   UNL     1       0.372  13.088  18.663  0.00  0.00    -0.293 N 
ATOM     13  C   UNL     1       0.477  11.862  19.238  0.00  0.00    +0.210 A 
ATOM     14  O   UNL     1       1.079  10.839  18.610  0.00  0.00    -0.434 OA
ATOM     15  H   UNL     1       0.135   9.516  21.491  0.00  0.00    +0.066 HD
ATOM     16  H   UNL     1      -1.279  14.549  21.264  0.00  0.00    +0.068 HD
ATOM     17  H   UNL     1       0.744  13.266  17.741  0.00  0.00    +0.172 HD
BRANCH   8  18
ATOM     18  C   UNL     1      -1.147  12.089  22.590  0.00  0.00    +0.418 C 
ATOM     19  F   UNL     1      -0.479  11.017  23.089  0.00  0.00    -0.166 F 
ATOM     20  F   UNL     1      -1.021  13.086  23.505  0.00  0.00    -0.166 F 
ATOM     21  F   UNL     1      -2.462  11.749  22.562  0.00  0.00    -0.166 F 
ENDBRANCH   8  18
ENDBRANCH   2   5
BRANCH   1  26
ATOM     22  C   UNL     1       4.272   4.926  19.143  0.00  0.00    +0.022 A 
ATOM     23  C   UNL     1       3.620   3.780  19.610  0.00  0.00    -0.051 A 
ATOM     24  C   UNL     1       2.360   3.883  20.200  0.00  0.00    -0.059 A 
ATOM     25  C   UNL     1       1.743   5.129  20.341  0.00  0.00    -0.040 A 
ATOM     26  C   UNL     1       2.383   6.288  19.905  0.00  0.00    +0.034 A 
ATOM     27  C   UNL     1       3.649   6.174  19.312  0.00  0.00    -0.030 A 
ATOM     28  H   UNL     1       4.087   2.801  19.551  0.00  0.00    +0.062 HD
ATOM     29  H   UNL     1       1.855   2.990  20.567  0.00  0.00    +0.062 HD
ATOM     30  H   UNL     1       0.766   5.154  20.814  0.00  0.00    +0.064 HD
ATOM     31  H   UNL     1       4.173   7.066  18.969  0.00  0.00    +0.064 HD
BRANCH  22  36
ATOM     32  N   UNL     1       5.892   4.496  17.234  0.00  0.00    -0.228 N 
ATOM     33  N   UNL     1       7.216   4.579  17.025  0.00  0.00    -0.044 NA
ATOM     34  N   UNL     1       7.718   5.035  18.161  0.00  0.00    -0.023 NA
ATOM     35  N   UNL     1       6.729   5.239  19.088  0.00  0.00    -0.108 NA
ATOM     36  C   UNL     1       5.592   4.873  18.520  0.00  0.00    +0.182 A 
BRANCH  32  37
ATOM     37  C   UNL     1       5.022   4.134  16.151  0.00  0.00    +0.034 C 
ATOM     38  H   UNL     1       4.028   4.553  16.329  0.00  0.00    +0.047 HD
ATOM     39  H   UNL     1       4.942   3.046  16.092  0.00  0.00    +0.047 HD
ATOM     40  H   UNL     1       5.436   4.542  15.226  0.00  0.00    +0.047 HD
ENDBRANCH  32  37
ENDBRANCH  22  36
ENDBRANCH   1  26
TORSDOF 5
ENDMDL
MODEL 21
REMARK VINA RESULT:    -7.708      3.433      4.286
REMARK INTER + INTRA:         -10.222
REMARK INTER:                  -9.476
REMARK INTRA:                  -0.746
REMARK UNBOUND:                -0.486
REMARK  Name = 
REMARK  5 active torsions:
REMARK  status: ('A' for Active; 'I' for Inactive)
REMARK    1  A    between atoms: C_1  and  N_2
REMARK    2  A    between atoms: C_6  and  C_7
REMARK    3  A    between atoms: C_11  and  N_12
REMARK    4  A    between atoms: C_13  and  C_15
REMARK    5  A    between atoms: C_18  and  C_19
REMARK                            x       y       z     vdW  Elec       q    Type
REMARK                         _______ _______ _______ _____ _____    ______ ____
ROOT
ATOM      1  N   UNL     1       0.470   9.170  18.850  0.00  0.00    -0.279 N 
ATOM      2  C   UNL     1       1.724   9.193  18.251  0.00  0.00    +0.284 C 
ATOM      3  O   UNL     1       2.201  10.174  17.689  0.00  0.00    -0.266 OA
ATOM      4  H   UNL     1       0.169   8.292  19.247  0.00  0.00    +0.155 HD
ENDROOT
BRANCH   2   5
ATOM      5  C   UNL     1       2.446   7.927  18.331  0.00  0.00    +0.193 A 
ATOM      6  C   UNL     1       2.241   6.742  19.038  0.00  0.00    -0.001 A 
ATOM      7  C   UNL     1       3.301   5.882  18.688  0.00  0.00    +0.051 A 
ATOM      8  C   UNL     1       3.706   4.559  19.023  0.00  0.00    +0.072 A 
ATOM      9  C   UNL     1       4.828   4.054  18.466  0.00  0.00    +0.015 A 
ATOM     10  C   UNL     1       5.651   4.862  17.501  0.00  0.00    +0.252 A 
ATOM     11  O   UNL     1       6.663   4.379  17.009  0.00  0.00    -0.268 OA
ATOM     12  N   UNL     1       5.216   6.133  17.209  0.00  0.00    -0.293 N 
ATOM     13  C   UNL     1       4.080   6.578  17.807  0.00  0.00    +0.210 A 
ATOM     14  O   UNL     1       3.595   7.808  17.572  0.00  0.00    -0.434 OA
ATOM     15  H   UNL     1       1.428   6.533  19.721  0.00  0.00    +0.066 HD
ATOM     16  H   UNL     1       5.196   3.055  18.674  0.00  0.00    +0.068 HD
ATOM     17  H   UNL     1       5.732   6.720  16.568  0.00  0.00    +0.172 HD
BRANCH   8  18
ATOM     18  C   UNL     1       2.844   3.813  19.986  0.00  0.00    +0.418 C 
ATOM     19  F   UNL     1       2.646   4.493  21.145  0.00  0.00    -0.166 F 
ATOM     20  F   UNL     1       1.613   3.554  19.473  0.00  0.00    -0.166 F 
ATOM     21  F   UNL     1       3.384   2.613  20.327  0.00  0.00    -0.166 F 
ENDBRANCH   8  18
ENDBRANCH   2   5
BRANCH   1  26
ATOM     22  C   UNL     1      -1.177  12.170  20.277  0.00  0.00    +0.022 A 
ATOM     23  C   UNL     1      -2.182  12.417  19.337  0.00  0.00    -0.051 A 
ATOM     24  C   UNL     1      -2.335  11.574  18.235  0.00  0.00    -0.059 A 
ATOM     25  C   UNL     1      -1.479  10.484  18.054  0.00  0.00    -0.040 A 
ATOM     26  C   UNL     1      -0.454  10.231  18.963  0.00  0.00    +0.034 A 
ATOM     27  C   UNL     1      -0.310  11.084  20.068  0.00  0.00    -0.030 A 
ATOM     28  H   UNL     1      -2.841  13.276  19.427  0.00  0.00    +0.062 HD
ATOM     29  H   UNL     1      -3.116  11.770  17.503  0.00  0.00    +0.062 HD
ATOM     30  H   UNL     1      -1.635   9.864  17.176  0.00  0.00    +0.064 HD
ATOM     31  H   UNL     1       0.488  10.911  20.790  0.00  0.00    +0.064 HD
BRANCH  22  36
ATOM     32  N   UNL     1      -1.540  12.880  22.688  0.00  0.00    -0.228 N 
ATOM     33  N   UNL     1      -1.111  13.856  23.505  0.00  0.00    -0.044 NA
ATOM     34  N   UNL     1      -0.264  14.569  22.779  0.00  0.00    -0.023 NA
ATOM     35  N   UNL     1      -0.154  14.057  21.512  0.00  0.00    -0.108 NA
ATOM     36  C   UNL     1      -0.974  13.022  21.444  0.00  0.00    +0.182 A 
BRANCH  32  37
ATOM     37  C   UNL     1      -2.399  11.850  23.199  0.00  0.00    +0.034 C 
ATOM     38  H   UNL     1      -1.882  11.310  23.997  0.00  0.00    +0.047 HD
ATOM     39  H   UNL     1      -2.647  11.149  22.399  0.00  0.00    +0.047 HD
ATOM     40  H   UNL     1      -3.303  12.320  23.595  0.00  0.00    +0.047 HD
ENDBRANCH  32  37
ENDBRANCH  22  36
ENDBRANCH   1  26
TORSDOF 5
ENDMDL
MODEL 22
REMARK VINA RESULT:    -7.644      4.165      9.355
REMARK INTER + INTRA:         -10.141
REMARK INTER:                 -10.009
REMARK INTRA:                  -0.131
REMARK UNBOUND:                -0.486
REMARK  Name = 
REMARK  5 active torsions:
REMARK  status: ('A' for Active; 'I' for Inactive)
REMARK    1  A    between atoms: C_1  and  N_2
REMARK    2  A    between atoms: C_6  and  C_7
REMARK    3  A    between atoms: C_11  and  N_12
REMARK    4  A    between atoms: C_13  and  C_15
REMARK    5  A    between atoms: C_18  and  C_19
REMARK                            x       y       z     vdW  Elec       q    Type
REMARK                         _______ _______ _______ _____ _____    ______ ____
ROOT
ATOM      1  N   UNL     1       1.912   6.956  19.021  0.00  0.00    -0.279 N 
ATOM      2  C   UNL     1       2.170   8.175  18.406  0.00  0.00    +0.284 C 
ATOM      3  O   UNL     1       3.190   8.423  17.769  0.00  0.00    -0.266 OA
ATOM      4  H   UNL     1       1.055   6.882  19.550  0.00  0.00    +0.155 HD
ENDROOT
BRANCH   2   5
ATOM      5  C   UNL     1       1.117   9.169  18.586  0.00  0.00    +0.193 A 
ATOM      6  C   UNL     1      -0.062   9.462  17.899  0.00  0.00    -0.001 A 
ATOM      7  C   UNL     1      -0.652  10.551  18.571  0.00  0.00    +0.051 A 
ATOM      8  C   UNL     1      -1.830  11.336  18.419  0.00  0.00    +0.072 A 
ATOM      9  C   UNL     1      -2.068  12.339  19.293  0.00  0.00    +0.015 A 
ATOM     10  C   UNL     1      -1.116  12.635  20.418  0.00  0.00    +0.252 A 
ATOM     11  O   UNL     1      -1.357  13.549  21.197  0.00  0.00    -0.268 OA
ATOM     12  N   UNL     1       0.005  11.846  20.521  0.00  0.00    -0.293 N 
ATOM     13  C   UNL     1       0.183  10.856  19.608  0.00  0.00    +0.210 A 
ATOM     14  O   UNL     1       1.254  10.047  19.645  0.00  0.00    -0.434 OA
ATOM     15  H   UNL     1      -0.439   8.952  17.022  0.00  0.00    +0.066 HD
ATOM     16  H   UNL     1      -2.944  12.977  19.239  0.00  0.00    +0.068 HD
ATOM     17  H   UNL     1       0.679  12.003  21.258  0.00  0.00    +0.172 HD
BRANCH   8  18
ATOM     18  C   UNL     1      -2.732  10.988  17.282  0.00  0.00    +0.418 C 
ATOM     19  F   UNL     1      -2.134  11.151  16.073  0.00  0.00    -0.166 F 
ATOM     20  F   UNL     1      -3.148   9.696  17.339  0.00  0.00    -0.166 F 
ATOM     21  F   UNL     1      -3.852  11.758  17.268  0.00  0.00    -0.166 F 
ENDBRANCH   8  18
ENDBRANCH   2   5
BRANCH   1  26
ATOM     22  C   UNL     1       4.440   4.523  17.823  0.00  0.00    +0.022 A 
ATOM     23  C   UNL     1       4.412   3.560  18.836  0.00  0.00    -0.051 A 
ATOM     24  C   UNL     1       3.534   3.700  19.912  0.00  0.00    -0.059 A 
ATOM     25  C   UNL     1       2.687   4.808  19.994  0.00  0.00    -0.040 A 
ATOM     26  C   UNL     1       2.714   5.794  19.010  0.00  0.00    +0.034 A 
ATOM     27  C   UNL     1       3.598   5.643  17.932  0.00  0.00    -0.030 A 
ATOM     28  H   UNL     1       5.082   2.706  18.823  0.00  0.00    +0.062 HD
ATOM     29  H   UNL     1       3.516   2.951  20.702  0.00  0.00    +0.062 HD
ATOM     30  H   UNL     1       2.029   4.874  20.856  0.00  0.00    +0.064 HD
ATOM     31  H   UNL     1       3.644   6.403  17.152  0.00  0.00    +0.064 HD
BRANCH  22  36
ATOM     32  N   UNL     1       6.707   4.556  16.678  0.00  0.00    -0.228 N 
ATOM     33  N   UNL     1       7.187   4.397  15.434  0.00  0.00    -0.044 NA
ATOM     34  N   UNL     1       6.128   4.135  14.684  0.00  0.00    -0.023 NA
ATOM     35  N   UNL     1       4.984   4.130  15.438  0.00  0.00    -0.108 NA
ATOM     36  C   UNL     1       5.340   4.424  16.678  0.00  0.00    +0.182 A 
BRANCH  32  37
ATOM     37  C   UNL     1       7.617   4.744  17.773  0.00  0.00    +0.034 C 
ATOM     38  H   UNL     1       8.517   4.148  17.603  0.00  0.00    +0.047 HD
ATOM     39  H   UNL     1       7.144   4.417  18.702  0.00  0.00    +0.047 HD
ATOM     40  H   UNL     1       7.878   5.804  17.825  0.00  0.00    +0.047 HD
ENDBRANCH  32  37
ENDBRANCH  22  36
ENDBRANCH   1  26
TORSDOF 5
ENDMDL
MODEL 23
REMARK VINA RESULT:    -7.576      3.174      4.447
REMARK INTER + INTRA:         -10.055
REMARK INTER:                  -9.353
REMARK INTRA:                  -0.702
REMARK UNBOUND:                -0.486
REMARK  Name = 
REMARK  5 active torsions:
REMARK  status: ('A' for Active; 'I' for Inactive)
REMARK    1  A    between atoms: C_1  and  N_2
REMARK    2  A    between atoms: C_6  and  C_7
REMARK    3  A    between atoms: C_11  and  N_12
REMARK    4  A    between atoms: C_13  and  C_15
REMARK    5  A    between atoms: C_18  and  C_19
REMARK                            x       y       z     vdW  Elec       q    Type
REMARK                         _______ _______ _______ _____ _____    ______ ____
ROOT
ATOM      1  N   UNL     1       0.969   9.148  19.089  0.00  0.00    -0.279 N 
ATOM      2  C   UNL     1       1.996   8.554  18.367  0.00  0.00    +0.284 C 
ATOM      3  O   UNL     1       2.655   9.129  17.506  0.00  0.00    -0.266 OA
ATOM      4  H   UNL     1       0.472   8.563  19.745  0.00  0.00    +0.155 HD
ENDROOT
BRANCH   2   5
ATOM      5  C   UNL     1       2.232   7.154  18.706  0.00  0.00    +0.193 A 
ATOM      6  C   UNL     1       2.655   6.042  17.977  0.00  0.00    -0.001 A 
ATOM      7  C   UNL     1       2.682   4.962  18.882  0.00  0.00    +0.051 A 
ATOM      8  C   UNL     1       3.008   3.577  18.820  0.00  0.00    +0.072 A 
ATOM      9  C   UNL     1       2.908   2.828  19.940  0.00  0.00    +0.015 A 
ATOM     10  C   UNL     1       2.460   3.430  21.243  0.00  0.00    +0.252 A 
ATOM     11  O   UNL     1       2.379   2.728  22.243  0.00  0.00    -0.268 OA
ATOM     12  N   UNL     1       2.158   4.772  21.249  0.00  0.00    -0.293 N 
ATOM     13  C   UNL     1       2.281   5.465  20.086  0.00  0.00    +0.210 A 
ATOM     14  O   UNL     1       2.002   6.776  20.016  0.00  0.00    -0.434 OA
ATOM     15  H   UNL     1       2.906   6.021  16.925  0.00  0.00    +0.066 HD
ATOM     16  H   UNL     1       3.140   1.769  19.968  0.00  0.00    +0.068 HD
ATOM     17  H   UNL     1       1.851   5.226  22.097  0.00  0.00    +0.172 HD
BRANCH   8  18
ATOM     18  C   UNL     1       3.446   3.045  17.496  0.00  0.00    +0.418 C 
ATOM     19  F   UNL     1       4.611   3.599  17.071  0.00  0.00    -0.166 F 
ATOM     20  F   UNL     1       3.644   1.701  17.528  0.00  0.00    -0.166 F 
ATOM     21  F   UNL     1       2.526   3.281  16.525  0.00  0.00    -0.166 F 
ENDBRANCH   8  18
ENDBRANCH   2   5
BRANCH   1  26
ATOM     22  C   UNL     1       0.970  12.821  19.598  0.00  0.00    +0.022 A 
ATOM     23  C   UNL     1      -0.202  13.201  18.936  0.00  0.00    -0.051 A 
ATOM     24  C   UNL     1      -1.013  12.236  18.337  0.00  0.00    -0.059 A 
ATOM     25  C   UNL     1      -0.657  10.885  18.381  0.00  0.00    -0.040 A 
ATOM     26  C   UNL     1       0.519  10.484  19.014  0.00  0.00    +0.034 A 
ATOM     27  C   UNL     1       1.326  11.462  19.615  0.00  0.00    -0.030 A 
ATOM     28  H   UNL     1      -0.490  14.245  18.850  0.00  0.00    +0.062 HD
ATOM     29  H   UNL     1      -1.922  12.533  17.818  0.00  0.00    +0.062 HD
ATOM     30  H   UNL     1      -1.318  10.176  17.893  0.00  0.00    +0.064 HD
ATOM     31  H   UNL     1       2.253  11.175  20.110  0.00  0.00    +0.064 HD
BRANCH  22  36
ATOM     32  N   UNL     1       2.918  14.448  19.676  0.00  0.00    -0.228 N 
ATOM     33  N   UNL     1       3.487  15.265  20.577  0.00  0.00    -0.044 NA
ATOM     34  N   UNL     1       2.756  15.136  21.673  0.00  0.00    -0.023 NA
ATOM     35  N   UNL     1       1.733  14.245  21.476  0.00  0.00    -0.108 NA
ATOM     36  C   UNL     1       1.852  13.791  20.240  0.00  0.00    +0.182 A 
BRANCH  32  37
ATOM     37  C   UNL     1       3.405  14.430  18.325  0.00  0.00    +0.034 C 
ATOM     38  H   UNL     1       4.396  14.890  18.290  0.00  0.00    +0.047 HD
ATOM     39  H   UNL     1       2.727  15.000  17.684  0.00  0.00    +0.047 HD
ATOM     40  H   UNL     1       3.466  13.390  17.995  0.00  0.00    +0.047 HD
ENDBRANCH  32  37
ENDBRANCH  22  36
ENDBRANCH   1  26
TORSDOF 5
ENDMDL
MODEL 24
REMARK VINA RESULT:    -7.450      2.305      2.775
REMARK INTER + INTRA:          -9.895
REMARK INTER:                  -9.182
REMARK INTRA:                  -0.714
REMARK UNBOUND:                -0.486
REMARK  Name = 
REMARK  5 active torsions:
REMARK  status: ('A' for Active; 'I' for Inactive)
REMARK    1  A    between atoms: C_1  and  N_2
REMARK    2  A    between atoms: C_6  and  C_7
REMARK    3  A    between atoms: C_11  and  N_12
REMARK    4  A    between atoms: C_13  and  C_15
REMARK    5  A    between atoms: C_18  and  C_19
REMARK                            x       y       z     vdW  Elec       q    Type
REMARK                         _______ _______ _______ _____ _____    ______ ____
ROOT
ATOM      1  N   UNL     1       1.726  10.198  19.061  0.00  0.00    -0.279 N 
ATOM      2  C   UNL     1       1.384   9.190  18.169  0.00  0.00    +0.284 C 
ATOM      3  O   UNL     1       0.395   9.218  17.443  0.00  0.00    -0.266 OA
ATOM      4  H   UNL     1       2.542  10.046  19.635  0.00  0.00    +0.155 HD
ENDROOT
BRANCH   2   5
ATOM      5  C   UNL     1       2.306   8.058  18.167  0.00  0.00    +0.193 A 
ATOM      6  C   UNL     1       3.449   7.746  17.430  0.00  0.00    -0.001 A 
ATOM      7  C   UNL     1       3.894   6.494  17.900  0.00  0.00    +0.051 A 
ATOM      8  C   UNL     1       4.969   5.608  17.605  0.00  0.00    +0.072 A 
ATOM      9  C   UNL     1       5.073   4.449  18.292  0.00  0.00    +0.015 A 
ATOM     10  C   UNL     1       4.077   4.083  19.358  0.00  0.00    +0.252 A 
ATOM     11  O   UNL     1       4.195   3.026  19.966  0.00  0.00    -0.268 OA
ATOM     12  N   UNL     1       3.059   4.974  19.605  0.00  0.00    -0.293 N 
ATOM     13  C   UNL     1       3.015   6.120  18.876  0.00  0.00    +0.210 A 
ATOM     14  O   UNL     1       2.050   7.035  19.061  0.00  0.00    -0.434 OA
ATOM     15  H   UNL     1       3.896   8.348  16.651  0.00  0.00    +0.066 HD
ATOM     16  H   UNL     1       5.864   3.727  18.122  0.00  0.00    +0.068 HD
ATOM     17  H   UNL     1       2.362   4.776  20.309  0.00  0.00    +0.172 HD
BRANCH   8  18
ATOM     18  C   UNL     1       5.921   6.033  16.537  0.00  0.00    +0.418 C 
ATOM     19  F   UNL     1       6.557   7.195  16.838  0.00  0.00    -0.166 F 
ATOM     20  F   UNL     1       6.889   5.105  16.319  0.00  0.00    -0.166 F 
ATOM     21  F   UNL     1       5.294   6.229  15.347  0.00  0.00    -0.166 F 
ENDBRANCH   8  18
ENDBRANCH   2   5
BRANCH   1  26
ATOM     22  C   UNL     1      -0.692  12.594  20.533  0.00  0.00    +0.022 A 
ATOM     23  C   UNL     1      -0.359  13.779  19.869  0.00  0.00    -0.051 A 
ATOM     24  C   UNL     1       0.654  13.784  18.910  0.00  0.00    -0.059 A 
ATOM     25  C   UNL     1       1.354  12.612  18.613  0.00  0.00    -0.040 A 
ATOM     26  C   UNL     1       1.058  11.424  19.279  0.00  0.00    +0.034 A 
ATOM     27  C   UNL     1       0.037  11.428  20.240  0.00  0.00    -0.030 A 
ATOM     28  H   UNL     1      -0.857  14.716  20.102  0.00  0.00    +0.062 HD
ATOM     29  H   UNL     1       0.915  14.708  18.397  0.00  0.00    +0.062 HD
ATOM     30  H   UNL     1       2.139  12.672  17.865  0.00  0.00    +0.064 HD
ATOM     31  H   UNL     1      -0.210  10.514  20.780  0.00  0.00    +0.064 HD
BRANCH  22  36
ATOM     32  N   UNL     1      -3.099  12.611  21.344  0.00  0.00    -0.228 N 
ATOM     33  N   UNL     1      -3.746  12.517  22.517  0.00  0.00    -0.044 NA
ATOM     34  N   UNL     1      -2.798  12.351  23.424  0.00  0.00    -0.023 NA
ATOM     35  N   UNL     1      -1.558  12.341  22.840  0.00  0.00    -0.108 NA
ATOM     36  C   UNL     1      -1.742  12.535  21.545  0.00  0.00    +0.182 A 
BRANCH  32  37
ATOM     37  C   UNL     1      -3.848  12.687  20.121  0.00  0.00    +0.034 C 
ATOM     38  H   UNL     1      -4.915  12.607  20.345  0.00  0.00    +0.047 HD
ATOM     39  H   UNL     1      -3.560  11.864  19.463  0.00  0.00    +0.047 HD
ATOM     40  H   UNL     1      -3.639  13.651  19.649  0.00  0.00    +0.047 HD
ENDBRANCH  32  37
ENDBRANCH  22  36
ENDBRANCH   1  26
TORSDOF 5
ENDMDL
MODEL 25
REMARK VINA RESULT:    -7.447      4.479      9.031
REMARK INTER + INTRA:          -9.891
REMARK INTER:                  -9.646
REMARK INTRA:                  -0.245
REMARK UNBOUND:                -0.486
REMARK  Name = 
REMARK  5 active torsions:
REMARK  status: ('A' for Active; 'I' for Inactive)
REMARK    1  A    between atoms: C_1  and  N_2
REMARK    2  A    between atoms: C_6  and  C_7
REMARK    3  A    between atoms: C_11  and  N_12
REMARK    4  A    between atoms: C_13  and  C_15
REMARK    5  A    between atoms: C_18  and  C_19
REMARK                            x       y       z     vdW  Elec       q    Type
REMARK                         _______ _______ _______ _____ _____    ______ ____
ROOT
ATOM      1  N   UNL     1       2.143   8.473  18.698  0.00  0.00    -0.279 N 
ATOM      2  C   UNL     1       1.547   8.609  19.945  0.00  0.00    +0.284 C 
ATOM      3  O   UNL     1       1.508   7.720  20.791  0.00  0.00    -0.266 OA
ATOM      4  H   UNL     1       2.078   9.261  18.071  0.00  0.00    +0.155 HD
ENDROOT
BRANCH   2   5
ATOM      5  C   UNL     1       0.944   9.917  20.179  0.00  0.00    +0.193 A 
ATOM      6  C   UNL     1       0.767  11.054  19.388  0.00  0.00    -0.001 A 
ATOM      7  C   UNL     1       0.110  12.002  20.197  0.00  0.00    +0.051 A 
ATOM      8  C   UNL     1      -0.366  13.334  20.040  0.00  0.00    +0.072 A 
ATOM      9  C   UNL     1      -0.968  13.944  21.084  0.00  0.00    +0.015 A 
ATOM     10  C   UNL     1      -1.144  13.242  22.402  0.00  0.00    +0.252 A 
ATOM     11  O   UNL     1      -1.695  13.818  23.332  0.00  0.00    -0.268 OA
ATOM     12  N   UNL     1      -0.668  11.956  22.501  0.00  0.00    -0.293 N 
ATOM     13  C   UNL     1      -0.072  11.404  21.412  0.00  0.00    +0.210 A 
ATOM     14  O   UNL     1       0.417  10.153  21.435  0.00  0.00    -0.434 OA
ATOM     15  H   UNL     1       1.080  11.177  18.360  0.00  0.00    +0.066 HD
ATOM     16  H   UNL     1      -1.355  14.957  21.037  0.00  0.00    +0.068 HD
ATOM     17  H   UNL     1      -0.759  11.439  23.365  0.00  0.00    +0.172 HD
BRANCH   8  18
ATOM     18  C   UNL     1      -0.160  13.972  18.707  0.00  0.00    +0.418 C 
ATOM     19  F   UNL     1      -0.786  13.301  17.706  0.00  0.00    -0.166 F 
ATOM     20  F   UNL     1      -0.630  15.246  18.673  0.00  0.00    -0.166 F 
ATOM     21  F   UNL     1       1.155  14.033  18.371  0.00  0.00    -0.166 F 
ENDBRANCH   8  18
ENDBRANCH   2   5
BRANCH   1  26
ATOM     22  C   UNL     1       2.930   4.905  18.068  0.00  0.00    +0.022 A 
ATOM     23  C   UNL     1       4.043   5.003  17.227  0.00  0.00    -0.051 A 
ATOM     24  C   UNL     1       4.554   6.255  16.883  0.00  0.00    -0.059 A 
ATOM     25  C   UNL     1       3.953   7.421  17.364  0.00  0.00    -0.040 A 
ATOM     26  C   UNL     1       2.828   7.351  18.184  0.00  0.00    +0.034 A 
ATOM     27  C   UNL     1       2.323   6.087  18.525  0.00  0.00    -0.030 A 
ATOM     28  H   UNL     1       4.512   4.119  16.805  0.00  0.00    +0.062 HD
ATOM     29  H   UNL     1       5.418   6.330  16.225  0.00  0.00    +0.062 HD
ATOM     30  H   UNL     1       4.385   8.370  17.060  0.00  0.00    +0.064 HD
ATOM     31  H   UNL     1       1.441   6.005  19.159  0.00  0.00    +0.064 HD
BRANCH  22  36
ATOM     32  N   UNL     1       2.961   2.623  19.182  0.00  0.00    -0.228 N 
ATOM     33  N   UNL     1       2.116   1.591  19.342  0.00  0.00    -0.044 NA
ATOM     34  N   UNL     1       0.994   1.966  18.749  0.00  0.00    -0.023 NA
ATOM     35  N   UNL     1       1.119   3.222  18.214  0.00  0.00    -0.108 NA
ATOM     36  C   UNL     1       2.357   3.620  18.456  0.00  0.00    +0.182 A 
BRANCH  32  37
ATOM     37  C   UNL     1       4.252   2.590  19.810  0.00  0.00    +0.034 C 
ATOM     38  H   UNL     1       4.709   1.611  19.648  0.00  0.00    +0.047 HD
ATOM     39  H   UNL     1       4.140   2.756  20.885  0.00  0.00    +0.047 HD
ATOM     40  H   UNL     1       4.873   3.369  19.361  0.00  0.00    +0.047 HD
ENDBRANCH  32  37
ENDBRANCH  22  36
ENDBRANCH   1  26
TORSDOF 5
ENDMDL
MODEL 26
REMARK VINA RESULT:    -7.436      4.372      9.355
REMARK INTER + INTRA:          -9.878
REMARK INTER:                  -9.735
REMARK INTRA:                  -0.143
REMARK UNBOUND:                -0.486
REMARK  Name = 
REMARK  5 active torsions:
REMARK  status: ('A' for Active; 'I' for Inactive)
REMARK    1  A    between atoms: C_1  and  N_2
REMARK    2  A    between atoms: C_6  and  C_7
REMARK    3  A    between atoms: C_11  and  N_12
REMARK    4  A    between atoms: C_13  and  C_15
REMARK    5  A    between atoms: C_18  and  C_19
REMARK                            x       y       z     vdW  Elec       q    Type
REMARK                         _______ _______ _______ _____ _____    ______ ____
ROOT
ATOM      1  N   UNL     1       2.132   6.870  19.065  0.00  0.00    -0.279 N 
ATOM      2  C   UNL     1       2.294   8.105  18.450  0.00  0.00    +0.284 C 
ATOM      3  O   UNL     1       3.266   8.411  17.765  0.00  0.00    -0.266 OA
ATOM      4  H   UNL     1       1.309   6.747  19.636  0.00  0.00    +0.155 HD
ENDROOT
BRANCH   2   5
ATOM      5  C   UNL     1       1.201   9.041  18.694  0.00  0.00    +0.193 A 
ATOM      6  C   UNL     1       0.836   9.835  19.781  0.00  0.00    -0.001 A 
ATOM      7  C   UNL     1      -0.333  10.522  19.395  0.00  0.00    +0.051 A 
ATOM      8  C   UNL     1      -1.214  11.467  19.992  0.00  0.00    +0.072 A 
ATOM      9  C   UNL     1      -2.275  11.915  19.284  0.00  0.00    +0.015 A 
ATOM     10  C   UNL     1      -2.536  11.434  17.884  0.00  0.00    +0.252 A 
ATOM     11  O   UNL     1      -3.505  11.857  17.264  0.00  0.00    -0.268 OA
ATOM     12  N   UNL     1      -1.655  10.522  17.354  0.00  0.00    -0.293 N 
ATOM     13  C   UNL     1      -0.611  10.114  18.121  0.00  0.00    +0.210 A 
ATOM     14  O   UNL     1       0.290   9.225  17.671  0.00  0.00    -0.434 OA
ATOM     15  H   UNL     1       1.350   9.903  20.730  0.00  0.00    +0.066 HD
ATOM     16  H   UNL     1      -2.987  12.635  19.673  0.00  0.00    +0.068 HD
ATOM     17  H   UNL     1      -1.785  10.165  16.417  0.00  0.00    +0.172 HD
BRANCH   8  18
ATOM     18  C   UNL     1      -0.896  11.903  21.383  0.00  0.00    +0.418 C 
ATOM     19  F   UNL     1      -0.891  10.870  22.265  0.00  0.00    -0.166 F 
ATOM     20  F   UNL     1       0.327  12.490  21.466  0.00  0.00    -0.166 F 
ATOM     21  F   UNL     1      -1.795  12.809  21.850  0.00  0.00    -0.166 F 
ENDBRANCH   8  18
ENDBRANCH   2   5
BRANCH   1  26
ATOM     22  C   UNL     1       4.732   4.592  17.724  0.00  0.00    +0.022 A 
ATOM     23  C   UNL     1       4.795   3.613  18.721  0.00  0.00    -0.051 A 
ATOM     24  C   UNL     1       3.957   3.690  19.833  0.00  0.00    -0.059 A 
ATOM     25  C   UNL     1       3.057   4.751  19.969  0.00  0.00    -0.040 A 
ATOM     26  C   UNL     1       2.992   5.752  19.002  0.00  0.00    +0.034 A 
ATOM     27  C   UNL     1       3.838   5.664  17.886  0.00  0.00    -0.030 A 
ATOM     28  H   UNL     1       5.508   2.795  18.666  0.00  0.00    +0.062 HD
ATOM     29  H   UNL     1       4.010   2.930  20.610  0.00  0.00    +0.062 HD
ATOM     30  H   UNL     1       2.433   4.769  20.858  0.00  0.00    +0.064 HD
ATOM     31  H   UNL     1       3.812   6.437  17.119  0.00  0.00    +0.064 HD
BRANCH  22  36
ATOM     32  N   UNL     1       6.654   5.376  16.260  0.00  0.00    -0.228 N 
ATOM     33  N   UNL     1       7.198   5.038  15.080  0.00  0.00    -0.044 NA
ATOM     34  N   UNL     1       6.493   4.000  14.658  0.00  0.00    -0.023 NA
ATOM     35  N   UNL     1       5.509   3.679  15.556  0.00  0.00    -0.108 NA
ATOM     36  C   UNL     1       5.588   4.557  16.542  0.00  0.00    +0.182 A 
BRANCH  32  37
ATOM     37  C   UNL     1       7.258   6.411  17.052  0.00  0.00    +0.034 C 
ATOM     38  H   UNL     1       6.559   6.725  17.832  0.00  0.00    +0.047 HD
ATOM     39  H   UNL     1       7.492   7.269  16.417  0.00  0.00    +0.047 HD
ATOM     40  H   UNL     1       8.166   6.009  17.508  0.00  0.00    +0.047 HD
ENDBRANCH  32  37
ENDBRANCH  22  36
ENDBRANCH   1  26
TORSDOF 5
ENDMDL
MODEL 27
REMARK VINA RESULT:    -7.384      4.594      9.441
REMARK INTER + INTRA:          -9.812
REMARK INTER:                  -9.679
REMARK INTRA:                  -0.133
REMARK UNBOUND:                -0.486
REMARK  Name = 
REMARK  5 active torsions:
REMARK  status: ('A' for Active; 'I' for Inactive)
REMARK    1  A    between atoms: C_1  and  N_2
REMARK    2  A    between atoms: C_6  and  C_7
REMARK    3  A    between atoms: C_11  and  N_12
REMARK    4  A    between atoms: C_13  and  C_15
REMARK    5  A    between atoms: C_18  and  C_19
REMARK                            x       y       z     vdW  Elec       q    Type
REMARK                         _______ _______ _______ _____ _____    ______ ____
ROOT
ATOM      1  N   UNL     1       1.375   8.584  18.883  0.00  0.00    -0.279 N 
ATOM      2  C   UNL     1       1.255   9.928  18.551  0.00  0.00    +0.284 C 
ATOM      3  O   UNL     1       1.991  10.511  17.760  0.00  0.00    -0.266 OA
ATOM      4  H   UNL     1       0.735   8.224  19.576  0.00  0.00    +0.155 HD
ENDROOT
BRANCH   2   5
ATOM      5  C   UNL     1       0.166  10.617  19.237  0.00  0.00    +0.193 A 
ATOM      6  C   UNL     1      -0.028  11.045  20.551  0.00  0.00    -0.001 A 
ATOM      7  C   UNL     1      -1.301  11.650  20.586  0.00  0.00    +0.051 A 
ATOM      8  C   UNL     1      -2.111  12.284  21.571  0.00  0.00    +0.072 A 
ATOM      9  C   UNL     1      -3.325  12.759  21.216  0.00  0.00    +0.015 A 
ATOM     10  C   UNL     1      -3.830  12.630  19.806  0.00  0.00    +0.252 A 
ATOM     11  O   UNL     1      -4.935  13.071  19.512  0.00  0.00    -0.268 OA
ATOM     12  N   UNL     1      -3.009  12.012  18.894  0.00  0.00    -0.293 N 
ATOM     13  C   UNL     1      -1.801  11.557  19.319  0.00  0.00    +0.210 A 
ATOM     14  O   UNL     1      -0.947  10.942  18.485  0.00  0.00    -0.434 OA
ATOM     15  H   UNL     1       0.663  10.928  21.374  0.00  0.00    +0.066 HD
ATOM     16  H   UNL     1      -3.995  13.252  21.912  0.00  0.00    +0.068 HD
ATOM     17  H   UNL     1      -3.301  11.898  17.933  0.00  0.00    +0.172 HD
BRANCH   8  18
ATOM     18  C   UNL     1      -1.548  12.378  22.950  0.00  0.00    +0.418 C 
ATOM     19  F   UNL     1      -2.429  12.907  23.837  0.00  0.00    -0.166 F 
ATOM     20  F   UNL     1      -1.188  11.162  23.438  0.00  0.00    -0.166 F 
ATOM     21  F   UNL     1      -0.437  13.159  22.992  0.00  0.00    -0.166 F 
ENDBRANCH   8  18
ENDBRANCH   2   5
BRANCH   1  26
ATOM     22  C   UNL     1       2.874   5.277  18.133  0.00  0.00    +0.022 A 
ATOM     23  C   UNL     1       4.016   5.638  17.411  0.00  0.00    -0.051 A 
ATOM     24  C   UNL     1       4.308   6.985  17.190  0.00  0.00    -0.059 A 
ATOM     25  C   UNL     1       3.459   7.983  17.675  0.00  0.00    -0.040 A 
ATOM     26  C   UNL     1       2.302   7.647  18.376  0.00  0.00    +0.034 A 
ATOM     27  C   UNL     1       2.018   6.291  18.594  0.00  0.00    -0.030 A 
ATOM     28  H   UNL     1       4.678   4.889  16.988  0.00  0.00    +0.062 HD
ATOM     29  H   UNL     1       5.196   7.265  16.625  0.00  0.00    +0.062 HD
ATOM     30  H   UNL     1       3.727   9.015  17.469  0.00  0.00    +0.064 HD
ATOM     31  H   UNL     1       1.116   6.002  19.134  0.00  0.00    +0.064 HD
BRANCH  22  36
ATOM     32  N   UNL     1       3.302   2.925  18.990  0.00  0.00    -0.228 N 
ATOM     33  N   UNL     1       2.636   1.760  19.054  0.00  0.00    -0.044 NA
ATOM     34  N   UNL     1       1.447   2.012  18.529  0.00  0.00    -0.023 NA
ATOM     35  N   UNL     1       1.354   3.321  18.132  0.00  0.00    -0.108 NA
ATOM     36  C   UNL     1       2.523   3.883  18.390  0.00  0.00    +0.182 A 
BRANCH  32  37
ATOM     37  C   UNL     1       4.605   3.032  19.584  0.00  0.00    +0.034 C 
ATOM     38  H   UNL     1       4.601   3.837  20.323  0.00  0.00    +0.047 HD
ATOM     39  H   UNL     1       5.342   3.263  18.811  0.00  0.00    +0.047 HD
ATOM     40  H   UNL     1       4.841   2.082  20.071  0.00  0.00    +0.047 HD
ENDBRANCH  32  37
ENDBRANCH  22  36
ENDBRANCH   1  26
TORSDOF 5
ENDMDL
MODEL 28
REMARK VINA RESULT:    -7.345      2.602      3.158
REMARK INTER + INTRA:          -9.762
REMARK INTER:                  -9.286
REMARK INTRA:                  -0.477
REMARK UNBOUND:                -0.486
REMARK  Name = 
REMARK  5 active torsions:
REMARK  status: ('A' for Active; 'I' for Inactive)
REMARK    1  A    between atoms: C_1  and  N_2
REMARK    2  A    between atoms: C_6  and  C_7
REMARK    3  A    between atoms: C_11  and  N_12
REMARK    4  A    between atoms: C_13  and  C_15
REMARK    5  A    between atoms: C_18  and  C_19
REMARK                            x       y       z     vdW  Elec       q    Type
REMARK                         _______ _______ _______ _____ _____    ______ ____
ROOT
ATOM      1  N   UNL     1       0.953   9.603  19.857  0.00  0.00    -0.279 N 
ATOM      2  C   UNL     1       1.400   8.725  20.836  0.00  0.00    +0.284 C 
ATOM      3  O   UNL     1       1.436   8.989  22.034  0.00  0.00    -0.266 OA
ATOM      4  H   UNL     1       1.006   9.288  18.899  0.00  0.00    +0.155 HD
ENDROOT
BRANCH   2   5
ATOM      5  C   UNL     1       1.847   7.434  20.320  0.00  0.00    +0.193 A 
ATOM      6  C   UNL     1       2.806   7.049  19.383  0.00  0.00    -0.001 A 
ATOM      7  C   UNL     1       2.759   5.642  19.323  0.00  0.00    +0.051 A 
ATOM      8  C   UNL     1       3.441   4.621  18.603  0.00  0.00    +0.072 A 
ATOM      9  C   UNL     1       3.108   3.330  18.819  0.00  0.00    +0.015 A 
ATOM     10  C   UNL     1       2.034   2.957  19.804  0.00  0.00    +0.252 A 
ATOM     11  O   UNL     1       1.753   1.777  19.982  0.00  0.00    -0.268 OA
ATOM     12  N   UNL     1       1.407   3.980  20.474  0.00  0.00    -0.293 N 
ATOM     13  C   UNL     1       1.792   5.256  20.207  0.00  0.00    +0.210 A 
ATOM     14  O   UNL     1       1.224   6.306  20.821  0.00  0.00    -0.434 OA
ATOM     15  H   UNL     1       3.451   7.707  18.816  0.00  0.00    +0.066 HD
ATOM     16  H   UNL     1       3.584   2.500  18.308  0.00  0.00    +0.068 HD
ATOM     17  H   UNL     1       0.678   3.785  21.146  0.00  0.00    +0.172 HD
BRANCH   8  18
ATOM     18  C   UNL     1       4.496   5.060  17.643  0.00  0.00    +0.418 C 
ATOM     19  F   UNL     1       5.027   4.025  16.942  0.00  0.00    -0.166 F 
ATOM     20  F   UNL     1       4.016   5.943  16.728  0.00  0.00    -0.166 F 
ATOM     21  F   UNL     1       5.531   5.676  18.272  0.00  0.00    -0.166 F 
ENDBRANCH   8  18
ENDBRANCH   2   5
BRANCH   1  26
ATOM     22  C   UNL     1      -1.238  12.296  21.158  0.00  0.00    +0.022 A 
ATOM     23  C   UNL     1      -0.703  13.427  20.533  0.00  0.00    -0.051 A 
ATOM     24  C   UNL     1       0.375  13.298  19.656  0.00  0.00    -0.059 A 
ATOM     25  C   UNL     1       0.937  12.044  19.403  0.00  0.00    -0.040 A 
ATOM     26  C   UNL     1       0.436  10.905  20.033  0.00  0.00    +0.034 A 
ATOM     27  C   UNL     1      -0.648  11.045  20.912  0.00  0.00    -0.030 A 
ATOM     28  H   UNL     1      -1.090  14.421  20.735  0.00  0.00    +0.062 HD
ATOM     29  H   UNL     1       0.793  14.180  19.173  0.00  0.00    +0.062 HD
ATOM     30  H   UNL     1       1.779  11.999  18.719  0.00  0.00    +0.064 HD
ATOM     31  H   UNL     1      -1.053  10.172  21.422  0.00  0.00    +0.064 HD
BRANCH  22  36
ATOM     32  N   UNL     1      -3.666  12.696  21.789  0.00  0.00    -0.228 N 
ATOM     33  N   UNL     1      -4.415  12.665  22.903  0.00  0.00    -0.044 NA
ATOM     34  N   UNL     1      -3.586  12.297  23.868  0.00  0.00    -0.023 NA
ATOM     35  N   UNL     1      -2.322  12.098  23.377  0.00  0.00    -0.108 NA
ATOM     36  C   UNL     1      -2.363  12.377  22.085  0.00  0.00    +0.182 A 
BRANCH  32  37
ATOM     37  C   UNL     1      -4.288  12.955  20.520  0.00  0.00    +0.034 C 
ATOM     38  H   UNL     1      -4.175  12.079  19.876  0.00  0.00    +0.047 HD
ATOM     39  H   UNL     1      -3.805  13.811  20.043  0.00  0.00    +0.047 HD
ATOM     40  H   UNL     1      -5.349  13.155  20.692  0.00  0.00    +0.047 HD
ENDBRANCH  32  37
ENDBRANCH  22  36
ENDBRANCH   1  26
TORSDOF 5
ENDMDL
MODEL 29
REMARK VINA RESULT:    -7.331      4.092      9.151
REMARK INTER + INTRA:          -9.746
REMARK INTER:                  -9.400
REMARK INTRA:                  -0.346
REMARK UNBOUND:                -0.486
REMARK  Name = 
REMARK  5 active torsions:
REMARK  status: ('A' for Active; 'I' for Inactive)
REMARK    1  A    between atoms: C_1  and  N_2
REMARK    2  A    between atoms: C_6  and  C_7
REMARK    3  A    between atoms: C_11  and  N_12
REMARK    4  A    between atoms: C_13  and  C_15
REMARK    5  A    between atoms: C_18  and  C_19
REMARK                            x       y       z     vdW  Elec       q    Type
REMARK                         _______ _______ _______ _____ _____    ______ ____
ROOT
ATOM      1  N   UNL     1       1.930   8.167  18.135  0.00  0.00    -0.279 N 
ATOM      2  C   UNL     1       1.489   8.591  19.382  0.00  0.00    +0.284 C 
ATOM      3  O   UNL     1       1.975   8.222  20.447  0.00  0.00    -0.266 OA
ATOM      4  H   UNL     1       1.427   8.510  17.330  0.00  0.00    +0.155 HD
ENDROOT
BRANCH   2   5
ATOM      5  C   UNL     1       0.368   9.524  19.332  0.00  0.00    +0.193 A 
ATOM      6  C   UNL     1      -0.623   9.792  18.388  0.00  0.00    -0.001 A 
ATOM      7  C   UNL     1      -1.421  10.819  18.931  0.00  0.00    +0.051 A 
ATOM      8  C   UNL     1      -2.570  11.554  18.521  0.00  0.00    +0.072 A 
ATOM      9  C   UNL     1      -3.071  12.501  19.344  0.00  0.00    +0.015 A 
ATOM     10  C   UNL     1      -2.439  12.790  20.677  0.00  0.00    +0.252 A 
ATOM     11  O   UNL     1      -2.915  13.654  21.404  0.00  0.00    -0.268 OA
ATOM     12  N   UNL     1      -1.333  12.051  21.025  0.00  0.00    -0.293 N 
ATOM     13  C   UNL     1      -0.882  11.115  20.150  0.00  0.00    +0.210 A 
ATOM     14  O   UNL     1       0.193  10.357  20.421  0.00  0.00    -0.434 OA
ATOM     15  H   UNL     1      -0.746   9.307  17.429  0.00  0.00    +0.066 HD
ATOM     16  H   UNL     1      -3.942  13.099  19.099  0.00  0.00    +0.068 HD
ATOM     17  H   UNL     1      -0.869  12.206  21.910  0.00  0.00    +0.172 HD
BRANCH   8  18
ATOM     18  C   UNL     1      -3.147  11.217  17.187  0.00  0.00    +0.418 C 
ATOM     19  F   UNL     1      -2.269  11.423  16.172  0.00  0.00    -0.166 F 
ATOM     20  F   UNL     1      -3.530   9.915  17.112  0.00  0.00    -0.166 F 
ATOM     21  F   UNL     1      -4.248  11.963  16.907  0.00  0.00    -0.166 F 
ENDBRANCH   8  18
ENDBRANCH   2   5
BRANCH   1  26
ATOM     22  C   UNL     1       3.847   4.997  17.969  0.00  0.00    +0.022 A 
ATOM     23  C   UNL     1       5.018   5.405  17.323  0.00  0.00    -0.051 A 
ATOM     24  C   UNL     1       5.189   6.742  16.960  0.00  0.00    -0.059 A 
ATOM     25  C   UNL     1       4.189   7.681  17.226  0.00  0.00    -0.040 A 
ATOM     26  C   UNL     1       3.002   7.294  17.847  0.00  0.00    +0.034 A 
ATOM     27  C   UNL     1       2.841   5.949  18.209  0.00  0.00    -0.030 A 
ATOM     28  H   UNL     1       5.800   4.696  17.068  0.00  0.00    +0.062 HD
ATOM     29  H   UNL     1       6.100   7.058  16.454  0.00  0.00    +0.062 HD
ATOM     30  H   UNL     1       4.368   8.706  16.916  0.00  0.00    +0.064 HD
ATOM     31  H   UNL     1       1.920   5.619  18.689  0.00  0.00    +0.064 HD
BRANCH  22  36
ATOM     32  N   UNL     1       3.098   3.161  19.556  0.00  0.00    -0.228 N 
ATOM     33  N   UNL     1       3.037   1.819  19.555  0.00  0.00    -0.044 NA
ATOM     34  N   UNL     1       3.484   1.452  18.364  0.00  0.00    -0.023 NA
ATOM     35  N   UNL     1       3.830   2.546  17.613  0.00  0.00    -0.108 NA
ATOM     36  C   UNL     1       3.619   3.611  18.367  0.00  0.00    +0.182 A 
BRANCH  32  37
ATOM     37  C   UNL     1       2.576   3.896  20.673  0.00  0.00    +0.034 C 
ATOM     38  H   UNL     1       2.718   4.966  20.501  0.00  0.00    +0.047 HD
ATOM     39  H   UNL     1       3.109   3.609  21.582  0.00  0.00    +0.047 HD
ATOM     40  H   UNL     1       1.510   3.673  20.763  0.00  0.00    +0.047 HD
ENDBRANCH  32  37
ENDBRANCH  22  36
ENDBRANCH   1  26
TORSDOF 5
ENDMDL
MODEL 30
REMARK VINA RESULT:    -7.283      4.847      9.376
REMARK INTER + INTRA:          -9.684
REMARK INTER:                  -9.562
REMARK INTRA:                  -0.122
REMARK UNBOUND:                -0.486
REMARK  Name = 
REMARK  5 active torsions:
REMARK  status: ('A' for Active; 'I' for Inactive)
REMARK    1  A    between atoms: C_1  and  N_2
REMARK    2  A    between atoms: C_6  and  C_7
REMARK    3  A    between atoms: C_11  and  N_12
REMARK    4  A    between atoms: C_13  and  C_15
REMARK    5  A    between atoms: C_18  and  C_19
REMARK                            x       y       z     vdW  Elec       q    Type
REMARK                         _______ _______ _______ _____ _____    ______ ____
ROOT
ATOM      1  N   UNL     1       2.129   8.450  18.606  0.00  0.00    -0.279 N 
ATOM      2  C   UNL     1       1.603   8.663  19.875  0.00  0.00    +0.284 C 
ATOM      3  O   UNL     1       1.659   7.847  20.790  0.00  0.00    -0.266 OA
ATOM      4  H   UNL     1       1.987   9.179  17.923  0.00  0.00    +0.155 HD
ENDROOT
BRANCH   2   5
ATOM      5  C   UNL     1       0.950   9.958  20.039  0.00  0.00    +0.193 A 
ATOM      6  C   UNL     1       0.093  10.491  21.003  0.00  0.00    -0.001 A 
ATOM      7  C   UNL     1      -0.196  11.808  20.592  0.00  0.00    +0.051 A 
ATOM      8  C   UNL     1      -0.976  12.891  21.087  0.00  0.00    +0.072 A 
ATOM      9  C   UNL     1      -1.013  14.047  20.388  0.00  0.00    +0.015 A 
ATOM     10  C   UNL     1      -0.245  14.207  19.105  0.00  0.00    +0.252 A 
ATOM     11  O   UNL     1      -0.295  15.267  18.493  0.00  0.00    -0.268 OA
ATOM     12  N   UNL     1       0.494  13.131  18.672  0.00  0.00    -0.293 N 
ATOM     13  C   UNL     1       0.485  11.999  19.424  0.00  0.00    +0.210 A 
ATOM     14  O   UNL     1       1.181  10.909  19.063  0.00  0.00    -0.434 OA
ATOM     15  H   UNL     1      -0.275   9.986  21.887  0.00  0.00    +0.066 HD
ATOM     16  H   UNL     1      -1.584  14.913  20.704  0.00  0.00    +0.068 HD
ATOM     17  H   UNL     1       1.027  13.185  17.816  0.00  0.00    +0.172 HD
BRANCH   8  18
ATOM     18  C   UNL     1      -1.712  12.665  22.365  0.00  0.00    +0.418 C 
ATOM     19  F   UNL     1      -2.889  12.013  22.181  0.00  0.00    -0.166 F 
ATOM     20  F   UNL     1      -0.990  11.922  23.245  0.00  0.00    -0.166 F 
ATOM     21  F   UNL     1      -2.009  13.833  22.993  0.00  0.00    -0.166 F 
ENDBRANCH   8  18
ENDBRANCH   2   5
BRANCH   1  26
ATOM     22  C   UNL     1       2.956   4.873  18.084  0.00  0.00    +0.022 A 
ATOM     23  C   UNL     1       4.097   4.959  17.281  0.00  0.00    -0.051 A 
ATOM     24  C   UNL     1       4.614   6.206  16.928  0.00  0.00    -0.059 A 
ATOM     25  C   UNL     1       3.991   7.379  17.362  0.00  0.00    -0.040 A 
ATOM     26  C   UNL     1       2.838   7.320  18.142  0.00  0.00    +0.034 A 
ATOM     27  C   UNL     1       2.327   6.062  18.493  0.00  0.00    -0.030 A 
ATOM     28  H   UNL     1       4.585   4.068  16.896  0.00  0.00    +0.062 HD
ATOM     29  H   UNL     1       5.501   6.271  16.300  0.00  0.00    +0.062 HD
ATOM     30  H   UNL     1       4.428   8.324  17.052  0.00  0.00    +0.064 HD
ATOM     31  H   UNL     1       1.423   5.988  19.097  0.00  0.00    +0.064 HD
BRANCH  22  36
ATOM     32  N   UNL     1       2.978   2.591  19.198  0.00  0.00    -0.228 N 
ATOM     33  N   UNL     1       2.126   1.567  19.369  0.00  0.00    -0.044 NA
ATOM     34  N   UNL     1       1.000   1.953  18.791  0.00  0.00    -0.023 NA
ATOM     35  N   UNL     1       1.130   3.208  18.253  0.00  0.00    -0.108 NA
ATOM     36  C   UNL     1       2.375   3.594  18.480  0.00  0.00    +0.182 A 
BRANCH  32  37
ATOM     37  C   UNL     1       4.277   2.546  19.810  0.00  0.00    +0.034 C 
ATOM     38  H   UNL     1       4.760   1.597  19.565  0.00  0.00    +0.047 HD
ATOM     39  H   UNL     1       4.173   2.621  20.895  0.00  0.00    +0.047 HD
ATOM     40  H   UNL     1       4.870   3.377  19.420  0.00  0.00    +0.047 HD
ENDBRANCH  32  37
ENDBRANCH  22  36
ENDBRANCH   1  26
TORSDOF 5
ENDMDL
MODEL 31
REMARK VINA RESULT:    -7.248      4.817      9.537
REMARK INTER + INTRA:          -9.640
REMARK INTER:                  -9.154
REMARK INTRA:                  -0.486
REMARK UNBOUND:                -0.486
REMARK  Name = 
REMARK  5 active torsions:
REMARK  status: ('A' for Active; 'I' for Inactive)
REMARK    1  A    between atoms: C_1  and  N_2
REMARK    2  A    between atoms: C_6  and  C_7
REMARK    3  A    between atoms: C_11  and  N_12
REMARK    4  A    between atoms: C_13  and  C_15
REMARK    5  A    between atoms: C_18  and  C_19
REMARK                            x       y       z     vdW  Elec       q    Type
REMARK                         _______ _______ _______ _____ _____    ______ ____
ROOT
ATOM      1  N   UNL     1       2.048   7.445  18.452  0.00  0.00    -0.279 N 
ATOM      2  C   UNL     1       1.637   8.006  19.654  0.00  0.00    +0.284 C 
ATOM      3  O   UNL     1       1.639   7.412  20.728  0.00  0.00    -0.266 OA
ATOM      4  H   UNL     1       1.964   8.019  17.626  0.00  0.00    +0.155 HD
ENDROOT
BRANCH   2   5
ATOM      5  C   UNL     1       1.178   9.387  19.541  0.00  0.00    +0.193 A 
ATOM      6  C   UNL     1      -0.020  10.034  19.846  0.00  0.00    -0.001 A 
ATOM      7  C   UNL     1       0.163  11.389  19.503  0.00  0.00    +0.051 A 
ATOM      8  C   UNL     1      -0.623  12.575  19.547  0.00  0.00    +0.072 A 
ATOM      9  C   UNL     1      -0.085  13.736  19.112  0.00  0.00    +0.015 A 
ATOM     10  C   UNL     1       1.322  13.793  18.585  0.00  0.00    +0.252 A 
ATOM     11  O   UNL     1       1.785  14.860  18.197  0.00  0.00    -0.268 OA
ATOM     12  N   UNL     1       2.038  12.620  18.564  0.00  0.00    -0.293 N 
ATOM     13  C   UNL     1       1.435  11.490  19.016  0.00  0.00    +0.210 A 
ATOM     14  O   UNL     1       2.071  10.307  19.025  0.00  0.00    -0.434 OA
ATOM     15  H   UNL     1      -0.910   9.578  20.259  0.00  0.00    +0.066 HD
ATOM     16  H   UNL     1      -0.624  14.677  19.117  0.00  0.00    +0.068 HD
ATOM     17  H   UNL     1       2.987  12.603  18.218  0.00  0.00    +0.172 HD
BRANCH   8  18
ATOM     18  C   UNL     1      -2.010  12.447  20.083  0.00  0.00    +0.418 C 
ATOM     19  F   UNL     1      -2.798  11.660  19.306  0.00  0.00    -0.166 F 
ATOM     20  F   UNL     1      -2.028  11.906  21.329  0.00  0.00    -0.166 F 
ATOM     21  F   UNL     1      -2.633  13.652  20.172  0.00  0.00    -0.166 F 
ENDBRANCH   8  18
ENDBRANCH   2   5
BRANCH   1  26
ATOM     22  C   UNL     1       4.265   4.800  17.096  0.00  0.00    +0.022 A 
ATOM     23  C   UNL     1       3.748   3.654  17.707  0.00  0.00    -0.051 A 
ATOM     24  C   UNL     1       2.645   3.749  18.556  0.00  0.00    -0.059 A 
ATOM     25  C   UNL     1       2.053   4.989  18.812  0.00  0.00    -0.040 A 
ATOM     26  C   UNL     1       2.565   6.149  18.233  0.00  0.00    +0.034 A 
ATOM     27  C   UNL     1       3.674   6.042  17.381  0.00  0.00    -0.030 A 
ATOM     28  H   UNL     1       4.206   2.679  17.560  0.00  0.00    +0.062 HD
ATOM     29  H   UNL     1       2.246   2.856  19.034  0.00  0.00    +0.062 HD
ATOM     30  H   UNL     1       1.202   5.009  19.486  0.00  0.00    +0.064 HD
ATOM     31  H   UNL     1       4.097   6.935  16.922  0.00  0.00    +0.064 HD
BRANCH  22  36
ATOM     32  N   UNL     1       6.746   4.774  16.553  0.00  0.00    -0.228 N 
ATOM     33  N   UNL     1       7.516   4.714  15.453  0.00  0.00    -0.044 NA
ATOM     34  N   UNL     1       6.668   4.624  14.441  0.00  0.00    -0.023 NA
ATOM     35  N   UNL     1       5.371   4.629  14.886  0.00  0.00    -0.108 NA
ATOM     36  C   UNL     1       5.418   4.754  16.202  0.00  0.00    +0.182 A 
BRANCH  32  37
ATOM     37  C   UNL     1       7.358   4.766  17.851  0.00  0.00    +0.034 C 
ATOM     38  H   UNL     1       8.427   4.972  17.750  0.00  0.00    +0.047 HD
ATOM     39  H   UNL     1       7.229   3.783  18.311  0.00  0.00    +0.047 HD
ATOM     40  H   UNL     1       6.887   5.542  18.459  0.00  0.00    +0.047 HD
ENDBRANCH  32  37
ENDBRANCH  22  36
ENDBRANCH   1  26
TORSDOF 5
ENDMDL
MODEL 32
REMARK VINA RESULT:    -7.232      4.375      9.468
REMARK INTER + INTRA:          -9.620
REMARK INTER:                  -9.491
REMARK INTRA:                  -0.129
REMARK UNBOUND:                -0.486
REMARK  Name = 
REMARK  5 active torsions:
REMARK  status: ('A' for Active; 'I' for Inactive)
REMARK    1  A    between atoms: C_1  and  N_2
REMARK    2  A    between atoms: C_6  and  C_7
REMARK    3  A    between atoms: C_11  and  N_12
REMARK    4  A    between atoms: C_13  and  C_15
REMARK    5  A    between atoms: C_18  and  C_19
REMARK                            x       y       z     vdW  Elec       q    Type
REMARK                         _______ _______ _______ _____ _____    ______ ____
ROOT
ATOM      1  N   UNL     1       1.695   7.101  19.698  0.00  0.00    -0.279 N 
ATOM      2  C   UNL     1       1.910   8.198  18.873  0.00  0.00    +0.284 C 
ATOM      3  O   UNL     1       2.819   8.275  18.052  0.00  0.00    -0.266 OA
ATOM      4  H   UNL     1       0.938   7.168  20.362  0.00  0.00    +0.155 HD
ENDROOT
BRANCH   2   5
ATOM      5  C   UNL     1       0.957   9.286  19.068  0.00  0.00    +0.193 A 
ATOM      6  C   UNL     1      -0.227   9.658  18.430  0.00  0.00    -0.001 A 
ATOM      7  C   UNL     1      -0.685  10.816  19.089  0.00  0.00    +0.051 A 
ATOM      8  C   UNL     1      -1.797  11.697  18.966  0.00  0.00    +0.072 A 
ATOM      9  C   UNL     1      -1.903  12.744  19.813  0.00  0.00    +0.015 A 
ATOM     10  C   UNL     1      -0.870  12.993  20.878  0.00  0.00    +0.252 A 
ATOM     11  O   UNL     1      -0.991  13.950  21.633  0.00  0.00    -0.268 OA
ATOM     12  N   UNL     1       0.183  12.112  20.955  0.00  0.00    -0.293 N 
ATOM     13  C   UNL     1       0.226  11.081  20.071  0.00  0.00    +0.210 A 
ATOM     14  O   UNL     1       1.224  10.183  20.085  0.00  0.00    -0.434 OA
ATOM     15  H   UNL     1      -0.692   9.155  17.593  0.00  0.00    +0.066 HD
ATOM     16  H   UNL     1      -2.721  13.455  19.779  0.00  0.00    +0.068 HD
ATOM     17  H   UNL     1       0.905  12.234  21.651  0.00  0.00    +0.172 HD
BRANCH   8  18
ATOM     18  C   UNL     1      -2.785  11.392  17.889  0.00  0.00    +0.418 C 
ATOM     19  F   UNL     1      -3.882  12.191  17.947  0.00  0.00    -0.166 F 
ATOM     20  F   UNL     1      -2.252  11.552  16.650  0.00  0.00    -0.166 F 
ATOM     21  F   UNL     1      -3.232  10.111  17.959  0.00  0.00    -0.166 F 
ENDBRANCH   8  18
ENDBRANCH   2   5
BRANCH   1  26
ATOM     22  C   UNL     1       4.544   4.773  19.235  0.00  0.00    +0.022 A 
ATOM     23  C   UNL     1       4.027   3.583  19.754  0.00  0.00    -0.051 A 
ATOM     24  C   UNL     1       2.720   3.539  20.240  0.00  0.00    -0.059 A 
ATOM     25  C   UNL     1       1.920   4.685  20.224  0.00  0.00    -0.040 A 
ATOM     26  C   UNL     1       2.421   5.890  19.733  0.00  0.00    +0.034 A 
ATOM     27  C   UNL     1       3.736   5.923  19.246  0.00  0.00    -0.030 A 
ATOM     28  H   UNL     1       4.633   2.683  19.817  0.00  0.00    +0.062 HD
ATOM     29  H   UNL     1       2.320   2.612  20.648  0.00  0.00    +0.062 HD
ATOM     30  H   UNL     1       0.913   4.600  20.621  0.00  0.00    +0.064 HD
ATOM     31  H   UNL     1       4.153   6.854  18.864  0.00  0.00    +0.064 HD
BRANCH  22  36
ATOM     32  N   UNL     1       6.347   4.522  17.464  0.00  0.00    -0.228 N 
ATOM     33  N   UNL     1       7.665   4.759  17.355  0.00  0.00    -0.044 NA
ATOM     34  N   UNL     1       8.020   5.281  18.519  0.00  0.00    -0.023 NA
ATOM     35  N   UNL     1       6.944   5.374  19.362  0.00  0.00    -0.108 NA
ATOM     36  C   UNL     1       5.905   4.872  18.716  0.00  0.00    +0.182 A 
BRANCH  32  37
ATOM     37  C   UNL     1       5.613   4.051  16.323  0.00  0.00    +0.034 C 
ATOM     38  H   UNL     1       5.244   3.042  16.521  0.00  0.00    +0.047 HD
ATOM     39  H   UNL     1       6.270   4.025  15.450  0.00  0.00    +0.047 HD
ATOM     40  H   UNL     1       4.771   4.727  16.153  0.00  0.00    +0.047 HD
ENDBRANCH  32  37
ENDBRANCH  22  36
ENDBRANCH   1  26
TORSDOF 5
ENDMDL
MODEL 33
REMARK VINA RESULT:    -7.200      3.797      9.184
REMARK INTER + INTRA:          -9.580
REMARK INTER:                  -9.139
REMARK INTRA:                  -0.441
REMARK UNBOUND:                -0.486
REMARK  Name = 
REMARK  5 active torsions:
REMARK  status: ('A' for Active; 'I' for Inactive)
REMARK    1  A    between atoms: C_1  and  N_2
REMARK    2  A    between atoms: C_6  and  C_7
REMARK    3  A    between atoms: C_11  and  N_12
REMARK    4  A    between atoms: C_13  and  C_15
REMARK    5  A    between atoms: C_18  and  C_19
REMARK                            x       y       z     vdW  Elec       q    Type
REMARK                         _______ _______ _______ _____ _____    ______ ____
ROOT
ATOM      1  N   UNL     1       2.149   7.459  18.511  0.00  0.00    -0.279 N 
ATOM      2  C   UNL     1       1.674   7.982  19.707  0.00  0.00    +0.284 C 
ATOM      3  O   UNL     1       1.614   7.352  20.759  0.00  0.00    -0.266 OA
ATOM      4  H   UNL     1       2.114   8.061  17.702  0.00  0.00    +0.155 HD
ENDROOT
BRANCH   2   5
ATOM      5  C   UNL     1       1.229   9.369  19.617  0.00  0.00    +0.193 A 
ATOM      6  C   UNL     1       1.816  10.542  19.142  0.00  0.00    -0.001 A 
ATOM      7  C   UNL     1       0.868  11.566  19.334  0.00  0.00    +0.051 A 
ATOM      8  C   UNL     1       0.802  12.966  19.085  0.00  0.00    +0.072 A 
ATOM      9  C   UNL     1      -0.319  13.641  19.420  0.00  0.00    +0.015 A 
ATOM     10  C   UNL     1      -1.492  12.941  20.048  0.00  0.00    +0.252 A 
ATOM     11  O   UNL     1      -2.497  13.578  20.342  0.00  0.00    -0.268 OA
ATOM     12  N   UNL     1      -1.378  11.589  20.267  0.00  0.00    -0.293 N 
ATOM     13  C   UNL     1      -0.222  10.973  19.906  0.00  0.00    +0.210 A 
ATOM     14  O   UNL     1      -0.038   9.656  20.090  0.00  0.00    -0.434 OA
ATOM     15  H   UNL     1       2.806  10.639  18.716  0.00  0.00    +0.066 HD
ATOM     16  H   UNL     1      -0.441  14.707  19.259  0.00  0.00    +0.068 HD
ATOM     17  H   UNL     1      -2.136  11.070  20.688  0.00  0.00    +0.172 HD
BRANCH   8  18
ATOM     18  C   UNL     1       2.000  13.598  18.458  0.00  0.00    +0.418 C 
ATOM     19  F   UNL     1       2.355  13.000  17.291  0.00  0.00    -0.166 F 
ATOM     20  F   UNL     1       1.795  14.911  18.176  0.00  0.00    -0.166 F 
ATOM     21  F   UNL     1       3.088  13.540  19.271  0.00  0.00    -0.166 F 
ENDBRANCH   8  18
ENDBRANCH   2   5
BRANCH   1  26
ATOM     22  C   UNL     1       4.356   4.836  17.097  0.00  0.00    +0.022 A 
ATOM     23  C   UNL     1       3.863   3.684  17.719  0.00  0.00    -0.051 A 
ATOM     24  C   UNL     1       2.779   3.768  18.593  0.00  0.00    -0.059 A 
ATOM     25  C   UNL     1       2.184   5.002  18.866  0.00  0.00    -0.040 A 
ATOM     26  C   UNL     1       2.672   6.168  18.278  0.00  0.00    +0.034 A 
ATOM     27  C   UNL     1       3.761   6.072  17.400  0.00  0.00    -0.030 A 
ATOM     28  H   UNL     1       4.325   2.714  17.559  0.00  0.00    +0.062 HD
ATOM     29  H   UNL     1       2.400   2.870  19.079  0.00  0.00    +0.062 HD
ATOM     30  H   UNL     1       1.348   5.014  19.560  0.00  0.00    +0.064 HD
ATOM     31  H   UNL     1       4.165   6.970  16.932  0.00  0.00    +0.064 HD
BRANCH  22  36
ATOM     32  N   UNL     1       6.823   4.801  16.497  0.00  0.00    -0.228 N 
ATOM     33  N   UNL     1       7.567   4.761  15.379  0.00  0.00    -0.044 NA
ATOM     34  N   UNL     1       6.695   4.703  14.385  0.00  0.00    -0.023 NA
ATOM     35  N   UNL     1       5.409   4.708  14.859  0.00  0.00    -0.108 NA
ATOM     36  C   UNL     1       5.488   4.802  16.176  0.00  0.00    +0.182 A 
BRANCH  32  37
ATOM     37  C   UNL     1       7.465   4.756  17.781  0.00  0.00    +0.034 C 
ATOM     38  H   UNL     1       7.329   5.716  18.287  0.00  0.00    +0.047 HD
ATOM     39  H   UNL     1       8.534   4.572  17.649  0.00  0.00    +0.047 HD
ATOM     40  H   UNL     1       7.004   3.958  18.368  0.00  0.00    +0.047 HD
ENDBRANCH  32  37
ENDBRANCH  22  36
ENDBRANCH   1  26
TORSDOF 5
ENDMDL
