MODEL 1
REMARK VINA RESULT:    -9.747      0.000      0.000
REMARK INTER + INTRA:         -13.321
REMARK INTER:                 -12.369
REMARK INTRA:                  -0.952
REMARK UNBOUND:                 0.984
REMARK  Name = 
REMARK  10 active torsions:
REMARK  status: ('A' for Active; 'I' for Inactive)
REMARK    1  A    between atoms: C_1  and  C_2
REMARK    2  A    between atoms: C_4  and  O_38
REMARK    3  A    between atoms: C_7  and  C_9
REMARK    4  A    between atoms: N_14  and  C_17
REMARK    5  A    between atoms: C_21  and  C_23
REMARK    6  A    between atoms: C_23  and  C_24
REMARK    7  A    between atoms: C_23  and  C_25
REMARK    8  A    between atoms: C_25  and  C_26
REMARK    9  A    between atoms: C_27  and  C_31
REMARK   10  A    between atoms: C_32  and  C_34
REMARK                            x       y       z     vdW  Elec       q    Type
REMARK                         _______ _______ _______ _____ _____    ______ ____
ROOT
ATOM      1  C   UNL     1       3.714   4.255  17.975  0.00  0.00    +0.038 A 
ATOM      2  C   UNL     1       3.411   5.607  17.811  0.00  0.00    -0.037 A 
ATOM      3  C   UNL     1       2.704   6.214  18.829  0.00  0.00    +0.043 A 
ATOM      4  C   UNL     1       2.330   5.546  19.997  0.00  0.00    -0.008 A 
ATOM      5  C   UNL     1       1.580   6.493  20.880  0.00  0.00    +0.046 C 
ATOM      6  N   UNL     1       1.537   7.729  20.112  0.00  0.00    -0.263 N 
ATOM      7  C   UNL     1       2.187   7.586  18.881  0.00  0.00    +0.251 C 
ATOM      8  O   UNL     1       2.331   8.357  17.953  0.00  0.00    -0.270 OA
ATOM      9  C   UNL     1       2.651   4.197  20.199  0.00  0.00    +0.043 A 
ATOM     10  C   UNL     1       3.350   3.560  19.151  0.00  0.00    -0.039 A 
ATOM     11  H   UNL     1       3.698   6.156  16.919  0.00  0.00    +0.063 HD
ATOM     12  H   UNL     1       2.125   6.662  21.815  0.00  0.00    +0.052 HD
ATOM     13  H   UNL     1       0.560   6.134  21.059  0.00  0.00    +0.052 HD
ATOM     14  H   UNL     1       3.629   2.506  19.228  0.00  0.00    +0.063 HD
ENDROOT
BRANCH   1  20
ATOM     15  C   UNL     1       6.414   5.303  17.006  0.00  0.00    +0.026 C 
ATOM     16  C   UNL     1       7.600   5.471  16.037  0.00  0.00    -0.007 C 
ATOM     17  C   UNL     1       7.093   4.855  14.742  0.00  0.00    +0.073 C 
ATOM     18  C   UNL     1       6.274   3.666  15.246  0.00  0.00    +0.041 C 
ATOM     19  N   UNL     1       5.675   4.144  16.483  0.00  0.00    -0.292 N 
ATOM     20  C   UNL     1       4.497   3.575  16.926  0.00  0.00    +0.247 C 
ATOM     21  O   UNL     1       4.032   2.539  16.460  0.00  0.00    -0.270 OA
ATOM     22  H   UNL     1       5.764   6.181  16.944  0.00  0.00    +0.050 HD
ATOM     23  H   UNL     1       8.480   4.916  16.390  0.00  0.00    +0.031 HD
ATOM     24  H   UNL     1       7.880   6.525  15.933  0.00  0.00    +0.031 HD
ATOM     25  H   UNL     1       7.895   4.557  14.060  0.00  0.00    +0.061 HD
ATOM     26  H   UNL     1       6.916   2.815  15.503  0.00  0.00    +0.049 HD
ATOM     27  H   UNL     1       5.503   3.350  14.536  0.00  0.00    +0.049 HD
BRANCH  15  28
ATOM     28  C   UNL     1       6.913   5.119  18.436  0.00  0.00    -0.046 C 
ATOM     29  H   UNL     1       8.008   5.157  18.483  0.00  0.00    +0.025 HD
ATOM     30  H   UNL     1       6.606   4.160  18.860  0.00  0.00    +0.025 HD
ATOM     31  H   UNL     1       6.515   5.909  19.083  0.00  0.00    +0.025 HD
ENDBRANCH  15  28
BRANCH  17  32
ATOM     32  O   UNL     1       6.271   5.811  14.070  0.00  0.00    -0.390 OA
ATOM     33  H   UNL     1       5.595   5.317  13.572  0.00  0.00    +0.210 HD
ENDBRANCH  17  32
ENDBRANCH   1  20
BRANCH   6  34
ATOM     34  C   UNL     1       0.888   8.898  20.598  0.00  0.00    +0.037 A 
ATOM     35  C   UNL     1       0.724   9.107  21.976  0.00  0.00    -0.040 A 
ATOM     36  C   UNL     1       0.114  10.265  22.465  0.00  0.00    -0.060 A 
ATOM     37  C   UNL     1      -0.350  11.239  21.587  0.00  0.00    -0.058 A 
ATOM     38  C   UNL     1      -0.219  11.059  20.206  0.00  0.00    -0.042 A 
ATOM     39  C   UNL     1       0.402   9.887  19.732  0.00  0.00    -0.037 A 
ATOM     40  H   UNL     1       1.072   8.387  22.711  0.00  0.00    +0.064 HD
ATOM     41  H   UNL     1       0.008  10.409  23.539  0.00  0.00    +0.062 HD
ATOM     42  H   UNL     1      -0.815  12.136  21.992  0.00  0.00    +0.062 HD
ATOM     43  H   UNL     1       0.494   9.767  18.657  0.00  0.00    +0.064 HD
BRANCH  38  44
ATOM     44  C   UNL     1      -0.694  12.107  19.209  0.00  0.00    -0.013 C 
ATOM     45  H   UNL     1      -0.260  11.872  18.227  0.00  0.00    +0.035 HD
BRANCH  44  46
ATOM     46  C   UNL     1      -0.160  13.490  19.605  0.00  0.00    -0.058 C 
ATOM     47  H   UNL     1      -0.734  13.905  20.440  0.00  0.00    +0.024 HD
ATOM     48  H   UNL     1      -0.228  14.193  18.767  0.00  0.00    +0.024 HD
ATOM     49  H   UNL     1       0.891  13.443  19.916  0.00  0.00    +0.024 HD
ENDBRANCH  44  46
BRANCH  44  50
ATOM     50  C   UNL     1      -2.229  12.160  19.042  0.00  0.00    -0.004 C 
ATOM     51  H   UNL     1      -2.554  13.210  19.042  0.00  0.00    +0.033 HD
ATOM     52  H   UNL     1      -2.731  11.697  19.901  0.00  0.00    +0.033 HD
BRANCH  50  53
ATOM     53  C   UNL     1      -2.714  11.527  17.775  0.00  0.00    +0.040 A 
ATOM     54  C   UNL     1      -3.927  10.960  17.420  0.00  0.00    -0.010 A 
ATOM     55  C   UNL     1      -3.745  10.571  16.072  0.00  0.00    +0.052 A 
ATOM     56  N   UNL     1      -2.531  10.864  15.608  0.00  0.00    -0.182 NA
ATOM     57  N   UNL     1      -1.920  11.428  16.662  0.00  0.00    -0.281 N 
ATOM     58  H   UNL     1      -4.455  10.089  15.411  0.00  0.00    +0.085 HD
ATOM     59  H   UNL     1      -0.959  11.734  16.547  0.00  0.00    +0.189 HD
BRANCH  54  60
ATOM     60  C   UNL     1      -5.147  10.786  18.238  0.00  0.00    -0.037 C 
ATOM     61  H   UNL     1      -6.019  10.576  17.611  0.00  0.00    +0.028 HD
ATOM     62  H   UNL     1      -5.029   9.950  18.935  0.00  0.00    +0.028 HD
ATOM     63  H   UNL     1      -5.346  11.692  18.819  0.00  0.00    +0.028 HD
ENDBRANCH  54  60
ENDBRANCH  50  53
ENDBRANCH  44  50
ENDBRANCH  38  44
ENDBRANCH   6  34
BRANCH   9  64
ATOM     64  C   UNL     1       2.173   3.479  21.446  0.00  0.00    +0.349 C 
ATOM     65  F   UNL     1       0.828   3.252  21.385  0.00  0.00    -0.183 F 
ATOM     66  F   UNL     1       2.357   4.235  22.571  0.00  0.00    -0.183 F 
ATOM     67 CL   UNL     1       2.985   1.918  21.730  0.00  0.00    -0.042 Cl
ENDBRANCH   9  64
TORSDOF 10
ENDMDL
MODEL 2
REMARK VINA RESULT:    -9.271      2.749      8.920
REMARK INTER + INTRA:         -12.623
REMARK INTER:                 -11.226
REMARK INTRA:                  -1.397
REMARK UNBOUND:                 0.984
REMARK  Name = 
REMARK  10 active torsions:
REMARK  status: ('A' for Active; 'I' for Inactive)
REMARK    1  A    between atoms: C_1  and  C_2
REMARK    2  A    between atoms: C_4  and  O_38
REMARK    3  A    between atoms: C_7  and  C_9
REMARK    4  A    between atoms: N_14  and  C_17
REMARK    5  A    between atoms: C_21  and  C_23
REMARK    6  A    between atoms: C_23  and  C_24
REMARK    7  A    between atoms: C_23  and  C_25
REMARK    8  A    between atoms: C_25  and  C_26
REMARK    9  A    between atoms: C_27  and  C_31
REMARK   10  A    between atoms: C_32  and  C_34
REMARK                            x       y       z     vdW  Elec       q    Type
REMARK                         _______ _______ _______ _____ _____    ______ ____
ROOT
ATOM      1  C   UNL     1      -0.477  10.480  18.609  0.00  0.00    +0.038 A 
ATOM      2  C   UNL     1       0.354   9.585  17.934  0.00  0.00    -0.037 A 
ATOM      3  C   UNL     1       1.047   8.675  18.707  0.00  0.00    +0.043 A 
ATOM      4  C   UNL     1       0.915   8.602  20.095  0.00  0.00    -0.008 A 
ATOM      5  C   UNL     1       1.804   7.516  20.612  0.00  0.00    +0.046 C 
ATOM      6  N   UNL     1       2.462   7.004  19.418  0.00  0.00    -0.263 N 
ATOM      7  C   UNL     1       2.040   7.687  18.273  0.00  0.00    +0.251 C 
ATOM      8  O   UNL     1       2.377   7.591  17.109  0.00  0.00    -0.270 OA
ATOM      9  C   UNL     1       0.062   9.468  20.793  0.00  0.00    +0.043 A 
ATOM     10  C   UNL     1      -0.630  10.421  20.014  0.00  0.00    -0.039 A 
ATOM     11  H   UNL     1       0.468   9.609  16.855  0.00  0.00    +0.063 HD
ATOM     12  H   UNL     1       1.210   6.718  21.072  0.00  0.00    +0.052 HD
ATOM     13  H   UNL     1       2.553   7.920  21.302  0.00  0.00    +0.052 HD
ATOM     14  H   UNL     1      -1.308  11.139  20.484  0.00  0.00    +0.063 HD
ENDROOT
BRANCH   1  20
ATOM     15  C   UNL     1      -2.968   9.674  17.036  0.00  0.00    +0.026 C 
ATOM     16  C   UNL     1      -4.060   9.798  15.957  0.00  0.00    -0.007 C 
ATOM     17  C   UNL     1      -3.543  10.907  15.053  0.00  0.00    +0.073 C 
ATOM     18  C   UNL     1      -2.902  11.870  16.052  0.00  0.00    +0.041 C 
ATOM     19  N   UNL     1      -2.335  11.000  17.072  0.00  0.00    -0.292 N 
ATOM     20  C   UNL     1      -1.262  11.446  17.819  0.00  0.00    +0.247 C 
ATOM     21  O   UNL     1      -0.889  12.616  17.831  0.00  0.00    -0.270 OA
ATOM     22  H   UNL     1      -2.220   8.944  16.716  0.00  0.00    +0.050 HD
ATOM     23  H   UNL     1      -5.020  10.100  16.399  0.00  0.00    +0.031 HD
ATOM     24  H   UNL     1      -4.210   8.848  15.433  0.00  0.00    +0.031 HD
ATOM     25  H   UNL     1      -4.327  11.379  14.453  0.00  0.00    +0.061 HD
ATOM     26  H   UNL     1      -3.653  12.500  16.543  0.00  0.00    +0.049 HD
ATOM     27  H   UNL     1      -2.127  12.497  15.600  0.00  0.00    +0.049 HD
BRANCH  15  28
ATOM     28  C   UNL     1      -3.579   9.249  18.369  0.00  0.00    -0.046 C 
ATOM     29  H   UNL     1      -4.088  10.088  18.859  0.00  0.00    +0.025 HD
ATOM     30  H   UNL     1      -2.827   8.875  19.068  0.00  0.00    +0.025 HD
ATOM     31  H   UNL     1      -4.313   8.449  18.213  0.00  0.00    +0.025 HD
ENDBRANCH  15  28
BRANCH  17  32
ATOM     32  O   UNL     1      -2.574  10.354  14.159  0.00  0.00    -0.390 OA
ATOM     33  H   UNL     1      -1.878   9.941  14.702  0.00  0.00    +0.210 HD
ENDBRANCH  17  32
ENDBRANCH   1  20
BRANCH   6  34
ATOM     34  C   UNL     1       3.418   5.952  19.475  0.00  0.00    +0.037 A 
ATOM     35  C   UNL     1       3.107   4.733  20.097  0.00  0.00    -0.040 A 
ATOM     36  C   UNL     1       4.028   3.682  20.133  0.00  0.00    -0.060 A 
ATOM     37  C   UNL     1       5.283   3.829  19.552  0.00  0.00    -0.058 A 
ATOM     38  C   UNL     1       5.636   5.034  18.937  0.00  0.00    -0.042 A 
ATOM     39  C   UNL     1       4.693   6.080  18.908  0.00  0.00    -0.037 A 
ATOM     40  H   UNL     1       2.141   4.556  20.560  0.00  0.00    +0.064 HD
ATOM     41  H   UNL     1       3.759   2.742  20.611  0.00  0.00    +0.062 HD
ATOM     42  H   UNL     1       5.980   2.994  19.586  0.00  0.00    +0.062 HD
ATOM     43  H   UNL     1       4.987   7.008  18.426  0.00  0.00    +0.064 HD
BRANCH  38  44
ATOM     44  C   UNL     1       6.991   5.232  18.272  0.00  0.00    -0.013 C 
ATOM     45  H   UNL     1       7.380   4.247  17.979  0.00  0.00    +0.035 HD
BRANCH  44  46
ATOM     46  C   UNL     1       7.991   5.816  19.279  0.00  0.00    -0.058 C 
ATOM     47  H   UNL     1       8.216   6.862  19.044  0.00  0.00    +0.024 HD
ATOM     48  H   UNL     1       8.933   5.258  19.267  0.00  0.00    +0.024 HD
ATOM     49  H   UNL     1       7.597   5.784  20.303  0.00  0.00    +0.024 HD
ENDBRANCH  44  46
BRANCH  44  50
ATOM     50  C   UNL     1       6.942   6.113  17.003  0.00  0.00    -0.004 C 
ATOM     51  H   UNL     1       7.889   6.662  16.911  0.00  0.00    +0.033 HD
ATOM     52  H   UNL     1       6.164   6.881  17.091  0.00  0.00    +0.033 HD
BRANCH  50  53
ATOM     53  C   UNL     1       6.737   5.332  15.743  0.00  0.00    +0.040 A 
ATOM     54  C   UNL     1       5.739   4.463  15.334  0.00  0.00    -0.010 A 
ATOM     55  C   UNL     1       6.123   4.085  14.026  0.00  0.00    +0.052 A 
ATOM     56  N   UNL     1       7.259   4.660  13.634  0.00  0.00    -0.182 NA
ATOM     57  N   UNL     1       7.619   5.398  14.695  0.00  0.00    -0.281 N 
ATOM     58  H   UNL     1       5.614   3.415  13.345  0.00  0.00    +0.085 HD
ATOM     59  H   UNL     1       8.479   5.935  14.631  0.00  0.00    +0.189 HD
BRANCH  54  60
ATOM     60  C   UNL     1       4.539   4.014  16.073  0.00  0.00    -0.037 C 
ATOM     61  H   UNL     1       4.339   4.658  16.935  0.00  0.00    +0.028 HD
ATOM     62  H   UNL     1       3.655   4.041  15.427  0.00  0.00    +0.028 HD
ATOM     63  H   UNL     1       4.673   2.988  16.428  0.00  0.00    +0.028 HD
ENDBRANCH  54  60
ENDBRANCH  50  53
ENDBRANCH  44  50
ENDBRANCH  38  44
ENDBRANCH   6  34
BRANCH   9  64
ATOM     64  C   UNL     1      -0.009   9.412  22.306  0.00  0.00    +0.349 C 
ATOM     65  F   UNL     1       1.244   9.387  22.847  0.00  0.00    -0.183 F 
ATOM     66  F   UNL     1      -0.611   8.265  22.744  0.00  0.00    -0.183 F 
ATOM     67 CL   UNL     1      -0.898  10.776  23.033  0.00  0.00    -0.042 Cl
ENDBRANCH   9  64
TORSDOF 10
ENDMDL
MODEL 3
REMARK VINA RESULT:    -9.174      1.351      2.497
REMARK INTER + INTRA:         -12.480
REMARK INTER:                 -10.966
REMARK INTRA:                  -1.515
REMARK UNBOUND:                 0.984
REMARK  Name = 
REMARK  10 active torsions:
REMARK  status: ('A' for Active; 'I' for Inactive)
REMARK    1  A    between atoms: C_1  and  C_2
REMARK    2  A    between atoms: C_4  and  O_38
REMARK    3  A    between atoms: C_7  and  C_9
REMARK    4  A    between atoms: N_14  and  C_17
REMARK    5  A    between atoms: C_21  and  C_23
REMARK    6  A    between atoms: C_23  and  C_24
REMARK    7  A    between atoms: C_23  and  C_25
REMARK    8  A    between atoms: C_25  and  C_26
REMARK    9  A    between atoms: C_27  and  C_31
REMARK   10  A    between atoms: C_32  and  C_34
REMARK                            x       y       z     vdW  Elec       q    Type
REMARK                         _______ _______ _______ _____ _____    ______ ____
ROOT
ATOM      1  C   UNL     1       3.774   4.313  17.983  0.00  0.00    +0.038 A 
ATOM      2  C   UNL     1       3.429   5.645  17.751  0.00  0.00    -0.037 A 
ATOM      3  C   UNL     1       2.666   6.267  18.718  0.00  0.00    +0.043 A 
ATOM      4  C   UNL     1       2.276   5.635  19.900  0.00  0.00    -0.008 A 
ATOM      5  C   UNL     1       1.462   6.590  20.716  0.00  0.00    +0.046 C 
ATOM      6  N   UNL     1       1.403   7.790  19.894  0.00  0.00    -0.263 N 
ATOM      7  C   UNL     1       2.099   7.620  18.694  0.00  0.00    +0.251 C 
ATOM      8  O   UNL     1       2.248   8.357  17.739  0.00  0.00    -0.270 OA
ATOM      9  C   UNL     1       2.637   4.309  20.171  0.00  0.00    +0.043 A 
ATOM     10  C   UNL     1       3.394   3.654  19.175  0.00  0.00    -0.039 A 
ATOM     11  H   UNL     1       3.727   6.166  16.846  0.00  0.00    +0.063 HD
ATOM     12  H   UNL     1       1.969   6.818  21.660  0.00  0.00    +0.052 HD
ATOM     13  H   UNL     1       0.451   6.201  20.876  0.00  0.00    +0.052 HD
ATOM     14  H   UNL     1       3.708   2.615  19.307  0.00  0.00    +0.063 HD
ENDROOT
BRANCH   1  20
ATOM     15  C   UNL     1       6.471   5.414  17.066  0.00  0.00    +0.026 C 
ATOM     16  C   UNL     1       7.685   5.585  16.133  0.00  0.00    -0.007 C 
ATOM     17  C   UNL     1       7.246   4.900  14.847  0.00  0.00    +0.073 C 
ATOM     18  C   UNL     1       6.450   3.704  15.371  0.00  0.00    +0.041 C 
ATOM     19  N   UNL     1       5.791   4.211  16.566  0.00  0.00    -0.292 N 
ATOM     20  C   UNL     1       4.617   3.619  16.991  0.00  0.00    +0.247 C 
ATOM     21  O   UNL     1       4.203   2.549  16.552  0.00  0.00    -0.270 OA
ATOM     22  H   UNL     1       5.795   6.266  16.945  0.00  0.00    +0.050 HD
ATOM     23  H   UNL     1       8.570   5.075  16.539  0.00  0.00    +0.031 HD
ATOM     24  H   UNL     1       7.934   6.643  15.995  0.00  0.00    +0.031 HD
ATOM     25  H   UNL     1       8.082   4.603  14.206  0.00  0.00    +0.061 HD
ATOM     26  H   UNL     1       7.109   2.887  15.685  0.00  0.00    +0.049 HD
ATOM     27  H   UNL     1       5.716   3.333  14.649  0.00  0.00    +0.049 HD
BRANCH  15  28
ATOM     28  C   UNL     1       6.924   5.305  18.519  0.00  0.00    -0.046 C 
ATOM     29  H   UNL     1       7.935   4.886  18.589  0.00  0.00    +0.025 HD
ATOM     30  H   UNL     1       6.267   4.661  19.109  0.00  0.00    +0.025 HD
ATOM     31  H   UNL     1       6.930   6.294  18.991  0.00  0.00    +0.025 HD
ENDBRANCH  15  28
BRANCH  17  32
ATOM     32  O   UNL     1       6.418   5.800  14.108  0.00  0.00    -0.390 OA
ATOM     33  H   UNL     1       6.634   6.703  14.403  0.00  0.00    +0.210 HD
ENDBRANCH  17  32
ENDBRANCH   1  20
BRANCH   6  34
ATOM     34  C   UNL     1       0.696   8.954  20.308  0.00  0.00    +0.037 A 
ATOM     35  C   UNL     1       0.896   9.498  21.586  0.00  0.00    -0.040 A 
ATOM     36  C   UNL     1       0.228  10.657  21.992  0.00  0.00    -0.060 A 
ATOM     37  C   UNL     1      -0.658  11.296  21.130  0.00  0.00    -0.058 A 
ATOM     38  C   UNL     1      -0.895  10.774  19.855  0.00  0.00    -0.042 A 
ATOM     39  C   UNL     1      -0.210   9.607  19.462  0.00  0.00    -0.037 A 
ATOM     40  H   UNL     1       1.580   9.050  22.300  0.00  0.00    +0.064 HD
ATOM     41  H   UNL     1       0.408  11.067  22.984  0.00  0.00    +0.062 HD
ATOM     42  H   UNL     1      -1.159  12.201  21.466  0.00  0.00    +0.062 HD
ATOM     43  H   UNL     1      -0.410   9.219  18.468  0.00  0.00    +0.064 HD
BRANCH  38  44
ATOM     44  C   UNL     1      -1.841  11.450  18.872  0.00  0.00    -0.013 C 
ATOM     45  H   UNL     1      -2.524  12.098  19.439  0.00  0.00    +0.035 HD
BRANCH  44  46
ATOM     46  C   UNL     1      -2.714  10.398  18.174  0.00  0.00    -0.058 C 
ATOM     47  H   UNL     1      -3.321   9.850  18.903  0.00  0.00    +0.024 HD
ATOM     48  H   UNL     1      -2.098   9.672  17.634  0.00  0.00    +0.024 HD
ATOM     49  H   UNL     1      -3.400  10.858  17.452  0.00  0.00    +0.024 HD
ENDBRANCH  44  46
BRANCH  44  50
ATOM     50  C   UNL     1      -1.127  12.328  17.820  0.00  0.00    -0.004 C 
ATOM     51  H   UNL     1      -1.881  12.893  17.253  0.00  0.00    +0.033 HD
ATOM     52  H   UNL     1      -0.607  11.707  17.081  0.00  0.00    +0.033 HD
BRANCH  50  53
ATOM     53  C   UNL     1      -0.167  13.311  18.415  0.00  0.00    +0.040 A 
ATOM     54  C   UNL     1       1.212  13.310  18.540  0.00  0.00    -0.010 A 
ATOM     55  C   UNL     1       1.504  14.542  19.171  0.00  0.00    +0.052 A 
ATOM     56  N   UNL     1       0.413  15.264  19.424  0.00  0.00    -0.182 NA
ATOM     57  N   UNL     1      -0.587  14.491  18.971  0.00  0.00    -0.281 N 
ATOM     58  H   UNL     1       2.471  14.940  19.452  0.00  0.00    +0.085 HD
ATOM     59  H   UNL     1      -1.536  14.839  19.064  0.00  0.00    +0.189 HD
BRANCH  54  60
ATOM     60  C   UNL     1       2.182  12.274  18.121  0.00  0.00    -0.037 C 
ATOM     61  H   UNL     1       3.140  12.720  17.835  0.00  0.00    +0.028 HD
ATOM     62  H   UNL     1       2.374  11.571  18.938  0.00  0.00    +0.028 HD
ATOM     63  H   UNL     1       1.792  11.711  17.268  0.00  0.00    +0.028 HD
ENDBRANCH  54  60
ENDBRANCH  50  53
ENDBRANCH  44  50
ENDBRANCH  38  44
ENDBRANCH   6  34
BRANCH   9  64
ATOM     64  C   UNL     1       2.142   3.627  21.431  0.00  0.00    +0.349 C 
ATOM     65  F   UNL     1       0.785   3.482  21.399  0.00  0.00    -0.183 F 
ATOM     66  F   UNL     1       2.395   4.374  22.547  0.00  0.00    -0.183 F 
ATOM     67 CL   UNL     1       2.863   2.020  21.707  0.00  0.00    -0.042 Cl
ENDBRANCH   9  64
TORSDOF 10
ENDMDL
MODEL 4
REMARK VINA RESULT:    -9.014      2.877      9.045
REMARK INTER + INTRA:         -12.246
REMARK INTER:                 -10.919
REMARK INTRA:                  -1.326
REMARK UNBOUND:                 0.984
REMARK  Name = 
REMARK  10 active torsions:
REMARK  status: ('A' for Active; 'I' for Inactive)
REMARK    1  A    between atoms: C_1  and  C_2
REMARK    2  A    between atoms: C_4  and  O_38
REMARK    3  A    between atoms: C_7  and  C_9
REMARK    4  A    between atoms: N_14  and  C_17
REMARK    5  A    between atoms: C_21  and  C_23
REMARK    6  A    between atoms: C_23  and  C_24
REMARK    7  A    between atoms: C_23  and  C_25
REMARK    8  A    between atoms: C_25  and  C_26
REMARK    9  A    between atoms: C_27  and  C_31
REMARK   10  A    between atoms: C_32  and  C_34
REMARK                            x       y       z     vdW  Elec       q    Type
REMARK                         _______ _______ _______ _____ _____    ______ ____
ROOT
ATOM      1  C   UNL     1       0.072  10.586  19.025  0.00  0.00    +0.038 A 
ATOM      2  C   UNL     1       0.881   9.736  18.269  0.00  0.00    -0.037 A 
ATOM      3  C   UNL     1       1.447   8.665  18.930  0.00  0.00    +0.043 A 
ATOM      4  C   UNL     1       1.211   8.395  20.280  0.00  0.00    -0.008 A 
ATOM      5  C   UNL     1       1.978   7.172  20.672  0.00  0.00    +0.046 C 
ATOM      6  N   UNL     1       2.680   6.793  19.455  0.00  0.00    -0.263 N 
ATOM      7  C   UNL     1       2.393   7.673  18.407  0.00  0.00    +0.251 C 
ATOM      8  O   UNL     1       2.805   7.726  17.265  0.00  0.00    -0.270 OA
ATOM      9  C   UNL     1       0.377   9.215  21.052  0.00  0.00    +0.043 A 
ATOM     10  C   UNL     1      -0.185  10.329  20.391  0.00  0.00    -0.039 A 
ATOM     11  H   UNL     1       1.074   9.913  17.215  0.00  0.00    +0.063 HD
ATOM     12  H   UNL     1       1.295   6.367  20.966  0.00  0.00    +0.052 HD
ATOM     13  H   UNL     1       2.703   7.402  21.460  0.00  0.00    +0.052 HD
ATOM     14  H   UNL     1      -0.839  11.022  20.927  0.00  0.00    +0.063 HD
ENDROOT
BRANCH   1  20
ATOM     15  C   UNL     1       1.090  13.452  19.289  0.00  0.00    +0.026 C 
ATOM     16  C   UNL     1       1.012  14.990  19.245  0.00  0.00    -0.007 C 
ATOM     17  C   UNL     1      -0.478  15.267  19.107  0.00  0.00    +0.073 C 
ATOM     18  C   UNL     1      -0.934  14.138  18.181  0.00  0.00    +0.041 C 
ATOM     19  N   UNL     1      -0.112  13.003  18.572  0.00  0.00    -0.292 N 
ATOM     20  C   UNL     1      -0.581  11.723  18.350  0.00  0.00    +0.247 C 
ATOM     21  O   UNL     1      -1.554  11.474  17.644  0.00  0.00    -0.270 OA
ATOM     22  H   UNL     1       1.020  13.112  20.325  0.00  0.00    +0.050 HD
ATOM     23  H   UNL     1       1.544  15.388  18.370  0.00  0.00    +0.031 HD
ATOM     24  H   UNL     1       1.452  15.436  20.144  0.00  0.00    +0.031 HD
ATOM     25  H   UNL     1      -0.699  16.260  18.703  0.00  0.00    +0.061 HD
ATOM     26  H   UNL     1      -0.706  14.360  17.132  0.00  0.00    +0.049 HD
ATOM     27  H   UNL     1      -1.998  13.905  18.290  0.00  0.00    +0.049 HD
BRANCH  15  28
ATOM     28  C   UNL     1       2.395  12.966  18.664  0.00  0.00    -0.046 C 
ATOM     29  H   UNL     1       3.141  13.769  18.625  0.00  0.00    +0.025 HD
ATOM     30  H   UNL     1       2.254  12.606  17.642  0.00  0.00    +0.025 HD
ATOM     31  H   UNL     1       2.813  12.139  19.251  0.00  0.00    +0.025 HD
ENDBRANCH  15  28
BRANCH  17  32
ATOM     32  O   UNL     1      -1.084  15.167  20.397  0.00  0.00    -0.390 OA
ATOM     33  H   UNL     1      -1.879  14.611  20.303  0.00  0.00    +0.210 HD
ENDBRANCH  17  32
ENDBRANCH   1  20
BRANCH   6  34
ATOM     34  C   UNL     1       3.549   5.667  19.403  0.00  0.00    +0.037 A 
ATOM     35  C   UNL     1       3.131   4.416  19.884  0.00  0.00    -0.040 A 
ATOM     36  C   UNL     1       3.966   3.297  19.812  0.00  0.00    -0.060 A 
ATOM     37  C   UNL     1       5.239   3.405  19.261  0.00  0.00    -0.058 A 
ATOM     38  C   UNL     1       5.696   4.638  18.786  0.00  0.00    -0.042 A 
ATOM     39  C   UNL     1       4.839   5.754  18.865  0.00  0.00    -0.037 A 
ATOM     40  H   UNL     1       2.147   4.267  20.317  0.00  0.00    +0.064 HD
ATOM     41  H   UNL     1       3.615   2.336  20.181  0.00  0.00    +0.062 HD
ATOM     42  H   UNL     1       5.867   2.518  19.209  0.00  0.00    +0.062 HD
ATOM     43  H   UNL     1       5.214   6.701  18.491  0.00  0.00    +0.064 HD
BRANCH  38  44
ATOM     44  C   UNL     1       7.074   4.798  18.158  0.00  0.00    -0.013 C 
ATOM     45  H   UNL     1       7.402   3.817  17.789  0.00  0.00    +0.035 HD
BRANCH  44  46
ATOM     46  C   UNL     1       8.091   5.226  19.225  0.00  0.00    -0.058 C 
ATOM     47  H   UNL     1       8.772   5.988  18.831  0.00  0.00    +0.024 HD
ATOM     48  H   UNL     1       8.695   4.375  19.557  0.00  0.00    +0.024 HD
ATOM     49  H   UNL     1       7.596   5.649  20.108  0.00  0.00    +0.024 HD
ENDBRANCH  44  46
BRANCH  44  50
ATOM     50  C   UNL     1       7.108   5.782  16.968  0.00  0.00    -0.004 C 
ATOM     51  H   UNL     1       8.107   6.236  16.906  0.00  0.00    +0.033 HD
ATOM     52  H   UNL     1       6.415   6.617  17.132  0.00  0.00    +0.033 HD
BRANCH  50  53
ATOM     53  C   UNL     1       6.814   5.136  15.650  0.00  0.00    +0.040 A 
ATOM     54  C   UNL     1       5.727   4.413  15.187  0.00  0.00    -0.010 A 
ATOM     55  C   UNL     1       6.060   4.108  13.847  0.00  0.00    +0.052 A 
ATOM     56  N   UNL     1       7.248   4.592  13.486  0.00  0.00    -0.182 NA
ATOM     57  N   UNL     1       7.691   5.197  14.599  0.00  0.00    -0.281 N 
ATOM     58  H   UNL     1       5.478   3.554  13.120  0.00  0.00    +0.085 HD
ATOM     59  H   UNL     1       8.602   5.644  14.566  0.00  0.00    +0.189 HD
BRANCH  54  60
ATOM     60  C   UNL     1       4.490   4.032  15.905  0.00  0.00    -0.037 C 
ATOM     61  H   UNL     1       3.839   3.418  15.275  0.00  0.00    +0.028 HD
ATOM     62  H   UNL     1       4.727   3.452  16.802  0.00  0.00    +0.028 HD
ATOM     63  H   UNL     1       3.938   4.926  16.210  0.00  0.00    +0.028 HD
ENDBRANCH  54  60
ENDBRANCH  50  53
ENDBRANCH  44  50
ENDBRANCH  38  44
ENDBRANCH   6  34
BRANCH   9  64
ATOM     64  C   UNL     1       0.194   8.937  22.531  0.00  0.00    +0.349 C 
ATOM     65  F   UNL     1       1.403   8.807  23.151  0.00  0.00    -0.183 F 
ATOM     66  F   UNL     1      -0.448   7.750  22.750  0.00  0.00    -0.183 F 
ATOM     67 CL   UNL     1      -0.734  10.195  23.387  0.00  0.00    -0.042 Cl
ENDBRANCH   9  64
TORSDOF 10
ENDMDL
MODEL 5
REMARK VINA RESULT:    -9.012      4.272     10.469
REMARK INTER + INTRA:         -12.242
REMARK INTER:                 -10.830
REMARK INTRA:                  -1.413
REMARK UNBOUND:                 0.984
REMARK  Name = 
REMARK  10 active torsions:
REMARK  status: ('A' for Active; 'I' for Inactive)
REMARK    1  A    between atoms: C_1  and  C_2
REMARK    2  A    between atoms: C_4  and  O_38
REMARK    3  A    between atoms: C_7  and  C_9
REMARK    4  A    between atoms: N_14  and  C_17
REMARK    5  A    between atoms: C_21  and  C_23
REMARK    6  A    between atoms: C_23  and  C_24
REMARK    7  A    between atoms: C_23  and  C_25
REMARK    8  A    between atoms: C_25  and  C_26
REMARK    9  A    between atoms: C_27  and  C_31
REMARK   10  A    between atoms: C_32  and  C_34
REMARK                            x       y       z     vdW  Elec       q    Type
REMARK                         _______ _______ _______ _____ _____    ______ ____
ROOT
ATOM      1  C   UNL     1      -1.077  12.603  21.168  0.00  0.00    +0.038 A 
ATOM      2  C   UNL     1      -0.122  11.726  21.682  0.00  0.00    -0.037 A 
ATOM      3  C   UNL     1       0.141  10.589  20.945  0.00  0.00    +0.043 A 
ATOM      4  C   UNL     1      -0.474  10.319  19.720  0.00  0.00    -0.008 A 
ATOM      5  C   UNL     1       0.034   9.012  19.198  0.00  0.00    +0.046 C 
ATOM      6  N   UNL     1       0.955   8.558  20.230  0.00  0.00    -0.263 N 
ATOM      7  C   UNL     1       1.027   9.471  21.287  0.00  0.00    +0.251 C 
ATOM      8  O   UNL     1       1.636   9.439  22.337  0.00  0.00    -0.270 OA
ATOM      9  C   UNL     1      -1.413  11.200  19.167  0.00  0.00    +0.043 A 
ATOM     10  C   UNL     1      -1.709  12.352  19.928  0.00  0.00    -0.039 A 
ATOM     11  H   UNL     1       0.381  11.914  22.626  0.00  0.00    +0.063 HD
ATOM     12  H   UNL     1       0.579   9.159  18.260  0.00  0.00    +0.052 HD
ATOM     13  H   UNL     1      -0.784   8.292  19.090  0.00  0.00    +0.052 HD
ATOM     14  H   UNL     1      -2.438  13.084  19.569  0.00  0.00    +0.063 HD
ENDROOT
BRANCH   1  20
ATOM     15  C   UNL     1      -3.556  12.935  22.920  0.00  0.00    +0.026 C 
ATOM     16  C   UNL     1      -4.652  13.697  23.690  0.00  0.00    -0.007 C 
ATOM     17  C   UNL     1      -4.496  15.131  23.205  0.00  0.00    +0.073 C 
ATOM     18  C   UNL     1      -2.978  15.267  23.074  0.00  0.00    +0.041 C 
ATOM     19  N   UNL     1      -2.541  13.955  22.622  0.00  0.00    -0.292 N 
ATOM     20  C   UNL     1      -1.364  13.846  21.907  0.00  0.00    +0.247 C 
ATOM     21  O   UNL     1      -0.545  14.757  21.812  0.00  0.00    -0.270 OA
ATOM     22  H   UNL     1      -3.962  12.567  21.974  0.00  0.00    +0.050 HD
ATOM     23  H   UNL     1      -4.477  13.653  24.773  0.00  0.00    +0.031 HD
ATOM     24  H   UNL     1      -5.644  13.278  23.487  0.00  0.00    +0.031 HD
ATOM     25  H   UNL     1      -4.930  15.869  23.886  0.00  0.00    +0.061 HD
ATOM     26  H   UNL     1      -2.505  15.451  24.046  0.00  0.00    +0.049 HD
ATOM     27  H   UNL     1      -2.682  16.044  22.362  0.00  0.00    +0.049 HD
BRANCH  15  28
ATOM     28  C   UNL     1      -3.030  11.770  23.754  0.00  0.00    -0.046 C 
ATOM     29  H   UNL     1      -1.942  11.670  23.656  0.00  0.00    +0.025 HD
ATOM     30  H   UNL     1      -3.469  10.816  23.454  0.00  0.00    +0.025 HD
ATOM     31  H   UNL     1      -3.265  11.924  24.814  0.00  0.00    +0.025 HD
ENDBRANCH  15  28
BRANCH  17  32
ATOM     32  O   UNL     1      -5.147  15.260  21.939  0.00  0.00    -0.390 OA
ATOM     33  H   UNL     1      -6.096  15.088  22.080  0.00  0.00    +0.210 HD
ENDBRANCH  17  32
ENDBRANCH   1  20
BRANCH   6  34
ATOM     34  C   UNL     1       1.655   7.323  20.126  0.00  0.00    +0.037 A 
ATOM     35  C   UNL     1       1.298   6.226  20.926  0.00  0.00    -0.040 A 
ATOM     36  C   UNL     1       1.959   5.000  20.811  0.00  0.00    -0.060 A 
ATOM     37  C   UNL     1       2.996   4.845  19.896  0.00  0.00    -0.058 A 
ATOM     38  C   UNL     1       3.390   5.919  19.093  0.00  0.00    -0.042 A 
ATOM     39  C   UNL     1       2.709   7.146  19.221  0.00  0.00    -0.037 A 
ATOM     40  H   UNL     1       0.492   6.284  21.651  0.00  0.00    +0.064 HD
ATOM     41  H   UNL     1       1.657   4.162  21.434  0.00  0.00    +0.062 HD
ATOM     42  H   UNL     1       3.490   3.879  19.819  0.00  0.00    +0.062 HD
ATOM     43  H   UNL     1       3.032   7.967  18.588  0.00  0.00    +0.064 HD
BRANCH  38  44
ATOM     44  C   UNL     1       4.506   5.788  18.065  0.00  0.00    -0.013 C 
ATOM     45  H   UNL     1       5.450   5.617  18.600  0.00  0.00    +0.035 HD
BRANCH  44  46
ATOM     46  C   UNL     1       4.671   7.107  17.297  0.00  0.00    -0.058 C 
ATOM     47  H   UNL     1       3.711   7.443  16.891  0.00  0.00    +0.024 HD
ATOM     48  H   UNL     1       5.368   6.991  16.461  0.00  0.00    +0.024 HD
ATOM     49  H   UNL     1       5.055   7.905  17.944  0.00  0.00    +0.024 HD
ENDBRANCH  44  46
BRANCH  44  50
ATOM     50  C   UNL     1       4.310   4.619  17.075  0.00  0.00    -0.004 C 
ATOM     51  H   UNL     1       3.348   4.744  16.558  0.00  0.00    +0.033 HD
ATOM     52  H   UNL     1       4.236   3.664  17.609  0.00  0.00    +0.033 HD
BRANCH  50  53
ATOM     53  C   UNL     1       5.383   4.530  16.035  0.00  0.00    +0.040 A 
ATOM     54  C   UNL     1       6.766   4.523  16.118  0.00  0.00    -0.010 A 
ATOM     55  C   UNL     1       7.194   4.390  14.776  0.00  0.00    +0.052 A 
ATOM     56  N   UNL     1       6.179   4.316  13.915  0.00  0.00    -0.182 NA
ATOM     57  N   UNL     1       5.094   4.420  14.699  0.00  0.00    -0.281 N 
ATOM     58  H   UNL     1       8.206   4.339  14.396  0.00  0.00    +0.085 HD
ATOM     59  H   UNL     1       4.182   4.395  14.254  0.00  0.00    +0.189 HD
BRANCH  54  60
ATOM     60  C   UNL     1       7.625   4.629  17.318  0.00  0.00    -0.037 C 
ATOM     61  H   UNL     1       7.310   5.457  17.961  0.00  0.00    +0.028 HD
ATOM     62  H   UNL     1       7.575   3.710  17.912  0.00  0.00    +0.028 HD
ATOM     63  H   UNL     1       8.667   4.792  17.026  0.00  0.00    +0.028 HD
ENDBRANCH  54  60
ENDBRANCH  50  53
ENDBRANCH  44  50
ENDBRANCH  38  44
ENDBRANCH   6  34
BRANCH   9  64
ATOM     64  C   UNL     1      -2.116  10.848  17.871  0.00  0.00    +0.349 C 
ATOM     65  F   UNL     1      -1.207  10.559  16.894  0.00  0.00    -0.183 F 
ATOM     66  F   UNL     1      -2.841  11.900  17.384  0.00  0.00    -0.183 F 
ATOM     67 CL   UNL     1      -3.234   9.467  18.013  0.00  0.00    -0.042 Cl
ENDBRANCH   9  64
TORSDOF 10
ENDMDL
MODEL 6
REMARK VINA RESULT:    -8.844      2.549      3.533
REMARK INTER + INTRA:         -11.996
REMARK INTER:                 -11.300
REMARK INTRA:                  -0.696
REMARK UNBOUND:                 0.984
REMARK  Name = 
REMARK  10 active torsions:
REMARK  status: ('A' for Active; 'I' for Inactive)
REMARK    1  A    between atoms: C_1  and  C_2
REMARK    2  A    between atoms: C_4  and  O_38
REMARK    3  A    between atoms: C_7  and  C_9
REMARK    4  A    between atoms: N_14  and  C_17
REMARK    5  A    between atoms: C_21  and  C_23
REMARK    6  A    between atoms: C_23  and  C_24
REMARK    7  A    between atoms: C_23  and  C_25
REMARK    8  A    between atoms: C_25  and  C_26
REMARK    9  A    between atoms: C_27  and  C_31
REMARK   10  A    between atoms: C_32  and  C_34
REMARK                            x       y       z     vdW  Elec       q    Type
REMARK                         _______ _______ _______ _____ _____    ______ ____
ROOT
ATOM      1  C   UNL     1       3.820   4.591  17.762  0.00  0.00    +0.038 A 
ATOM      2  C   UNL     1       3.621   5.934  17.442  0.00  0.00    -0.037 A 
ATOM      3  C   UNL     1       2.872   6.681  18.328  0.00  0.00    +0.043 A 
ATOM      4  C   UNL     1       2.357   6.157  19.516  0.00  0.00    -0.008 A 
ATOM      5  C   UNL     1       1.598   7.230  20.231  0.00  0.00    +0.046 C 
ATOM      6  N   UNL     1       1.702   8.382  19.347  0.00  0.00    -0.263 N 
ATOM      7  C   UNL     1       2.443   8.078  18.201  0.00  0.00    +0.251 C 
ATOM      8  O   UNL     1       2.715   8.742  17.220  0.00  0.00    -0.270 OA
ATOM      9  C   UNL     1       2.570   4.820  19.876  0.00  0.00    +0.043 A 
ATOM     10  C   UNL     1       3.312   4.041  18.962  0.00  0.00    -0.039 A 
ATOM     11  H   UNL     1       4.018   6.372  16.531  0.00  0.00    +0.063 HD
ATOM     12  H   UNL     1       2.072   7.462  21.191  0.00  0.00    +0.052 HD
ATOM     13  H   UNL     1       0.546   6.950  20.351  0.00  0.00    +0.052 HD
ATOM     14  H   UNL     1       3.514   2.986  19.165  0.00  0.00    +0.063 HD
ENDROOT
BRANCH   1  20
ATOM     15  C   UNL     1       6.535   5.514  16.714  0.00  0.00    +0.026 C 
ATOM     16  C   UNL     1       7.749   5.544  15.766  0.00  0.00    -0.007 C 
ATOM     17  C   UNL     1       7.289   4.719  14.573  0.00  0.00    +0.073 C 
ATOM     18  C   UNL     1       6.470   3.613  15.238  0.00  0.00    +0.041 C 
ATOM     19  N   UNL     1       5.827   4.274  16.364  0.00  0.00    -0.292 N 
ATOM     20  C   UNL     1       4.643   3.765  16.859  0.00  0.00    +0.247 C 
ATOM     21  O   UNL     1       4.204   2.659  16.553  0.00  0.00    -0.270 OA
ATOM     22  H   UNL     1       5.878   6.359  16.493  0.00  0.00    +0.050 HD
ATOM     23  H   UNL     1       8.624   5.068  16.228  0.00  0.00    +0.031 HD
ATOM     24  H   UNL     1       8.020   6.572  15.501  0.00  0.00    +0.031 HD
ATOM     25  H   UNL     1       8.116   4.329  13.970  0.00  0.00    +0.061 HD
ATOM     26  H   UNL     1       7.113   2.825  15.647  0.00  0.00    +0.049 HD
ATOM     27  H   UNL     1       5.724   3.174  14.567  0.00  0.00    +0.049 HD
BRANCH  15  28
ATOM     28  C   UNL     1       6.993   5.570  18.169  0.00  0.00    -0.046 C 
ATOM     29  H   UNL     1       6.803   4.620  18.682  0.00  0.00    +0.025 HD
ATOM     30  H   UNL     1       6.477   6.351  18.734  0.00  0.00    +0.025 HD
ATOM     31  H   UNL     1       8.068   5.780  18.222  0.00  0.00    +0.025 HD
ENDBRANCH  15  28
BRANCH  17  32
ATOM     32  O   UNL     1       6.478   5.542  13.732  0.00  0.00    -0.390 OA
ATOM     33  H   UNL     1       5.999   6.165  14.308  0.00  0.00    +0.210 HD
ENDBRANCH  17  32
ENDBRANCH   1  20
BRANCH   6  34
ATOM     34  C   UNL     1       1.092   9.629  19.658  0.00  0.00    +0.037 A 
ATOM     35  C   UNL     1       1.036  10.658  18.704  0.00  0.00    -0.040 A 
ATOM     36  C   UNL     1       0.413  11.877  18.990  0.00  0.00    -0.060 A 
ATOM     37  C   UNL     1      -0.164  12.096  20.237  0.00  0.00    -0.058 A 
ATOM     38  C   UNL     1      -0.114  11.100  21.218  0.00  0.00    -0.042 A 
ATOM     39  C   UNL     1       0.515   9.877  20.910  0.00  0.00    -0.037 A 
ATOM     40  H   UNL     1       1.461  10.544  17.712  0.00  0.00    +0.064 HD
ATOM     41  H   UNL     1       0.373  12.655  18.231  0.00  0.00    +0.062 HD
ATOM     42  H   UNL     1      -0.650  13.049  20.432  0.00  0.00    +0.062 HD
ATOM     43  H   UNL     1       0.542   9.119  21.686  0.00  0.00    +0.064 HD
BRANCH  38  44
ATOM     44  C   UNL     1      -0.749  11.289  22.589  0.00  0.00    -0.013 C 
ATOM     45  H   UNL     1      -0.132  11.995  23.161  0.00  0.00    +0.035 HD
BRANCH  44  46
ATOM     46  C   UNL     1      -0.731   9.964  23.363  0.00  0.00    -0.058 C 
ATOM     47  H   UNL     1      -0.184   9.195  22.807  0.00  0.00    +0.024 HD
ATOM     48  H   UNL     1      -1.748   9.595  23.535  0.00  0.00    +0.024 HD
ATOM     49  H   UNL     1      -0.246  10.075  24.341  0.00  0.00    +0.024 HD
ENDBRANCH  44  46
BRANCH  44  50
ATOM     50  C   UNL     1      -2.186  11.855  22.539  0.00  0.00    -0.004 C 
ATOM     51  H   UNL     1      -2.895  11.059  22.807  0.00  0.00    +0.033 HD
ATOM     52  H   UNL     1      -2.452  12.155  21.518  0.00  0.00    +0.033 HD
BRANCH  50  53
ATOM     53  C   UNL     1      -2.408  13.003  23.474  0.00  0.00    +0.040 A 
ATOM     54  C   UNL     1      -3.477  13.357  24.280  0.00  0.00    -0.010 A 
ATOM     55  C   UNL     1      -3.043  14.534  24.934  0.00  0.00    +0.052 A 
ATOM     56  N   UNL     1      -1.810  14.896  24.582  0.00  0.00    -0.182 NA
ATOM     57  N   UNL     1      -1.453  13.963  23.686  0.00  0.00    -0.281 N 
ATOM     58  H   UNL     1      -3.578  15.137  25.657  0.00  0.00    +0.085 HD
ATOM     59  H   UNL     1      -0.532  14.037  23.263  0.00  0.00    +0.189 HD
BRANCH  54  60
ATOM     60  C   UNL     1      -4.784  12.683  24.440  0.00  0.00    -0.037 C 
ATOM     61  H   UNL     1      -4.675  11.594  24.417  0.00  0.00    +0.028 HD
ATOM     62  H   UNL     1      -5.243  12.950  25.397  0.00  0.00    +0.028 HD
ATOM     63  H   UNL     1      -5.466  12.981  23.637  0.00  0.00    +0.028 HD
ENDBRANCH  54  60
ENDBRANCH  50  53
ENDBRANCH  44  50
ENDBRANCH  38  44
ENDBRANCH   6  34
BRANCH   9  64
ATOM     64  C   UNL     1       1.941   4.261  21.137  0.00  0.00    +0.349 C 
ATOM     65  F   UNL     1       0.580   4.350  21.077  0.00  0.00    -0.183 F 
ATOM     66  F   UNL     1       2.298   4.979  22.244  0.00  0.00    -0.183 F 
ATOM     67 CL   UNL     1       2.371   2.561  21.459  0.00  0.00    -0.042 Cl
ENDBRANCH   9  64
TORSDOF 10
ENDMDL
MODEL 7
REMARK VINA RESULT:    -8.734      3.088      9.499
REMARK INTER + INTRA:         -11.834
REMARK INTER:                 -10.883
REMARK INTRA:                  -0.951
REMARK UNBOUND:                 0.984
REMARK  Name = 
REMARK  10 active torsions:
REMARK  status: ('A' for Active; 'I' for Inactive)
REMARK    1  A    between atoms: C_1  and  C_2
REMARK    2  A    between atoms: C_4  and  O_38
REMARK    3  A    between atoms: C_7  and  C_9
REMARK    4  A    between atoms: N_14  and  C_17
REMARK    5  A    between atoms: C_21  and  C_23
REMARK    6  A    between atoms: C_23  and  C_24
REMARK    7  A    between atoms: C_23  and  C_25
REMARK    8  A    between atoms: C_25  and  C_26
REMARK    9  A    between atoms: C_27  and  C_31
REMARK   10  A    between atoms: C_32  and  C_34
REMARK                            x       y       z     vdW  Elec       q    Type
REMARK                         _______ _______ _______ _____ _____    ______ ____
ROOT
ATOM      1  C   UNL     1       0.130  11.203  19.358  0.00  0.00    +0.038 A 
ATOM      2  C   UNL     1       0.847  10.412  18.459  0.00  0.00    -0.037 A 
ATOM      3  C   UNL     1       1.336   9.214  18.938  0.00  0.00    +0.043 A 
ATOM      4  C   UNL     1       1.111   8.768  20.243  0.00  0.00    -0.008 A 
ATOM      5  C   UNL     1       1.782   7.444  20.427  0.00  0.00    +0.046 C 
ATOM      6  N   UNL     1       2.420   7.193  19.142  0.00  0.00    -0.263 N 
ATOM      7  C   UNL     1       2.183   8.238  18.244  0.00  0.00    +0.251 C 
ATOM      8  O   UNL     1       2.570   8.424  17.107  0.00  0.00    -0.270 OA
ATOM      9  C   UNL     1       0.368   9.530  21.154  0.00  0.00    +0.043 A 
ATOM     10  C   UNL     1      -0.114  10.770  20.682  0.00  0.00    -0.039 A 
ATOM     11  H   UNL     1       1.028  10.726  17.436  0.00  0.00    +0.063 HD
ATOM     12  H   UNL     1       1.041   6.662  20.626  0.00  0.00    +0.052 HD
ATOM     13  H   UNL     1       2.542   7.498  21.213  0.00  0.00    +0.052 HD
ATOM     14  H   UNL     1      -0.695  11.427  21.335  0.00  0.00    +0.063 HD
ENDROOT
BRANCH   1  20
ATOM     15  C   UNL     1      -0.056  13.686  21.126  0.00  0.00    +0.026 C 
ATOM     16  C   UNL     1      -0.581  15.061  21.582  0.00  0.00    -0.007 C 
ATOM     17  C   UNL     1      -1.826  15.267  20.732  0.00  0.00    +0.073 C 
ATOM     18  C   UNL     1      -1.406  14.665  19.390  0.00  0.00    +0.041 C 
ATOM     19  N   UNL     1      -0.561  13.537  19.754  0.00  0.00    -0.292 N 
ATOM     20  C   UNL     1      -0.440  12.476  18.879  0.00  0.00    +0.247 C 
ATOM     21  O   UNL     1      -0.825  12.515  17.713  0.00  0.00    -0.270 OA
ATOM     22  H   UNL     1      -0.502  12.902  21.744  0.00  0.00    +0.050 HD
ATOM     23  H   UNL     1       0.148  15.854  21.367  0.00  0.00    +0.031 HD
ATOM     24  H   UNL     1      -0.787  15.070  22.658  0.00  0.00    +0.031 HD
ATOM     25  H   UNL     1      -2.126  16.316  20.649  0.00  0.00    +0.061 HD
ATOM     26  H   UNL     1      -0.788  15.362  18.811  0.00  0.00    +0.049 HD
ATOM     27  H   UNL     1      -2.259  14.335  18.788  0.00  0.00    +0.049 HD
BRANCH  15  28
ATOM     28  C   UNL     1       1.465  13.634  21.229  0.00  0.00    -0.046 C 
ATOM     29  H   UNL     1       1.809  13.966  22.216  0.00  0.00    +0.025 HD
ATOM     30  H   UNL     1       1.951  14.273  20.487  0.00  0.00    +0.025 HD
ATOM     31  H   UNL     1       1.823  12.610  21.069  0.00  0.00    +0.025 HD
ENDBRANCH  15  28
BRANCH  17  32
ATOM     32  O   UNL     1      -2.908  14.541  21.319  0.00  0.00    -0.390 OA
ATOM     33  H   UNL     1      -3.163  13.840  20.692  0.00  0.00    +0.210 HD
ENDBRANCH  17  32
ENDBRANCH   1  20
BRANCH   6  34
ATOM     34  C   UNL     1       3.189   6.021  18.898  0.00  0.00    +0.037 A 
ATOM     35  C   UNL     1       3.085   4.905  19.743  0.00  0.00    -0.040 A 
ATOM     36  C   UNL     1       3.814   3.738  19.494  0.00  0.00    -0.060 A 
ATOM     37  C   UNL     1       4.668   3.663  18.399  0.00  0.00    -0.058 A 
ATOM     38  C   UNL     1       4.810   4.761  17.544  0.00  0.00    -0.042 A 
ATOM     39  C   UNL     1       4.065   5.926  17.808  0.00  0.00    -0.037 A 
ATOM     40  H   UNL     1       2.429   4.900  20.608  0.00  0.00    +0.064 HD
ATOM     41  H   UNL     1       3.707   2.882  20.158  0.00  0.00    +0.062 HD
ATOM     42  H   UNL     1       5.219   2.742  18.222  0.00  0.00    +0.062 HD
ATOM     43  H   UNL     1       4.191   6.766  17.132  0.00  0.00    +0.064 HD
BRANCH  38  44
ATOM     44  C   UNL     1       5.719   4.716  16.322  0.00  0.00    -0.013 C 
ATOM     45  H   UNL     1       5.456   5.558  15.666  0.00  0.00    +0.035 HD
BRANCH  44  46
ATOM     46  C   UNL     1       5.456   3.436  15.518  0.00  0.00    -0.058 C 
ATOM     47  H   UNL     1       6.332   3.166  14.919  0.00  0.00    +0.024 HD
ATOM     48  H   UNL     1       4.609   3.566  14.837  0.00  0.00    +0.024 HD
ATOM     49  H   UNL     1       5.229   2.587  16.175  0.00  0.00    +0.024 HD
ENDBRANCH  44  46
BRANCH  44  50
ATOM     50  C   UNL     1       7.222   4.834  16.657  0.00  0.00    -0.004 C 
ATOM     51  H   UNL     1       7.802   4.784  15.724  0.00  0.00    +0.033 HD
ATOM     52  H   UNL     1       7.556   3.978  17.257  0.00  0.00    +0.033 HD
BRANCH  50  53
ATOM     53  C   UNL     1       7.581   6.108  17.355  0.00  0.00    +0.040 A 
ATOM     54  C   UNL     1       7.914   6.391  18.669  0.00  0.00    -0.010 A 
ATOM     55  C   UNL     1       8.168   7.782  18.671  0.00  0.00    +0.052 A 
ATOM     56  N   UNL     1       8.014   8.337  17.469  0.00  0.00    -0.182 NA
ATOM     57  N   UNL     1       7.643   7.307  16.693  0.00  0.00    -0.281 N 
ATOM     58  H   UNL     1       8.464   8.410  19.502  0.00  0.00    +0.085 HD
ATOM     59  H   UNL     1       7.458   7.493  15.712  0.00  0.00    +0.189 HD
BRANCH  54  60
ATOM     60  C   UNL     1       7.994   5.472  19.826  0.00  0.00    -0.037 C 
ATOM     61  H   UNL     1       8.882   5.673  20.433  0.00  0.00    +0.028 HD
ATOM     62  H   UNL     1       7.117   5.586  20.471  0.00  0.00    +0.028 HD
ATOM     63  H   UNL     1       8.035   4.433  19.483  0.00  0.00    +0.028 HD
ENDBRANCH  54  60
ENDBRANCH  50  53
ENDBRANCH  44  50
ENDBRANCH  38  44
ENDBRANCH   6  34
BRANCH   9  64
ATOM     64  C   UNL     1       0.198   9.053  22.583  0.00  0.00    +0.349 C 
ATOM     65  F   UNL     1       1.409   8.953  23.206  0.00  0.00    -0.183 F 
ATOM     66  F   UNL     1      -0.339   7.797  22.640  0.00  0.00    -0.183 F 
ATOM     67 CL   UNL     1      -0.845  10.109  23.571  0.00  0.00    -0.042 Cl
ENDBRANCH   9  64
TORSDOF 10
ENDMDL
MODEL 8
REMARK VINA RESULT:    -8.710      4.196     10.087
REMARK INTER + INTRA:         -11.799
REMARK INTER:                 -11.191
REMARK INTRA:                  -0.608
REMARK UNBOUND:                 0.984
REMARK  Name = 
REMARK  10 active torsions:
REMARK  status: ('A' for Active; 'I' for Inactive)
REMARK    1  A    between atoms: C_1  and  C_2
REMARK    2  A    between atoms: C_4  and  O_38
REMARK    3  A    between atoms: C_7  and  C_9
REMARK    4  A    between atoms: N_14  and  C_17
REMARK    5  A    between atoms: C_21  and  C_23
REMARK    6  A    between atoms: C_23  and  C_24
REMARK    7  A    between atoms: C_23  and  C_25
REMARK    8  A    between atoms: C_25  and  C_26
REMARK    9  A    between atoms: C_27  and  C_31
REMARK   10  A    between atoms: C_32  and  C_34
REMARK                            x       y       z     vdW  Elec       q    Type
REMARK                         _______ _______ _______ _____ _____    ______ ____
ROOT
ATOM      1  C   UNL     1      -0.955  12.556  20.633  0.00  0.00    +0.038 A 
ATOM      2  C   UNL     1       0.021  11.750  21.221  0.00  0.00    -0.037 A 
ATOM      3  C   UNL     1       0.326  10.570  20.575  0.00  0.00    +0.043 A 
ATOM      4  C   UNL     1      -0.268  10.188  19.370  0.00  0.00    -0.008 A 
ATOM      5  C   UNL     1       0.284   8.862  18.954  0.00  0.00    +0.046 C 
ATOM      6  N   UNL     1       1.209   8.516  20.024  0.00  0.00    -0.263 N 
ATOM      7  C   UNL     1       1.241   9.509  21.008  0.00  0.00    +0.251 C 
ATOM      8  O   UNL     1       1.841   9.576  22.063  0.00  0.00    -0.270 OA
ATOM      9  C   UNL     1      -1.228  10.994  18.744  0.00  0.00    +0.043 A 
ATOM     10  C   UNL     1      -1.566  12.192  19.411  0.00  0.00    -0.039 A 
ATOM     11  H   UNL     1       0.509  12.026  22.151  0.00  0.00    +0.063 HD
ATOM     12  H   UNL     1       0.834   8.953  18.010  0.00  0.00    +0.052 HD
ATOM     13  H   UNL     1      -0.510   8.110  18.894  0.00  0.00    +0.052 HD
ATOM     14  H   UNL     1      -2.313  12.871  18.992  0.00  0.00    +0.063 HD
ENDROOT
BRANCH   1  20
ATOM     15  C   UNL     1      -3.366  12.898  22.476  0.00  0.00    +0.026 C 
ATOM     16  C   UNL     1      -4.472  13.661  23.230  0.00  0.00    -0.007 C 
ATOM     17  C   UNL     1      -4.431  15.051  22.612  0.00  0.00    +0.073 C 
ATOM     18  C   UNL     1      -2.934  15.265  22.391  0.00  0.00    +0.041 C 
ATOM     19  N   UNL     1      -2.434  13.946  22.035  0.00  0.00    -0.292 N 
ATOM     20  C   UNL     1      -1.287  13.843  21.272  0.00  0.00    +0.247 C 
ATOM     21  O   UNL     1      -0.534  14.788  21.055  0.00  0.00    -0.270 OA
ATOM     22  H   UNL     1      -3.791  12.421  21.589  0.00  0.00    +0.050 HD
ATOM     23  H   UNL     1      -4.245  13.728  24.303  0.00  0.00    +0.031 HD
ATOM     24  H   UNL     1      -5.443  13.166  23.117  0.00  0.00    +0.031 HD
ATOM     25  H   UNL     1      -4.880  15.821  23.247  0.00  0.00    +0.061 HD
ATOM     26  H   UNL     1      -2.429  15.566  23.317  0.00  0.00    +0.049 HD
ATOM     27  H   UNL     1      -2.721  15.990  21.598  0.00  0.00    +0.049 HD
BRANCH  15  28
ATOM     28  C   UNL     1      -2.728  11.849  23.381  0.00  0.00    -0.046 C 
ATOM     29  H   UNL     1      -3.241  10.884  23.295  0.00  0.00    +0.025 HD
ATOM     30  H   UNL     1      -2.760  12.139  24.435  0.00  0.00    +0.025 HD
ATOM     31  H   UNL     1      -1.675  11.702  23.111  0.00  0.00    +0.025 HD
ENDBRANCH  15  28
BRANCH  17  32
ATOM     32  O   UNL     1      -5.147  15.023  21.375  0.00  0.00    -0.390 OA
ATOM     33  H   UNL     1      -5.552  14.141  21.292  0.00  0.00    +0.210 HD
ENDBRANCH  17  32
ENDBRANCH   1  20
BRANCH   6  34
ATOM     34  C   UNL     1       1.946   7.299  20.020  0.00  0.00    +0.037 A 
ATOM     35  C   UNL     1       1.663   6.286  20.949  0.00  0.00    -0.040 A 
ATOM     36  C   UNL     1       2.362   5.075  20.935  0.00  0.00    -0.060 A 
ATOM     37  C   UNL     1       3.363   4.853  19.995  0.00  0.00    -0.058 A 
ATOM     38  C   UNL     1       3.684   5.845  19.064  0.00  0.00    -0.042 A 
ATOM     39  C   UNL     1       2.966   7.057  19.091  0.00  0.00    -0.037 A 
ATOM     40  H   UNL     1       0.888   6.397  21.701  0.00  0.00    +0.064 HD
ATOM     41  H   UNL     1       2.117   4.300  21.659  0.00  0.00    +0.062 HD
ATOM     42  H   UNL     1       3.887   3.899  19.999  0.00  0.00    +0.062 HD
ATOM     43  H   UNL     1       3.232   7.814  18.359  0.00  0.00    +0.064 HD
BRANCH  38  44
ATOM     44  C   UNL     1       4.759   5.637  18.004  0.00  0.00    -0.013 C 
ATOM     45  H   UNL     1       5.661   5.252  18.499  0.00  0.00    +0.035 HD
BRANCH  44  46
ATOM     46  C   UNL     1       5.144   6.983  17.376  0.00  0.00    -0.058 C 
ATOM     47  H   UNL     1       4.835   7.815  18.017  0.00  0.00    +0.024 HD
ATOM     48  H   UNL     1       4.663   7.113  16.401  0.00  0.00    +0.024 HD
ATOM     49  H   UNL     1       6.228   7.064  17.228  0.00  0.00    +0.024 HD
ENDBRANCH  44  46
BRANCH  44  50
ATOM     50  C   UNL     1       4.362   4.631  16.901  0.00  0.00    -0.004 C 
ATOM     51  H   UNL     1       5.271   4.285  16.388  0.00  0.00    +0.033 HD
ATOM     52  H   UNL     1       3.755   5.117  16.129  0.00  0.00    +0.033 HD
BRANCH  50  53
ATOM     53  C   UNL     1       3.642   3.427  17.423  0.00  0.00    +0.040 A 
ATOM     54  C   UNL     1       2.298   3.157  17.623  0.00  0.00    -0.010 A 
ATOM     55  C   UNL     1       2.280   1.830  18.112  0.00  0.00    +0.052 A 
ATOM     56  N   UNL     1       3.499   1.299  18.213  0.00  0.00    -0.182 NA
ATOM     57  N   UNL     1       4.307   2.290  17.805  0.00  0.00    -0.281 N 
ATOM     58  H   UNL     1       1.424   1.229  18.395  0.00  0.00    +0.085 HD
ATOM     59  H   UNL     1       5.307   2.117  17.802  0.00  0.00    +0.189 HD
BRANCH  54  60
ATOM     60  C   UNL     1       1.130   4.033  17.389  0.00  0.00    -0.037 C 
ATOM     61  H   UNL     1       1.441   5.048  17.122  0.00  0.00    +0.028 HD
ATOM     62  H   UNL     1       0.515   3.648  16.570  0.00  0.00    +0.028 HD
ATOM     63  H   UNL     1       0.508   4.085  18.289  0.00  0.00    +0.028 HD
ENDBRANCH  54  60
ENDBRANCH  50  53
ENDBRANCH  44  50
ENDBRANCH  38  44
ENDBRANCH   6  34
BRANCH   9  64
ATOM     64  C   UNL     1      -1.906  10.523  17.472  0.00  0.00    +0.349 C 
ATOM     65  F   UNL     1      -1.086   9.687  16.770  0.00  0.00    -0.183 F 
ATOM     66  F   UNL     1      -2.171  11.561  16.622  0.00  0.00    -0.183 F 
ATOM     67 CL   UNL     1      -3.449   9.676  17.754  0.00  0.00    -0.042 Cl
ENDBRANCH   9  64
TORSDOF 10
ENDMDL
MODEL 9
REMARK VINA RESULT:    -8.696      3.954      9.982
REMARK INTER + INTRA:         -11.779
REMARK INTER:                 -11.354
REMARK INTRA:                  -0.425
REMARK UNBOUND:                 0.984
REMARK  Name = 
REMARK  10 active torsions:
REMARK  status: ('A' for Active; 'I' for Inactive)
REMARK    1  A    between atoms: C_1  and  C_2
REMARK    2  A    between atoms: C_4  and  O_38
REMARK    3  A    between atoms: C_7  and  C_9
REMARK    4  A    between atoms: N_14  and  C_17
REMARK    5  A    between atoms: C_21  and  C_23
REMARK    6  A    between atoms: C_23  and  C_24
REMARK    7  A    between atoms: C_23  and  C_25
REMARK    8  A    between atoms: C_25  and  C_26
REMARK    9  A    between atoms: C_27  and  C_31
REMARK   10  A    between atoms: C_32  and  C_34
REMARK                            x       y       z     vdW  Elec       q    Type
REMARK                         _______ _______ _______ _____ _____    ______ ____
ROOT
ATOM      1  C   UNL     1       0.095  10.044  21.490  0.00  0.00    +0.038 A 
ATOM      2  C   UNL     1       0.467   8.698  21.509  0.00  0.00    -0.037 A 
ATOM      3  C   UNL     1       1.232   8.249  20.452  0.00  0.00    +0.043 A 
ATOM      4  C   UNL     1       1.662   9.083  19.418  0.00  0.00    -0.008 A 
ATOM      5  C   UNL     1       2.462   8.276  18.444  0.00  0.00    +0.046 C 
ATOM      6  N   UNL     1       2.424   6.927  18.992  0.00  0.00    -0.263 N 
ATOM      7  C   UNL     1       1.687   6.881  20.179  0.00  0.00    +0.251 C 
ATOM      8  O   UNL     1       1.390   5.954  20.906  0.00  0.00    -0.270 OA
ATOM      9  C   UNL     1       1.330  10.443  19.392  0.00  0.00    +0.043 A 
ATOM     10  C   UNL     1       0.524  10.907  20.455  0.00  0.00    -0.039 A 
ATOM     11  H   UNL     1       0.157   8.029  22.305  0.00  0.00    +0.063 HD
ATOM     12  H   UNL     1       3.498   8.629  18.411  0.00  0.00    +0.052 HD
ATOM     13  H   UNL     1       1.993   8.285  17.453  0.00  0.00    +0.052 HD
ATOM     14  H   UNL     1       0.214  11.954  20.503  0.00  0.00    +0.063 HD
ENDROOT
BRANCH   1  20
ATOM     15  C   UNL     1      -1.609  12.567  21.255  0.00  0.00    +0.026 C 
ATOM     16  C   UNL     1      -2.386  13.800  21.755  0.00  0.00    -0.007 C 
ATOM     17  C   UNL     1      -1.972  13.913  23.215  0.00  0.00    +0.073 C 
ATOM     18  C   UNL     1      -1.886  12.448  23.644  0.00  0.00    +0.041 C 
ATOM     19  N   UNL     1      -1.383  11.760  22.463  0.00  0.00    -0.292 N 
ATOM     20  C   UNL     1      -0.694  10.574  22.617  0.00  0.00    +0.247 C 
ATOM     21  O   UNL     1      -0.662   9.943  23.670  0.00  0.00    -0.270 OA
ATOM     22  H   UNL     1      -0.637  12.881  20.865  0.00  0.00    +0.050 HD
ATOM     23  H   UNL     1      -3.470  13.636  21.691  0.00  0.00    +0.031 HD
ATOM     24  H   UNL     1      -2.138  14.690  21.166  0.00  0.00    +0.031 HD
ATOM     25  H   UNL     1      -2.677  14.490  23.822  0.00  0.00    +0.061 HD
ATOM     26  H   UNL     1      -2.877  12.034  23.865  0.00  0.00    +0.049 HD
ATOM     27  H   UNL     1      -1.219  12.294  24.498  0.00  0.00    +0.049 HD
BRANCH  15  28
ATOM     28  C   UNL     1      -2.400  11.840  20.171  0.00  0.00    -0.046 C 
ATOM     29  H   UNL     1      -1.925  10.890  19.901  0.00  0.00    +0.025 HD
ATOM     30  H   UNL     1      -2.483  12.431  19.255  0.00  0.00    +0.025 HD
ATOM     31  H   UNL     1      -3.417  11.627  20.520  0.00  0.00    +0.025 HD
ENDBRANCH  15  28
BRANCH  17  32
ATOM     32  O   UNL     1      -0.698  14.557  23.282  0.00  0.00    -0.390 OA
ATOM     33  H   UNL     1      -0.810  15.461  22.937  0.00  0.00    +0.210 HD
ENDBRANCH  17  32
ENDBRANCH   1  20
BRANCH   6  34
ATOM     34  C   UNL     1       3.064   5.833  18.347  0.00  0.00    +0.037 A 
ATOM     35  C   UNL     1       2.722   4.510  18.669  0.00  0.00    -0.040 A 
ATOM     36  C   UNL     1       3.323   3.428  18.020  0.00  0.00    -0.060 A 
ATOM     37  C   UNL     1       4.284   3.644  17.037  0.00  0.00    -0.058 A 
ATOM     38  C   UNL     1       4.663   4.947  16.700  0.00  0.00    -0.042 A 
ATOM     39  C   UNL     1       4.043   6.025  17.363  0.00  0.00    -0.037 A 
ATOM     40  H   UNL     1       1.974   4.278  19.420  0.00  0.00    +0.064 HD
ATOM     41  H   UNL     1       3.033   2.412  18.279  0.00  0.00    +0.062 HD
ATOM     42  H   UNL     1       4.733   2.786  16.541  0.00  0.00    +0.062 HD
ATOM     43  H   UNL     1       4.352   7.028  17.086  0.00  0.00    +0.064 HD
BRANCH  38  44
ATOM     44  C   UNL     1       5.696   5.231  15.618  0.00  0.00    -0.013 C 
ATOM     45  H   UNL     1       5.673   6.306  15.391  0.00  0.00    +0.035 HD
BRANCH  44  46
ATOM     46  C   UNL     1       5.314   4.502  14.323  0.00  0.00    -0.058 C 
ATOM     47  H   UNL     1       6.148   4.508  13.612  0.00  0.00    +0.024 HD
ATOM     48  H   UNL     1       4.456   4.981  13.840  0.00  0.00    +0.024 HD
ATOM     49  H   UNL     1       5.048   3.454  14.513  0.00  0.00    +0.024 HD
ENDBRANCH  44  46
BRANCH  44  50
ATOM     50  C   UNL     1       7.142   4.869  16.024  0.00  0.00    -0.004 C 
ATOM     51  H   UNL     1       7.840   5.330  15.312  0.00  0.00    +0.033 HD
ATOM     52  H   UNL     1       7.311   3.788  15.944  0.00  0.00    +0.033 HD
BRANCH  50  53
ATOM     53  C   UNL     1       7.511   5.335  17.398  0.00  0.00    +0.040 A 
ATOM     54  C   UNL     1       7.674   6.597  17.943  0.00  0.00    -0.010 A 
ATOM     55  C   UNL     1       7.997   6.351  19.298  0.00  0.00    +0.052 A 
ATOM     56  N   UNL     1       8.035   5.052  19.592  0.00  0.00    -0.182 NA
ATOM     57  N   UNL     1       7.752   4.457  18.423  0.00  0.00    -0.281 N 
ATOM     58  H   UNL     1       8.202   7.070  20.081  0.00  0.00    +0.085 HD
ATOM     59  H   UNL     1       7.730   3.442  18.398  0.00  0.00    +0.189 HD
BRANCH  54  60
ATOM     60  C   UNL     1       7.547   7.917  17.286  0.00  0.00    -0.037 C 
ATOM     61  H   UNL     1       6.852   8.566  17.828  0.00  0.00    +0.028 HD
ATOM     62  H   UNL     1       8.516   8.425  17.249  0.00  0.00    +0.028 HD
ATOM     63  H   UNL     1       7.184   7.797  16.260  0.00  0.00    +0.028 HD
ENDBRANCH  54  60
ENDBRANCH  50  53
ENDBRANCH  44  50
ENDBRANCH  38  44
ENDBRANCH   6  34
BRANCH   9  64
ATOM     64  C   UNL     1       1.753  11.309  18.222  0.00  0.00    +0.349 C 
ATOM     65  F   UNL     1       1.524  10.667  17.040  0.00  0.00    -0.183 F 
ATOM     66  F   UNL     1       3.097  11.562  18.237  0.00  0.00    -0.183 F 
ATOM     67 CL   UNL     1       0.928  12.888  18.163  0.00  0.00    -0.042 Cl
ENDBRANCH   9  64
TORSDOF 10
ENDMDL
MODEL 10
REMARK VINA RESULT:    -8.671      4.649     10.671
REMARK INTER + INTRA:         -11.742
REMARK INTER:                 -10.634
REMARK INTRA:                  -1.108
REMARK UNBOUND:                 0.984
REMARK  Name = 
REMARK  10 active torsions:
REMARK  status: ('A' for Active; 'I' for Inactive)
REMARK    1  A    between atoms: C_1  and  C_2
REMARK    2  A    between atoms: C_4  and  O_38
REMARK    3  A    between atoms: C_7  and  C_9
REMARK    4  A    between atoms: N_14  and  C_17
REMARK    5  A    between atoms: C_21  and  C_23
REMARK    6  A    between atoms: C_23  and  C_24
REMARK    7  A    between atoms: C_23  and  C_25
REMARK    8  A    between atoms: C_25  and  C_26
REMARK    9  A    between atoms: C_27  and  C_31
REMARK   10  A    between atoms: C_32  and  C_34
REMARK                            x       y       z     vdW  Elec       q    Type
REMARK                         _______ _______ _______ _____ _____    ______ ____
ROOT
ATOM      1  C   UNL     1      -1.415  13.228  20.892  0.00  0.00    +0.038 A 
ATOM      2  C   UNL     1      -1.444  11.870  21.214  0.00  0.00    -0.037 A 
ATOM      3  C   UNL     1      -0.403  11.096  20.744  0.00  0.00    +0.043 A 
ATOM      4  C   UNL     1       0.663  11.622  20.011  0.00  0.00    -0.008 A 
ATOM      5  C   UNL     1       1.605  10.514  19.660  0.00  0.00    +0.046 C 
ATOM      6  N   UNL     1       0.977   9.328  20.224  0.00  0.00    -0.263 N 
ATOM      7  C   UNL     1      -0.227   9.645  20.862  0.00  0.00    +0.251 C 
ATOM      8  O   UNL     1      -1.055   8.944  21.409  0.00  0.00    -0.270 OA
ATOM      9  C   UNL     1       0.732  12.987  19.702  0.00  0.00    +0.043 A 
ATOM     10  C   UNL     1      -0.342  13.783  20.156  0.00  0.00    -0.039 A 
ATOM     11  H   UNL     1      -2.254  11.435  21.792  0.00  0.00    +0.063 HD
ATOM     12  H   UNL     1       2.580  10.672  20.134  0.00  0.00    +0.052 HD
ATOM     13  H   UNL     1       1.691  10.405  18.573  0.00  0.00    +0.052 HD
ATOM     14  H   UNL     1      -0.368  14.856  19.947  0.00  0.00    +0.063 HD
ENDROOT
BRANCH   1  20
ATOM     15  C   UNL     1      -1.288  14.547  23.643  0.00  0.00    +0.026 C 
ATOM     16  C   UNL     1      -1.838  15.226  24.912  0.00  0.00    -0.007 C 
ATOM     17  C   UNL     1      -3.341  15.017  24.805  0.00  0.00    +0.073 C 
ATOM     18  C   UNL     1      -3.586  15.179  23.305  0.00  0.00    +0.041 C 
ATOM     19  N   UNL     1      -2.402  14.603  22.685  0.00  0.00    -0.292 N 
ATOM     20  C   UNL     1      -2.490  14.098  21.403  0.00  0.00    +0.247 C 
ATOM     21  O   UNL     1      -3.449  14.299  20.663  0.00  0.00    -0.270 OA
ATOM     22  H   UNL     1      -1.069  13.497  23.855  0.00  0.00    +0.050 HD
ATOM     23  H   UNL     1      -1.614  16.302  24.913  0.00  0.00    +0.031 HD
ATOM     24  H   UNL     1      -1.404  14.786  25.817  0.00  0.00    +0.031 HD
ATOM     25  H   UNL     1      -3.921  15.723  25.407  0.00  0.00    +0.061 HD
ATOM     26  H   UNL     1      -3.624  16.236  23.014  0.00  0.00    +0.049 HD
ATOM     27  H   UNL     1      -4.493  14.667  22.965  0.00  0.00    +0.049 HD
BRANCH  15  28
ATOM     28  C   UNL     1      -0.028  15.259  23.160  0.00  0.00    -0.046 C 
ATOM     29  H   UNL     1       0.873  14.819  23.604  0.00  0.00    +0.025 HD
ATOM     30  H   UNL     1      -0.029  16.321  23.418  0.00  0.00    +0.025 HD
ATOM     31  H   UNL     1       0.058  15.184  22.069  0.00  0.00    +0.025 HD
ENDBRANCH  15  28
BRANCH  17  32
ATOM     32  O   UNL     1      -3.653  13.695  25.249  0.00  0.00    -0.390 OA
ATOM     33  H   UNL     1      -4.385  13.767  25.888  0.00  0.00    +0.210 HD
ENDBRANCH  17  32
ENDBRANCH   1  20
BRANCH   6  34
ATOM     34  C   UNL     1       1.555   8.034  20.096  0.00  0.00    +0.037 A 
ATOM     35  C   UNL     1       1.443   7.092  21.131  0.00  0.00    -0.040 A 
ATOM     36  C   UNL     1       1.982   5.809  21.003  0.00  0.00    -0.060 A 
ATOM     37  C   UNL     1       2.649   5.440  19.839  0.00  0.00    -0.058 A 
ATOM     38  C   UNL     1       2.794   6.356  18.793  0.00  0.00    -0.042 A 
ATOM     39  C   UNL     1       2.241   7.644  18.938  0.00  0.00    -0.037 A 
ATOM     40  H   UNL     1       0.928   7.319  22.059  0.00  0.00    +0.064 HD
ATOM     41  H   UNL     1       1.873   5.093  21.815  0.00  0.00    +0.062 HD
ATOM     42  H   UNL     1       3.053   4.433  19.760  0.00  0.00    +0.062 HD
ATOM     43  H   UNL     1       2.366   8.339  18.114  0.00  0.00    +0.064 HD
BRANCH  38  44
ATOM     44  C   UNL     1       3.500   5.989  17.494  0.00  0.00    -0.013 C 
ATOM     45  H   UNL     1       2.883   6.340  16.655  0.00  0.00    +0.035 HD
BRANCH  44  46
ATOM     46  C   UNL     1       3.594   4.464  17.360  0.00  0.00    -0.058 C 
ATOM     47  H   UNL     1       4.595   4.110  17.630  0.00  0.00    +0.024 HD
ATOM     48  H   UNL     1       3.391   4.146  16.332  0.00  0.00    +0.024 HD
ATOM     49  H   UNL     1       2.876   3.956  18.015  0.00  0.00    +0.024 HD
ENDBRANCH  44  46
BRANCH  44  50
ATOM     50  C   UNL     1       4.901   6.623  17.343  0.00  0.00    -0.004 C 
ATOM     51  H   UNL     1       5.398   6.631  18.323  0.00  0.00    +0.033 HD
ATOM     52  H   UNL     1       4.823   7.675  17.044  0.00  0.00    +0.033 HD
BRANCH  50  53
ATOM     53  C   UNL     1       5.786   5.892  16.383  0.00  0.00    +0.040 A 
ATOM     54  C   UNL     1       6.913   5.107  16.564  0.00  0.00    -0.010 A 
ATOM     55  C   UNL     1       7.259   4.690  15.257  0.00  0.00    +0.052 A 
ATOM     56  N   UNL     1       6.429   5.162  14.328  0.00  0.00    -0.182 NA
ATOM     57  N   UNL     1       5.556   5.899  15.032  0.00  0.00    -0.281 N 
ATOM     58  H   UNL     1       8.082   4.057  14.950  0.00  0.00    +0.085 HD
ATOM     59  H   UNL     1       4.816   6.374  14.523  0.00  0.00    +0.189 HD
BRANCH  54  60
ATOM     60  C   UNL     1       7.616   4.767  17.821  0.00  0.00    -0.037 C 
ATOM     61  H   UNL     1       7.468   3.715  18.087  0.00  0.00    +0.028 HD
ATOM     62  H   UNL     1       8.693   4.935  17.719  0.00  0.00    +0.028 HD
ATOM     63  H   UNL     1       7.248   5.389  18.642  0.00  0.00    +0.028 HD
ENDBRANCH  54  60
ENDBRANCH  50  53
ENDBRANCH  44  50
ENDBRANCH  38  44
ENDBRANCH   6  34
BRANCH   9  64
ATOM     64  C   UNL     1       1.866  13.518  18.847  0.00  0.00    +0.349 C 
ATOM     65  F   UNL     1       1.913  12.865  17.650  0.00  0.00    -0.183 F 
ATOM     66  F   UNL     1       3.086  13.295  19.424  0.00  0.00    -0.183 F 
ATOM     67 CL   UNL     1       1.758  15.267  18.519  0.00  0.00    -0.042 Cl
ENDBRANCH   9  64
TORSDOF 10
ENDMDL
MODEL 11
REMARK VINA RESULT:    -8.567      4.613     10.734
REMARK INTER + INTRA:         -11.589
REMARK INTER:                 -10.420
REMARK INTRA:                  -1.169
REMARK UNBOUND:                 0.984
REMARK  Name = 
REMARK  10 active torsions:
REMARK  status: ('A' for Active; 'I' for Inactive)
REMARK    1  A    between atoms: C_1  and  C_2
REMARK    2  A    between atoms: C_4  and  O_38
REMARK    3  A    between atoms: C_7  and  C_9
REMARK    4  A    between atoms: N_14  and  C_17
REMARK    5  A    between atoms: C_21  and  C_23
REMARK    6  A    between atoms: C_23  and  C_24
REMARK    7  A    between atoms: C_23  and  C_25
REMARK    8  A    between atoms: C_25  and  C_26
REMARK    9  A    between atoms: C_27  and  C_31
REMARK   10  A    between atoms: C_32  and  C_34
REMARK                            x       y       z     vdW  Elec       q    Type
REMARK                         _______ _______ _______ _____ _____    ______ ____
ROOT
ATOM      1  C   UNL     1      -1.554  13.173  20.674  0.00  0.00    +0.038 A 
ATOM      2  C   UNL     1      -1.522  11.816  20.997  0.00  0.00    -0.037 A 
ATOM      3  C   UNL     1      -0.449  11.089  20.524  0.00  0.00    +0.043 A 
ATOM      4  C   UNL     1       0.591  11.661  19.789  0.00  0.00    -0.008 A 
ATOM      5  C   UNL     1       1.580  10.596  19.436  0.00  0.00    +0.046 C 
ATOM      6  N   UNL     1       1.006   9.383  20.001  0.00  0.00    -0.263 N 
ATOM      7  C   UNL     1      -0.209   9.647  20.642  0.00  0.00    +0.251 C 
ATOM      8  O   UNL     1      -1.004   8.910  21.191  0.00  0.00    -0.270 OA
ATOM      9  C   UNL     1       0.599  13.027  19.480  0.00  0.00    +0.043 A 
ATOM     10  C   UNL     1      -0.509  13.775  19.935  0.00  0.00    -0.039 A 
ATOM     11  H   UNL     1      -2.311  11.345  21.576  0.00  0.00    +0.063 HD
ATOM     12  H   UNL     1       2.548  10.797  19.908  0.00  0.00    +0.052 HD
ATOM     13  H   UNL     1       1.668  10.490  18.349  0.00  0.00    +0.052 HD
ATOM     14  H   UNL     1      -0.582  14.846  19.727  0.00  0.00    +0.063 HD
ENDROOT
BRANCH   1  20
ATOM     15  C   UNL     1      -1.557  14.351  23.492  0.00  0.00    +0.026 C 
ATOM     16  C   UNL     1      -2.168  14.952  24.772  0.00  0.00    -0.007 C 
ATOM     17  C   UNL     1      -3.661  14.720  24.597  0.00  0.00    +0.073 C 
ATOM     18  C   UNL     1      -3.854  14.955  23.099  0.00  0.00    +0.041 C 
ATOM     19  N   UNL     1      -2.636  14.434  22.497  0.00  0.00    -0.292 N 
ATOM     20  C   UNL     1      -2.666  13.995  21.188  0.00  0.00    +0.247 C 
ATOM     21  O   UNL     1      -3.601  14.216  20.423  0.00  0.00    -0.270 OA
ATOM     22  H   UNL     1      -1.325  13.296  23.659  0.00  0.00    +0.050 HD
ATOM     23  H   UNL     1      -1.967  16.030  24.837  0.00  0.00    +0.031 HD
ATOM     24  H   UNL     1      -1.759  14.474  25.669  0.00  0.00    +0.031 HD
ATOM     25  H   UNL     1      -4.278  15.383  25.213  0.00  0.00    +0.061 HD
ATOM     26  H   UNL     1      -3.903  16.024  22.862  0.00  0.00    +0.049 HD
ATOM     27  H   UNL     1      -4.736  14.444  22.699  0.00  0.00    +0.049 HD
BRANCH  15  28
ATOM     28  C   UNL     1      -0.295  15.110  23.094  0.00  0.00    -0.046 C 
ATOM     29  H   UNL     1      -0.360  16.167  23.380  0.00  0.00    +0.025 HD
ATOM     30  H   UNL     1      -0.116  15.079  22.017  0.00  0.00    +0.025 HD
ATOM     31  H   UNL     1       0.582  14.676  23.588  0.00  0.00    +0.025 HD
ENDBRANCH  15  28
BRANCH  17  32
ATOM     32  O   UNL     1      -3.961  13.371  24.961  0.00  0.00    -0.390 OA
ATOM     33  H   UNL     1      -3.281  12.802  24.557  0.00  0.00    +0.210 HD
ENDBRANCH  17  32
ENDBRANCH   1  20
BRANCH   6  34
ATOM     34  C   UNL     1       1.641   8.116  19.872  0.00  0.00    +0.037 A 
ATOM     35  C   UNL     1       1.602   7.184  20.920  0.00  0.00    -0.040 A 
ATOM     36  C   UNL     1       2.197   5.925  20.792  0.00  0.00    -0.060 A 
ATOM     37  C   UNL     1       2.849   5.573  19.615  0.00  0.00    -0.058 A 
ATOM     38  C   UNL     1       2.922   6.481  18.554  0.00  0.00    -0.042 A 
ATOM     39  C   UNL     1       2.313   7.743  18.700  0.00  0.00    -0.037 A 
ATOM     40  H   UNL     1       1.102   7.398  21.860  0.00  0.00    +0.064 HD
ATOM     41  H   UNL     1       2.144   5.215  21.615  0.00  0.00    +0.062 HD
ATOM     42  H   UNL     1       3.297   4.585  19.536  0.00  0.00    +0.062 HD
ATOM     43  H   UNL     1       2.382   8.433  17.865  0.00  0.00    +0.064 HD
BRANCH  38  44
ATOM     44  C   UNL     1       3.607   6.131  17.240  0.00  0.00    -0.013 C 
ATOM     45  H   UNL     1       2.962   6.462  16.415  0.00  0.00    +0.035 HD
BRANCH  44  46
ATOM     46  C   UNL     1       3.742   4.608  17.107  0.00  0.00    -0.058 C 
ATOM     47  H   UNL     1       4.027   4.330  16.086  0.00  0.00    +0.024 HD
ATOM     48  H   UNL     1       2.796   4.108  17.341  0.00  0.00    +0.024 HD
ATOM     49  H   UNL     1       4.507   4.210  17.785  0.00  0.00    +0.024 HD
ENDBRANCH  44  46
BRANCH  44  50
ATOM     50  C   UNL     1       4.986   6.803  17.056  0.00  0.00    -0.004 C 
ATOM     51  H   UNL     1       5.018   7.725  17.654  0.00  0.00    +0.033 HD
ATOM     52  H   UNL     1       5.129   7.122  16.016  0.00  0.00    +0.033 HD
BRANCH  50  53
ATOM     53  C   UNL     1       6.133   5.939  17.479  0.00  0.00    +0.040 A 
ATOM     54  C   UNL     1       6.966   5.084  16.777  0.00  0.00    -0.010 A 
ATOM     55  C   UNL     1       7.862   4.593  17.755  0.00  0.00    +0.052 A 
ATOM     56  N   UNL     1       7.625   5.089  18.969  0.00  0.00    -0.182 NA
ATOM     57  N   UNL     1       6.564   5.889  18.779  0.00  0.00    -0.281 N 
ATOM     58  H   UNL     1       8.680   3.895  17.626  0.00  0.00    +0.085 HD
ATOM     59  H   UNL     1       6.190   6.382  19.584  0.00  0.00    +0.189 HD
BRANCH  54  60
ATOM     60  C   UNL     1       6.948   4.743  15.337  0.00  0.00    -0.037 C 
ATOM     61  H   UNL     1       6.060   5.151  14.843  0.00  0.00    +0.028 HD
ATOM     62  H   UNL     1       7.828   5.154  14.831  0.00  0.00    +0.028 HD
ATOM     63  H   UNL     1       6.952   3.657  15.204  0.00  0.00    +0.028 HD
ENDBRANCH  54  60
ENDBRANCH  50  53
ENDBRANCH  44  50
ENDBRANCH  38  44
ENDBRANCH   6  34
BRANCH   9  64
ATOM     64  C   UNL     1       1.706  13.608  18.622  0.00  0.00    +0.349 C 
ATOM     65  F   UNL     1       1.346  14.831  18.133  0.00  0.00    -0.183 F 
ATOM     66  F   UNL     1       1.951  12.839  17.519  0.00  0.00    -0.183 F 
ATOM     67 CL   UNL     1       3.257  13.792  19.482  0.00  0.00    -0.042 Cl
ENDBRANCH   9  64
TORSDOF 10
ENDMDL
MODEL 12
REMARK VINA RESULT:    -8.357      1.646      2.329
REMARK INTER + INTRA:         -11.281
REMARK INTER:                 -12.018
REMARK INTRA:                   0.736
REMARK UNBOUND:                 0.984
REMARK  Name = 
REMARK  10 active torsions:
REMARK  status: ('A' for Active; 'I' for Inactive)
REMARK    1  A    between atoms: C_1  and  C_2
REMARK    2  A    between atoms: C_4  and  O_38
REMARK    3  A    between atoms: C_7  and  C_9
REMARK    4  A    between atoms: N_14  and  C_17
REMARK    5  A    between atoms: C_21  and  C_23
REMARK    6  A    between atoms: C_23  and  C_24
REMARK    7  A    between atoms: C_23  and  C_25
REMARK    8  A    between atoms: C_25  and  C_26
REMARK    9  A    between atoms: C_27  and  C_31
REMARK   10  A    between atoms: C_32  and  C_34
REMARK                            x       y       z     vdW  Elec       q    Type
REMARK                         _______ _______ _______ _____ _____    ______ ____
ROOT
ATOM      1  C   UNL     1       3.646   6.726  17.537  0.00  0.00    +0.038 A 
ATOM      2  C   UNL     1       3.090   7.985  17.767  0.00  0.00    -0.037 A 
ATOM      3  C   UNL     1       2.295   8.119  18.888  0.00  0.00    +0.043 A 
ATOM      4  C   UNL     1       2.070   7.075  19.788  0.00  0.00    -0.008 A 
ATOM      5  C   UNL     1       1.166   7.560  20.877  0.00  0.00    +0.046 C 
ATOM      6  N   UNL     1       0.880   8.939  20.508  0.00  0.00    -0.263 N 
ATOM      7  C   UNL     1       1.528   9.292  19.320  0.00  0.00    +0.251 C 
ATOM      8  O   UNL     1       1.510  10.318  18.669  0.00  0.00    -0.270 OA
ATOM      9  C   UNL     1       2.643   5.811  19.597  0.00  0.00    +0.043 A 
ATOM     10  C   UNL     1       3.436   5.656  18.439  0.00  0.00    -0.039 A 
ATOM     11  H   UNL     1       3.256   8.818  17.091  0.00  0.00    +0.063 HD
ATOM     12  H   UNL     1       1.682   7.539  21.843  0.00  0.00    +0.052 HD
ATOM     13  H   UNL     1       0.235   6.982  20.897  0.00  0.00    +0.052 HD
ATOM     14  H   UNL     1       3.911   4.698  18.213  0.00  0.00    +0.063 HD
ENDROOT
BRANCH   1  20
ATOM     15  C   UNL     1       4.899   4.033  16.825  0.00  0.00    +0.026 C 
ATOM     16  C   UNL     1       5.909   3.074  16.169  0.00  0.00    -0.007 C 
ATOM     17  C   UNL     1       7.015   3.999  15.682  0.00  0.00    +0.073 C 
ATOM     18  C   UNL     1       6.230   5.224  15.210  0.00  0.00    +0.041 C 
ATOM     19  N   UNL     1       5.121   5.319  16.149  0.00  0.00    -0.292 N 
ATOM     20  C   UNL     1       4.530   6.547  16.370  0.00  0.00    +0.247 C 
ATOM     21  O   UNL     1       4.733   7.532  15.664  0.00  0.00    -0.270 OA
ATOM     22  H   UNL     1       5.144   4.155  17.884  0.00  0.00    +0.050 HD
ATOM     23  H   UNL     1       5.461   2.552  15.312  0.00  0.00    +0.031 HD
ATOM     24  H   UNL     1       6.261   2.319  16.881  0.00  0.00    +0.031 HD
ATOM     25  H   UNL     1       7.630   3.561  14.890  0.00  0.00    +0.061 HD
ATOM     26  H   UNL     1       5.800   5.068  14.214  0.00  0.00    +0.049 HD
ATOM     27  H   UNL     1       6.828   6.140  15.219  0.00  0.00    +0.049 HD
BRANCH  15  28
ATOM     28  C   UNL     1       3.478   3.498  16.674  0.00  0.00    -0.046 C 
ATOM     29  H   UNL     1       3.478   2.471  16.290  0.00  0.00    +0.025 HD
ATOM     30  H   UNL     1       2.881   4.100  15.983  0.00  0.00    +0.025 HD
ATOM     31  H   UNL     1       2.964   3.501  17.643  0.00  0.00    +0.025 HD
ENDBRANCH  15  28
BRANCH  17  32
ATOM     32  O   UNL     1       7.868   4.313  16.784  0.00  0.00    -0.390 OA
ATOM     33  H   UNL     1       7.451   5.043  17.277  0.00  0.00    +0.210 HD
ENDBRANCH  17  32
ENDBRANCH   1  20
BRANCH   6  34
ATOM     34  C   UNL     1       0.027   9.768  21.289  0.00  0.00    +0.037 A 
ATOM     35  C   UNL     1      -0.167   9.513  22.656  0.00  0.00    -0.040 A 
ATOM     36  C   UNL     1      -0.979  10.339  23.438  0.00  0.00    -0.060 A 
ATOM     37  C   UNL     1      -1.619  11.435  22.871  0.00  0.00    -0.058 A 
ATOM     38  C   UNL     1      -1.463  11.712  21.509  0.00  0.00    -0.042 A 
ATOM     39  C   UNL     1      -0.638  10.871  20.737  0.00  0.00    -0.037 A 
ATOM     40  H   UNL     1       0.313   8.678  23.157  0.00  0.00    +0.064 HD
ATOM     41  H   UNL     1      -1.104  10.127  24.498  0.00  0.00    +0.062 HD
ATOM     42  H   UNL     1      -2.240  12.068  23.502  0.00  0.00    +0.062 HD
ATOM     43  H   UNL     1      -0.531  11.104  19.682  0.00  0.00    +0.064 HD
BRANCH  38  44
ATOM     44  C   UNL     1      -2.129  12.913  20.850  0.00  0.00    -0.013 C 
ATOM     45  H   UNL     1      -1.427  13.340  20.121  0.00  0.00    +0.035 HD
BRANCH  44  46
ATOM     46  C   UNL     1      -2.396  14.005  21.894  0.00  0.00    -0.058 C 
ATOM     47  H   UNL     1      -2.720  14.934  21.413  0.00  0.00    +0.024 HD
ATOM     48  H   UNL     1      -1.493  14.223  22.474  0.00  0.00    +0.024 HD
ATOM     49  H   UNL     1      -3.181  13.706  22.600  0.00  0.00    +0.024 HD
ENDBRANCH  44  46
BRANCH  44  50
ATOM     50  C   UNL     1      -3.434  12.568  20.098  0.00  0.00    -0.004 C 
ATOM     51  H   UNL     1      -3.996  13.494  19.912  0.00  0.00    +0.033 HD
ATOM     52  H   UNL     1      -4.090  11.946  20.719  0.00  0.00    +0.033 HD
BRANCH  50  53
ATOM     53  C   UNL     1      -3.204  11.897  18.780  0.00  0.00    +0.040 A 
ATOM     54  C   UNL     1      -2.159  11.953  17.873  0.00  0.00    -0.010 A 
ATOM     55  C   UNL     1      -2.544  11.062  16.845  0.00  0.00    +0.052 A 
ATOM     56  N   UNL     1      -3.724  10.486  17.074  0.00  0.00    -0.182 NA
ATOM     57  N   UNL     1      -4.111  11.019  18.244  0.00  0.00    -0.281 N 
ATOM     58  H   UNL     1      -2.006  10.808  15.940  0.00  0.00    +0.085 HD
ATOM     59  H   UNL     1      -5.006  10.729  18.626  0.00  0.00    +0.189 HD
BRANCH  54  60
ATOM     60  C   UNL     1      -0.916  12.753  17.937  0.00  0.00    -0.037 C 
ATOM     61  H   UNL     1      -0.270  12.552  17.076  0.00  0.00    +0.028 HD
ATOM     62  H   UNL     1      -1.144  13.823  17.938  0.00  0.00    +0.028 HD
ATOM     63  H   UNL     1      -0.361  12.519  18.851  0.00  0.00    +0.028 HD
ENDBRANCH  54  60
ENDBRANCH  50  53
ENDBRANCH  44  50
ENDBRANCH  38  44
ENDBRANCH   6  34
BRANCH   9  64
ATOM     64  C   UNL     1       2.326   4.679  20.553  0.00  0.00    +0.349 C 
ATOM     65  F   UNL     1       1.004   4.347  20.486  0.00  0.00    -0.183 F 
ATOM     66  F   UNL     1       2.539   5.038  21.855  0.00  0.00    -0.183 F 
ATOM     67 CL   UNL     1       3.282   3.203  20.258  0.00  0.00    -0.042 Cl
ENDBRANCH   9  64
TORSDOF 10
ENDMDL
MODEL 13
REMARK VINA RESULT:    -8.344      1.221      1.488
REMARK INTER + INTRA:         -11.262
REMARK INTER:                 -10.469
REMARK INTRA:                  -0.793
REMARK UNBOUND:                 0.984
REMARK  Name = 
REMARK  10 active torsions:
REMARK  status: ('A' for Active; 'I' for Inactive)
REMARK    1  A    between atoms: C_1  and  C_2
REMARK    2  A    between atoms: C_4  and  O_38
REMARK    3  A    between atoms: C_7  and  C_9
REMARK    4  A    between atoms: N_14  and  C_17
REMARK    5  A    between atoms: C_21  and  C_23
REMARK    6  A    between atoms: C_23  and  C_24
REMARK    7  A    between atoms: C_23  and  C_25
REMARK    8  A    between atoms: C_25  and  C_26
REMARK    9  A    between atoms: C_27  and  C_31
REMARK   10  A    between atoms: C_32  and  C_34
REMARK                            x       y       z     vdW  Elec       q    Type
REMARK                         _______ _______ _______ _____ _____    ______ ____
ROOT
ATOM      1  C   UNL     1       3.641   4.169  17.669  0.00  0.00    +0.038 A 
ATOM      2  C   UNL     1       3.542   5.560  17.692  0.00  0.00    -0.037 A 
ATOM      3  C   UNL     1       2.766   6.113  18.691  0.00  0.00    +0.043 A 
ATOM      4  C   UNL     1       2.130   5.347  19.670  0.00  0.00    -0.008 A 
ATOM      5  C   UNL     1       1.377   6.258  20.587  0.00  0.00    +0.046 C 
ATOM      6  N   UNL     1       1.614   7.585  20.035  0.00  0.00    -0.263 N 
ATOM      7  C   UNL     1       2.426   7.525  18.898  0.00  0.00    +0.251 C 
ATOM      8  O   UNL     1       2.812   8.392  18.139  0.00  0.00    -0.270 OA
ATOM      9  C   UNL     1       2.241   3.951  19.688  0.00  0.00    +0.043 A 
ATOM     10  C   UNL     1       3.009   3.374  18.654  0.00  0.00    -0.039 A 
ATOM     11  H   UNL     1       4.034   6.183  16.951  0.00  0.00    +0.063 HD
ATOM     12  H   UNL     1       1.785   6.206  21.602  0.00  0.00    +0.052 HD
ATOM     13  H   UNL     1       0.305   6.035  20.564  0.00  0.00    +0.052 HD
ATOM     14  H   UNL     1       3.136   2.289  18.593  0.00  0.00    +0.063 HD
ENDROOT
BRANCH   1  20
ATOM     15  C   UNL     1       6.424   5.211  16.970  0.00  0.00    +0.026 C 
ATOM     16  C   UNL     1       7.683   5.411  16.104  0.00  0.00    -0.007 C 
ATOM     17  C   UNL     1       7.261   4.890  14.738  0.00  0.00    +0.073 C 
ATOM     18  C   UNL     1       6.385   3.691  15.103  0.00  0.00    +0.041 C 
ATOM     19  N   UNL     1       5.705   4.105  16.321  0.00  0.00    -0.292 N 
ATOM     20  C   UNL     1       4.486   3.538  16.639  0.00  0.00    +0.247 C 
ATOM     21  O   UNL     1       4.037   2.544  16.074  0.00  0.00    -0.270 OA
ATOM     22  H   UNL     1       5.798   6.106  16.918  0.00  0.00    +0.050 HD
ATOM     23  H   UNL     1       8.523   4.814  16.483  0.00  0.00    +0.031 HD
ATOM     24  H   UNL     1       7.990   6.463  16.088  0.00  0.00    +0.031 HD
ATOM     25  H   UNL     1       8.107   4.616  14.098  0.00  0.00    +0.061 HD
ATOM     26  H   UNL     1       6.989   2.810  15.351  0.00  0.00    +0.049 HD
ATOM     27  H   UNL     1       5.663   3.439  14.320  0.00  0.00    +0.049 HD
BRANCH  15  28
ATOM     28  C   UNL     1       6.812   4.925  18.418  0.00  0.00    -0.046 C 
ATOM     29  H   UNL     1       6.401   5.681  19.097  0.00  0.00    +0.025 HD
ATOM     30  H   UNL     1       7.896   4.918  18.561  0.00  0.00    +0.025 HD
ATOM     31  H   UNL     1       6.432   3.944  18.727  0.00  0.00    +0.025 HD
ENDBRANCH  15  28
BRANCH  17  32
ATOM     32  O   UNL     1       6.511   5.906  14.070  0.00  0.00    -0.390 OA
ATOM     33  H   UNL     1       6.340   5.594  13.163  0.00  0.00    +0.210 HD
ENDBRANCH  17  32
ENDBRANCH   1  20
BRANCH   6  34
ATOM     34  C   UNL     1       1.051   8.755  20.616  0.00  0.00    +0.037 A 
ATOM     35  C   UNL     1       0.699   8.785  21.974  0.00  0.00    -0.040 A 
ATOM     36  C   UNL     1       0.172   9.939  22.561  0.00  0.00    -0.060 A 
ATOM     37  C   UNL     1      -0.020  11.088  21.801  0.00  0.00    -0.058 A 
ATOM     38  C   UNL     1       0.304  11.092  20.440  0.00  0.00    -0.042 A 
ATOM     39  C   UNL     1       0.837   9.921  19.868  0.00  0.00    -0.037 A 
ATOM     40  H   UNL     1       0.833   7.923  22.620  0.00  0.00    +0.064 HD
ATOM     41  H   UNL     1      -0.082   9.941  23.619  0.00  0.00    +0.062 HD
ATOM     42  H   UNL     1      -0.424  11.977  22.281  0.00  0.00    +0.062 HD
ATOM     43  H   UNL     1       1.081   9.945  18.810  0.00  0.00    +0.064 HD
BRANCH  38  44
ATOM     44  C   UNL     1       0.129  12.333  19.574  0.00  0.00    -0.013 C 
ATOM     45  H   UNL     1      -0.034  12.010  18.537  0.00  0.00    +0.035 HD
BRANCH  44  46
ATOM     46  C   UNL     1       1.420  13.162  19.578  0.00  0.00    -0.058 C 
ATOM     47  H   UNL     1       2.297  12.518  19.455  0.00  0.00    +0.024 HD
ATOM     48  H   UNL     1       1.533  13.710  20.519  0.00  0.00    +0.024 HD
ATOM     49  H   UNL     1       1.431  13.895  18.761  0.00  0.00    +0.024 HD
ENDBRANCH  44  46
BRANCH  44  50
ATOM     50  C   UNL     1      -1.070  13.217  19.984  0.00  0.00    -0.004 C 
ATOM     51  H   UNL     1      -0.970  14.201  19.506  0.00  0.00    +0.033 HD
ATOM     52  H   UNL     1      -1.061  13.412  21.064  0.00  0.00    +0.033 HD
BRANCH  50  53
ATOM     53  C   UNL     1      -2.396  12.645  19.589  0.00  0.00    +0.040 A 
ATOM     54  C   UNL     1      -3.595  12.511  20.269  0.00  0.00    -0.010 A 
ATOM     55  C   UNL     1      -4.464  11.915  19.325  0.00  0.00    +0.052 A 
ATOM     56  N   UNL     1      -3.876  11.691  18.151  0.00  0.00    -0.182 NA
ATOM     57  N   UNL     1      -2.621  12.127  18.340  0.00  0.00    -0.281 N 
ATOM     58  H   UNL     1      -5.504  11.640  19.450  0.00  0.00    +0.085 HD
ATOM     59  H   UNL     1      -1.969  12.051  17.565  0.00  0.00    +0.189 HD
BRANCH  54  60
ATOM     60  C   UNL     1      -3.922  12.892  21.661  0.00  0.00    -0.037 C 
ATOM     61  H   UNL     1      -4.930  13.314  21.731  0.00  0.00    +0.028 HD
ATOM     62  H   UNL     1      -3.880  12.020  22.321  0.00  0.00    +0.028 HD
ATOM     63  H   UNL     1      -3.207  13.635  22.029  0.00  0.00    +0.028 HD
ENDBRANCH  54  60
ENDBRANCH  50  53
ENDBRANCH  44  50
ENDBRANCH  38  44
ENDBRANCH   6  34
BRANCH   9  64
ATOM     64  C   UNL     1       1.484   3.140  20.722  0.00  0.00    +0.349 C 
ATOM     65  F   UNL     1       1.424   1.827  20.356  0.00  0.00    -0.183 F 
ATOM     66  F   UNL     1       0.181   3.541  20.829  0.00  0.00    -0.183 F 
ATOM     67 CL   UNL     1       2.189   3.227  22.357  0.00  0.00    -0.042 Cl
ENDBRANCH   9  64
TORSDOF 10
ENDMDL
MODEL 14
REMARK VINA RESULT:    -8.160      3.930      9.983
REMARK INTER + INTRA:         -10.992
REMARK INTER:                 -10.719
REMARK INTRA:                  -0.272
REMARK UNBOUND:                 0.984
REMARK  Name = 
REMARK  10 active torsions:
REMARK  status: ('A' for Active; 'I' for Inactive)
REMARK    1  A    between atoms: C_1  and  C_2
REMARK    2  A    between atoms: C_4  and  O_38
REMARK    3  A    between atoms: C_7  and  C_9
REMARK    4  A    between atoms: N_14  and  C_17
REMARK    5  A    between atoms: C_21  and  C_23
REMARK    6  A    between atoms: C_23  and  C_24
REMARK    7  A    between atoms: C_23  and  C_25
REMARK    8  A    between atoms: C_25  and  C_26
REMARK    9  A    between atoms: C_27  and  C_31
REMARK   10  A    between atoms: C_32  and  C_34
REMARK                            x       y       z     vdW  Elec       q    Type
REMARK                         _______ _______ _______ _____ _____    ______ ____
ROOT
ATOM      1  C   UNL     1       0.145   9.871  21.498  0.00  0.00    +0.038 A 
ATOM      2  C   UNL     1       0.483   8.517  21.529  0.00  0.00    -0.037 A 
ATOM      3  C   UNL     1       1.227   8.038  20.470  0.00  0.00    +0.043 A 
ATOM      4  C   UNL     1       1.669   8.849  19.423  0.00  0.00    -0.008 A 
ATOM      5  C   UNL     1       2.439   8.012  18.451  0.00  0.00    +0.046 C 
ATOM      6  N   UNL     1       2.373   6.671  19.014  0.00  0.00    -0.263 N 
ATOM      7  C   UNL     1       1.646   6.656  20.209  0.00  0.00    +0.251 C 
ATOM      8  O   UNL     1       1.333   5.744  20.948  0.00  0.00    -0.270 OA
ATOM      9  C   UNL     1       1.370  10.217  19.385  0.00  0.00    +0.043 A 
ATOM     10  C   UNL     1       0.586  10.712  20.450  0.00  0.00    -0.039 A 
ATOM     11  H   UNL     1       0.164   7.864  22.335  0.00  0.00    +0.063 HD
ATOM     12  H   UNL     1       3.483   8.339  18.405  0.00  0.00    +0.052 HD
ATOM     13  H   UNL     1       1.962   8.022  17.465  0.00  0.00    +0.052 HD
ATOM     14  H   UNL     1       0.301  11.767  20.489  0.00  0.00    +0.063 HD
ENDROOT
BRANCH   1  20
ATOM     15  C   UNL     1      -1.546  12.401  21.235  0.00  0.00    +0.026 C 
ATOM     16  C   UNL     1      -2.305  13.650  21.719  0.00  0.00    -0.007 C 
ATOM     17  C   UNL     1      -1.865  13.794  23.169  0.00  0.00    +0.073 C 
ATOM     18  C   UNL     1      -1.782  12.339  23.630  0.00  0.00    +0.041 C 
ATOM     19  N   UNL     1      -1.305  11.621  22.457  0.00  0.00    -0.292 N 
ATOM     20  C   UNL     1      -0.620  10.433  22.626  0.00  0.00    +0.247 C 
ATOM     21  O   UNL     1      -0.575   9.826  23.693  0.00  0.00    -0.270 OA
ATOM     22  H   UNL     1      -0.578  12.698  20.821  0.00  0.00    +0.050 HD
ATOM     23  H   UNL     1      -3.391  13.494  21.677  0.00  0.00    +0.031 HD
ATOM     24  H   UNL     1      -2.062  14.525  21.106  0.00  0.00    +0.031 HD
ATOM     25  H   UNL     1      -2.555  14.391  23.774  0.00  0.00    +0.061 HD
ATOM     26  H   UNL     1      -2.771  11.937  23.878  0.00  0.00    +0.049 HD
ATOM     27  H   UNL     1      -1.100  12.200  24.476  0.00  0.00    +0.049 HD
BRANCH  15  28
ATOM     28  C   UNL     1      -2.361  11.655  20.182  0.00  0.00    -0.046 C 
ATOM     29  H   UNL     1      -3.024  10.914  20.643  0.00  0.00    +0.025 HD
ATOM     30  H   UNL     1      -1.726  11.121  19.470  0.00  0.00    +0.025 HD
ATOM     31  H   UNL     1      -2.978  12.358  19.610  0.00  0.00    +0.025 HD
ENDBRANCH  15  28
BRANCH  17  32
ATOM     32  O   UNL     1      -0.586  14.430  23.199  0.00  0.00    -0.390 OA
ATOM     33  H   UNL     1       0.086  13.730  23.285  0.00  0.00    +0.210 HD
ENDBRANCH  17  32
ENDBRANCH   1  20
BRANCH   6  34
ATOM     34  C   UNL     1       2.980   5.554  18.376  0.00  0.00    +0.037 A 
ATOM     35  C   UNL     1       2.259   4.368  18.166  0.00  0.00    -0.040 A 
ATOM     36  C   UNL     1       2.836   3.275  17.513  0.00  0.00    -0.060 A 
ATOM     37  C   UNL     1       4.150   3.341  17.060  0.00  0.00    -0.058 A 
ATOM     38  C   UNL     1       4.905   4.500  17.265  0.00  0.00    -0.042 A 
ATOM     39  C   UNL     1       4.305   5.593  17.922  0.00  0.00    -0.037 A 
ATOM     40  H   UNL     1       1.228   4.259  18.489  0.00  0.00    +0.064 HD
ATOM     41  H   UNL     1       2.253   2.371  17.352  0.00  0.00    +0.062 HD
ATOM     42  H   UNL     1       4.575   2.481  16.548  0.00  0.00    +0.062 HD
ATOM     43  H   UNL     1       4.910   6.482  18.071  0.00  0.00    +0.064 HD
BRANCH  38  44
ATOM     44  C   UNL     1       6.340   4.624  16.769  0.00  0.00    -0.013 C 
ATOM     45  H   UNL     1       6.692   3.625  16.478  0.00  0.00    +0.035 HD
BRANCH  44  46
ATOM     46  C   UNL     1       7.251   5.095  17.910  0.00  0.00    -0.058 C 
ATOM     47  H   UNL     1       7.054   6.144  18.159  0.00  0.00    +0.024 HD
ATOM     48  H   UNL     1       8.307   5.009  17.631  0.00  0.00    +0.024 HD
ATOM     49  H   UNL     1       7.097   4.504  18.821  0.00  0.00    +0.024 HD
ENDBRANCH  44  46
BRANCH  44  50
ATOM     50  C   UNL     1       6.500   5.552  15.544  0.00  0.00    -0.004 C 
ATOM     51  H   UNL     1       7.432   6.125  15.648  0.00  0.00    +0.033 HD
ATOM     52  H   UNL     1       5.697   6.299  15.513  0.00  0.00    +0.033 HD
BRANCH  50  53
ATOM     53  C   UNL     1       6.553   4.817  14.241  0.00  0.00    +0.040 A 
ATOM     54  C   UNL     1       7.395   4.917  13.146  0.00  0.00    -0.010 A 
ATOM     55  C   UNL     1       6.927   3.921  12.257  0.00  0.00    +0.052 A 
ATOM     56  N   UNL     1       5.885   3.246  12.740  0.00  0.00    -0.182 NA
ATOM     57  N   UNL     1       5.667   3.817  13.935  0.00  0.00    -0.281 N 
ATOM     58  H   UNL     1       7.311   3.661  11.279  0.00  0.00    +0.085 HD
ATOM     59  H   UNL     1       4.899   3.464  14.497  0.00  0.00    +0.189 HD
BRANCH  54  60
ATOM     60  C   UNL     1       8.529   5.842  12.928  0.00  0.00    -0.037 C 
ATOM     61  H   UNL     1       9.181   5.488  12.123  0.00  0.00    +0.028 HD
ATOM     62  H   UNL     1       8.168   6.837  12.649  0.00  0.00    +0.028 HD
ATOM     63  H   UNL     1       9.124   5.936  13.842  0.00  0.00    +0.028 HD
ENDBRANCH  54  60
ENDBRANCH  50  53
ENDBRANCH  44  50
ENDBRANCH  38  44
ENDBRANCH   6  34
BRANCH   9  64
ATOM     64  C   UNL     1       1.804  11.059  18.202  0.00  0.00    +0.349 C 
ATOM     65  F   UNL     1       1.498  10.434  17.027  0.00  0.00    -0.183 F 
ATOM     66  F   UNL     1       3.159  11.234  18.172  0.00  0.00    -0.183 F 
ATOM     67 CL   UNL     1       1.070  12.684  18.171  0.00  0.00    -0.042 Cl
ENDBRANCH   9  64
TORSDOF 10
ENDMDL
MODEL 15
REMARK VINA RESULT:    -8.143      4.774     10.419
REMARK INTER + INTRA:         -10.967
REMARK INTER:                 -11.435
REMARK INTRA:                   0.468
REMARK UNBOUND:                 0.984
REMARK  Name = 
REMARK  10 active torsions:
REMARK  status: ('A' for Active; 'I' for Inactive)
REMARK    1  A    between atoms: C_1  and  C_2
REMARK    2  A    between atoms: C_4  and  O_38
REMARK    3  A    between atoms: C_7  and  C_9
REMARK    4  A    between atoms: N_14  and  C_17
REMARK    5  A    between atoms: C_21  and  C_23
REMARK    6  A    between atoms: C_23  and  C_24
REMARK    7  A    between atoms: C_23  and  C_25
REMARK    8  A    between atoms: C_25  and  C_26
REMARK    9  A    between atoms: C_27  and  C_31
REMARK   10  A    between atoms: C_32  and  C_34
REMARK                            x       y       z     vdW  Elec       q    Type
REMARK                         _______ _______ _______ _____ _____    ______ ____
ROOT
ATOM      1  C   UNL     1      -3.005  13.010  20.452  0.00  0.00    +0.038 A 
ATOM      2  C   UNL     1      -1.722  12.559  20.767  0.00  0.00    -0.037 A 
ATOM      3  C   UNL     1      -1.192  11.576  19.956  0.00  0.00    +0.043 A 
ATOM      4  C   UNL     1      -1.864  11.065  18.844  0.00  0.00    -0.008 A 
ATOM      5  C   UNL     1      -1.010  10.020  18.198  0.00  0.00    +0.046 C 
ATOM      6  N   UNL     1       0.175   9.964  19.043  0.00  0.00    -0.263 N 
ATOM      7  C   UNL     1       0.085  10.871  20.104  0.00  0.00    +0.251 C 
ATOM      8  O   UNL     1       0.834  11.094  21.035  0.00  0.00    -0.270 OA
ATOM      9  C   UNL     1      -3.139  11.524  18.489  0.00  0.00    +0.043 A 
ATOM     10  C   UNL     1      -3.702  12.510  19.328  0.00  0.00    -0.039 A 
ATOM     11  H   UNL     1      -1.171  12.946  21.618  0.00  0.00    +0.063 HD
ATOM     12  H   UNL     1      -0.724  10.328  17.187  0.00  0.00    +0.052 HD
ATOM     13  H   UNL     1      -1.513   9.047  18.204  0.00  0.00    +0.052 HD
ATOM     14  H   UNL     1      -4.698  12.913  19.124  0.00  0.00    +0.063 HD
ENDROOT
BRANCH   1  20
ATOM     15  C   UNL     1      -1.797  13.895  23.114  0.00  0.00    +0.026 C 
ATOM     16  C   UNL     1      -1.776  14.544  24.510  0.00  0.00    -0.007 C 
ATOM     17  C   UNL     1      -3.247  14.790  24.811  0.00  0.00    +0.073 C 
ATOM     18  C   UNL     1      -3.796  15.196  23.443  0.00  0.00    +0.041 C 
ATOM     19  N   UNL     1      -3.041  14.383  22.501  0.00  0.00    -0.292 N 
ATOM     20  C   UNL     1      -3.596  14.084  21.272  0.00  0.00    +0.247 C 
ATOM     21  O   UNL     1      -4.599  14.640  20.832  0.00  0.00    -0.270 OA
ATOM     22  H   UNL     1      -1.867  12.809  23.216  0.00  0.00    +0.050 HD
ATOM     23  H   UNL     1      -1.239  15.502  24.493  0.00  0.00    +0.031 HD
ATOM     24  H   UNL     1      -1.289  13.892  25.244  0.00  0.00    +0.031 HD
ATOM     25  H   UNL     1      -3.412  15.554  25.577  0.00  0.00    +0.061 HD
ATOM     26  H   UNL     1      -3.576  16.246  23.216  0.00  0.00    +0.049 HD
ATOM     27  H   UNL     1      -4.870  15.010  23.344  0.00  0.00    +0.049 HD
BRANCH  15  28
ATOM     28  C   UNL     1      -0.540  14.268  22.332  0.00  0.00    -0.046 C 
ATOM     29  H   UNL     1      -0.394  13.603  21.473  0.00  0.00    +0.025 HD
ATOM     30  H   UNL     1       0.362  14.205  22.946  0.00  0.00    +0.025 HD
ATOM     31  H   UNL     1      -0.615  15.297  21.960  0.00  0.00    +0.025 HD
ENDBRANCH  15  28
BRANCH  17  32
ATOM     32  O   UNL     1      -3.831  13.569  25.271  0.00  0.00    -0.390 OA
ATOM     33  H   UNL     1      -4.218  13.121  24.496  0.00  0.00    +0.210 HD
ENDBRANCH  17  32
ENDBRANCH   1  20
BRANCH   6  34
ATOM     34  C   UNL     1       1.248   9.069  18.779  0.00  0.00    +0.037 A 
ATOM     35  C   UNL     1       2.083   9.256  17.666  0.00  0.00    -0.040 A 
ATOM     36  C   UNL     1       3.158   8.399  17.414  0.00  0.00    -0.060 A 
ATOM     37  C   UNL     1       3.420   7.332  18.267  0.00  0.00    -0.058 A 
ATOM     38  C   UNL     1       2.601   7.103  19.377  0.00  0.00    -0.042 A 
ATOM     39  C   UNL     1       1.524   7.980  19.617  0.00  0.00    -0.037 A 
ATOM     40  H   UNL     1       1.934  10.076  16.970  0.00  0.00    +0.064 HD
ATOM     41  H   UNL     1       3.797   8.572  16.551  0.00  0.00    +0.062 HD
ATOM     42  H   UNL     1       4.267   6.683  18.055  0.00  0.00    +0.062 HD
ATOM     43  H   UNL     1       0.901   7.784  20.484  0.00  0.00    +0.064 HD
BRANCH  38  44
ATOM     44  C   UNL     1       2.862   5.959  20.348  0.00  0.00    -0.013 C 
ATOM     45  H   UNL     1       3.191   6.387  21.305  0.00  0.00    +0.035 HD
BRANCH  44  46
ATOM     46  C   UNL     1       4.018   5.089  19.837  0.00  0.00    -0.058 C 
ATOM     47  H   UNL     1       3.931   4.922  18.758  0.00  0.00    +0.024 HD
ATOM     48  H   UNL     1       4.022   4.112  20.330  0.00  0.00    +0.024 HD
ATOM     49  H   UNL     1       4.991   5.561  20.022  0.00  0.00    +0.024 HD
ENDBRANCH  44  46
BRANCH  44  50
ATOM     50  C   UNL     1       1.621   5.082  20.628  0.00  0.00    -0.004 C 
ATOM     51  H   UNL     1       0.717   5.641  20.349  0.00  0.00    +0.033 HD
ATOM     52  H   UNL     1       1.522   4.878  21.701  0.00  0.00    +0.033 HD
BRANCH  50  53
ATOM     53  C   UNL     1       1.619   3.792  19.869  0.00  0.00    +0.040 A 
ATOM     54  C   UNL     1       1.489   3.502  18.521  0.00  0.00    -0.010 A 
ATOM     55  C   UNL     1       1.599   2.093  18.457  0.00  0.00    +0.052 A 
ATOM     56  N   UNL     1       1.783   1.534  19.653  0.00  0.00    -0.182 NA
ATOM     57  N   UNL     1       1.776   2.581  20.493  0.00  0.00    -0.281 N 
ATOM     58  H   UNL     1       1.555   1.455  17.583  0.00  0.00    +0.085 HD
ATOM     59  H   UNL     1       1.896   2.397  21.484  0.00  0.00    +0.189 HD
BRANCH  54  60
ATOM     60  C   UNL     1       1.283   4.430  17.387  0.00  0.00    -0.037 C 
ATOM     61  H   UNL     1       0.310   4.266  16.912  0.00  0.00    +0.028 HD
ATOM     62  H   UNL     1       1.316   5.470  17.727  0.00  0.00    +0.028 HD
ATOM     63  H   UNL     1       2.066   4.290  16.635  0.00  0.00    +0.028 HD
ENDBRANCH  54  60
ENDBRANCH  50  53
ENDBRANCH  44  50
ENDBRANCH  38  44
ENDBRANCH   6  34
BRANCH   9  64
ATOM     64  C   UNL     1      -3.873  10.902  17.317  0.00  0.00    +0.349 C 
ATOM     65  F   UNL     1      -5.138  11.406  17.218  0.00  0.00    -0.183 F 
ATOM     66  F   UNL     1      -4.038   9.554  17.478  0.00  0.00    -0.183 F 
ATOM     67 CL   UNL     1      -3.058  11.143  15.750  0.00  0.00    -0.042 Cl
ENDBRANCH   9  64
TORSDOF 10
ENDMDL
MODEL 16
REMARK VINA RESULT:    -8.143      2.173      3.247
REMARK INTER + INTRA:         -10.967
REMARK INTER:                 -11.108
REMARK INTRA:                   0.141
REMARK UNBOUND:                 0.984
REMARK  Name = 
REMARK  10 active torsions:
REMARK  status: ('A' for Active; 'I' for Inactive)
REMARK    1  A    between atoms: C_1  and  C_2
REMARK    2  A    between atoms: C_4  and  O_38
REMARK    3  A    between atoms: C_7  and  C_9
REMARK    4  A    between atoms: N_14  and  C_17
REMARK    5  A    between atoms: C_21  and  C_23
REMARK    6  A    between atoms: C_23  and  C_24
REMARK    7  A    between atoms: C_23  and  C_25
REMARK    8  A    between atoms: C_25  and  C_26
REMARK    9  A    between atoms: C_27  and  C_31
REMARK   10  A    between atoms: C_32  and  C_34
REMARK                            x       y       z     vdW  Elec       q    Type
REMARK                         _______ _______ _______ _____ _____    ______ ____
ROOT
ATOM      1  C   UNL     1       3.671   6.723  17.454  0.00  0.00    +0.038 A 
ATOM      2  C   UNL     1       3.104   7.977  17.683  0.00  0.00    -0.037 A 
ATOM      3  C   UNL     1       2.315   8.107  18.808  0.00  0.00    +0.043 A 
ATOM      4  C   UNL     1       2.106   7.065  19.713  0.00  0.00    -0.008 A 
ATOM      5  C   UNL     1       1.204   7.545  20.807  0.00  0.00    +0.046 C 
ATOM      6  N   UNL     1       0.903   8.920  20.434  0.00  0.00    -0.263 N 
ATOM      7  C   UNL     1       1.540   9.275  19.241  0.00  0.00    +0.251 C 
ATOM      8  O   UNL     1       1.508  10.298  18.587  0.00  0.00    -0.270 OA
ATOM      9  C   UNL     1       2.690   5.806  19.522  0.00  0.00    +0.043 A 
ATOM     10  C   UNL     1       3.477   5.655  18.360  0.00  0.00    -0.039 A 
ATOM     11  H   UNL     1       3.258   8.810  17.003  0.00  0.00    +0.063 HD
ATOM     12  H   UNL     1       1.727   7.533  21.769  0.00  0.00    +0.052 HD
ATOM     13  H   UNL     1       0.279   6.958  20.835  0.00  0.00    +0.052 HD
ATOM     14  H   UNL     1       3.959   4.700  18.134  0.00  0.00    +0.063 HD
ENDROOT
BRANCH   1  20
ATOM     15  C   UNL     1       4.959   4.044  16.753  0.00  0.00    +0.026 C 
ATOM     16  C   UNL     1       5.980   3.095  16.096  0.00  0.00    -0.007 C 
ATOM     17  C   UNL     1       7.067   4.034  15.594  0.00  0.00    +0.073 C 
ATOM     18  C   UNL     1       6.260   5.242  15.119  0.00  0.00    +0.041 C 
ATOM     19  N   UNL     1       5.157   5.328  16.065  0.00  0.00    -0.292 N 
ATOM     20  C   UNL     1       4.549   6.549  16.281  0.00  0.00    +0.247 C 
ATOM     21  O   UNL     1       4.731   7.530  15.566  0.00  0.00    -0.270 OA
ATOM     22  H   UNL     1       5.211   4.178  17.808  0.00  0.00    +0.050 HD
ATOM     23  H   UNL     1       5.533   2.560  15.247  0.00  0.00    +0.031 HD
ATOM     24  H   UNL     1       6.348   2.352  16.812  0.00  0.00    +0.031 HD
ATOM     25  H   UNL     1       7.683   3.598  14.801  0.00  0.00    +0.061 HD
ATOM     26  H   UNL     1       5.826   5.072  14.127  0.00  0.00    +0.049 HD
ATOM     27  H   UNL     1       6.844   6.168  15.116  0.00  0.00    +0.049 HD
BRANCH  15  28
ATOM     28  C   UNL     1       3.546   3.486  16.616  0.00  0.00    -0.046 C 
ATOM     29  H   UNL     1       3.149   3.650  15.607  0.00  0.00    +0.025 HD
ATOM     30  H   UNL     1       2.848   3.953  17.316  0.00  0.00    +0.025 HD
ATOM     31  H   UNL     1       3.541   2.408  16.815  0.00  0.00    +0.025 HD
ENDBRANCH  15  28
BRANCH  17  32
ATOM     32  O   UNL     1       7.924   4.370  16.687  0.00  0.00    -0.390 OA
ATOM     33  H   UNL     1       7.633   5.234  17.031  0.00  0.00    +0.210 HD
ENDBRANCH  17  32
ENDBRANCH   1  20
BRANCH   6  34
ATOM     34  C   UNL     1       0.048   9.743  21.218  0.00  0.00    +0.037 A 
ATOM     35  C   UNL     1      -0.014   9.592  22.612  0.00  0.00    -0.040 A 
ATOM     36  C   UNL     1      -0.829  10.416  23.394  0.00  0.00    -0.060 A 
ATOM     37  C   UNL     1      -1.604  11.406  22.800  0.00  0.00    -0.058 A 
ATOM     38  C   UNL     1      -1.581  11.577  21.412  0.00  0.00    -0.042 A 
ATOM     39  C   UNL     1      -0.751  10.739  20.641  0.00  0.00    -0.037 A 
ATOM     40  H   UNL     1       0.573   8.843  23.134  0.00  0.00    +0.064 HD
ATOM     41  H   UNL     1      -0.851  10.286  24.475  0.00  0.00    +0.062 HD
ATOM     42  H   UNL     1      -2.224  12.040  23.430  0.00  0.00    +0.062 HD
ATOM     43  H   UNL     1      -0.749  10.889  19.565  0.00  0.00    +0.064 HD
BRANCH  38  44
ATOM     44  C   UNL     1      -2.398  12.660  20.720  0.00  0.00    -0.013 C 
ATOM     45  H   UNL     1      -3.421  12.629  21.119  0.00  0.00    +0.035 HD
BRANCH  44  46
ATOM     46  C   UNL     1      -2.503  12.361  19.219  0.00  0.00    -0.058 C 
ATOM     47  H   UNL     1      -3.536  12.472  18.871  0.00  0.00    +0.024 HD
ATOM     48  H   UNL     1      -2.183  11.337  18.999  0.00  0.00    +0.024 HD
ATOM     49  H   UNL     1      -1.879  13.041  18.626  0.00  0.00    +0.024 HD
ENDBRANCH  44  46
BRANCH  44  50
ATOM     50  C   UNL     1      -1.852  14.089  20.939  0.00  0.00    -0.004 C 
ATOM     51  H   UNL     1      -1.526  14.193  21.983  0.00  0.00    +0.033 HD
ATOM     52  H   UNL     1      -2.645  14.835  20.802  0.00  0.00    +0.033 HD
BRANCH  50  53
ATOM     53  C   UNL     1      -0.689  14.425  20.058  0.00  0.00    +0.040 A 
ATOM     54  C   UNL     1       0.671  14.193  20.177  0.00  0.00    -0.010 A 
ATOM     55  C   UNL     1       1.221  14.737  18.993  0.00  0.00    +0.052 A 
ATOM     56  N   UNL     1       0.298  15.267  18.190  0.00  0.00    -0.182 NA
ATOM     57  N   UNL     1      -0.848  15.080  18.863  0.00  0.00    -0.281 N 
ATOM     58  H   UNL     1       2.259  14.763  18.685  0.00  0.00    +0.085 HD
ATOM     59  H   UNL     1      -1.708  15.416  18.441  0.00  0.00    +0.189 HD
BRANCH  54  60
ATOM     60  C   UNL     1       1.407  13.531  21.277  0.00  0.00    -0.037 C 
ATOM     61  H   UNL     1       1.477  12.451  21.115  0.00  0.00    +0.028 HD
ATOM     62  H   UNL     1       2.427  13.923  21.350  0.00  0.00    +0.028 HD
ATOM     63  H   UNL     1       0.902  13.708  22.232  0.00  0.00    +0.028 HD
ENDBRANCH  54  60
ENDBRANCH  50  53
ENDBRANCH  44  50
ENDBRANCH  38  44
ENDBRANCH   6  34
BRANCH   9  64
ATOM     64  C   UNL     1       2.390   4.674  20.484  0.00  0.00    +0.349 C 
ATOM     65  F   UNL     1       2.472   5.105  21.777  0.00  0.00    -0.183 F 
ATOM     66  F   UNL     1       3.308   3.665  20.385  0.00  0.00    -0.183 F 
ATOM     67 CL   UNL     1       0.783   3.939  20.248  0.00  0.00    -0.042 Cl
ENDBRANCH   9  64
TORSDOF 10
ENDMDL
MODEL 17
REMARK VINA RESULT:    -8.050      4.419     10.137
REMARK INTER + INTRA:         -10.831
REMARK INTER:                 -10.504
REMARK INTRA:                  -0.327
REMARK UNBOUND:                 0.984
REMARK  Name = 
REMARK  10 active torsions:
REMARK  status: ('A' for Active; 'I' for Inactive)
REMARK    1  A    between atoms: C_1  and  C_2
REMARK    2  A    between atoms: C_4  and  O_38
REMARK    3  A    between atoms: C_7  and  C_9
REMARK    4  A    between atoms: N_14  and  C_17
REMARK    5  A    between atoms: C_21  and  C_23
REMARK    6  A    between atoms: C_23  and  C_24
REMARK    7  A    between atoms: C_23  and  C_25
REMARK    8  A    between atoms: C_25  and  C_26
REMARK    9  A    between atoms: C_27  and  C_31
REMARK   10  A    between atoms: C_32  and  C_34
REMARK                            x       y       z     vdW  Elec       q    Type
REMARK                         _______ _______ _______ _____ _____    ______ ____
ROOT
ATOM      1  C   UNL     1      -1.477  12.355  20.547  0.00  0.00    +0.038 A 
ATOM      2  C   UNL     1      -1.381  11.025  20.961  0.00  0.00    -0.037 A 
ATOM      3  C   UNL     1      -0.267  10.324  20.546  0.00  0.00    +0.043 A 
ATOM      4  C   UNL     1       0.751  10.898  19.783  0.00  0.00    -0.008 A 
ATOM      5  C   UNL     1       1.796   9.862  19.510  0.00  0.00    +0.046 C 
ATOM      6  N   UNL     1       1.277   8.663  20.151  0.00  0.00    -0.263 N 
ATOM      7  C   UNL     1       0.044   8.906  20.763  0.00  0.00    +0.251 C 
ATOM      8  O   UNL     1      -0.720   8.169  21.354  0.00  0.00    -0.270 OA
ATOM      9  C   UNL     1       0.694  12.239  19.382  0.00  0.00    +0.043 A 
ATOM     10  C   UNL     1      -0.455  12.958  19.778  0.00  0.00    -0.039 A 
ATOM     11  H   UNL     1      -2.151  10.555  21.564  0.00  0.00    +0.063 HD
ATOM     12  H   UNL     1       2.747  10.143  19.975  0.00  0.00    +0.052 HD
ATOM     13  H   UNL     1       1.902   9.689  18.433  0.00  0.00    +0.052 HD
ATOM     14  H   UNL     1      -0.579  14.007  19.497  0.00  0.00    +0.063 HD
ENDROOT
BRANCH   1  20
ATOM     15  C   UNL     1      -1.529  13.800  23.237  0.00  0.00    +0.026 C 
ATOM     16  C   UNL     1      -2.165  14.485  24.462  0.00  0.00    -0.007 C 
ATOM     17  C   UNL     1      -3.643  14.143  24.333  0.00  0.00    +0.073 C 
ATOM     18  C   UNL     1      -3.864  14.218  22.822  0.00  0.00    +0.041 C 
ATOM     19  N   UNL     1      -2.620  13.718  22.255  0.00  0.00    -0.292 N 
ATOM     20  C   UNL     1      -2.634  13.151  20.996  0.00  0.00    +0.247 C 
ATOM     21  O   UNL     1      -3.588  13.237  20.227  0.00  0.00    -0.270 OA
ATOM     22  H   UNL     1      -1.228  12.783  23.502  0.00  0.00    +0.050 HD
ATOM     23  H   UNL     1      -2.034  15.574  24.418  0.00  0.00    +0.031 HD
ATOM     24  H   UNL     1      -1.718  14.123  25.394  0.00  0.00    +0.031 HD
ATOM     25  H   UNL     1      -4.295  14.823  24.891  0.00  0.00    +0.061 HD
ATOM     26  H   UNL     1      -3.984  15.254  22.483  0.00  0.00    +0.049 HD
ATOM     27  H   UNL     1      -4.715  13.616  22.488  0.00  0.00    +0.049 HD
BRANCH  15  28
ATOM     28  C   UNL     1      -0.322  14.595  22.748  0.00  0.00    -0.046 C 
ATOM     29  H   UNL     1      -0.623  15.388  22.052  0.00  0.00    +0.025 HD
ATOM     30  H   UNL     1       0.402  13.965  22.225  0.00  0.00    +0.025 HD
ATOM     31  H   UNL     1       0.195  15.061  23.595  0.00  0.00    +0.025 HD
ENDBRANCH  15  28
BRANCH  17  32
ATOM     32  O   UNL     1      -3.852  12.820  24.831  0.00  0.00    -0.390 OA
ATOM     33  H   UNL     1      -3.967  12.887  25.797  0.00  0.00    +0.210 HD
ENDBRANCH  17  32
ENDBRANCH   1  20
BRANCH   6  34
ATOM     34  C   UNL     1       1.976   7.424  20.112  0.00  0.00    +0.037 A 
ATOM     35  C   UNL     1       1.663   6.394  21.014  0.00  0.00    -0.040 A 
ATOM     36  C   UNL     1       2.323   5.163  20.965  0.00  0.00    -0.060 A 
ATOM     37  C   UNL     1       3.315   4.935  20.016  0.00  0.00    -0.058 A 
ATOM     38  C   UNL     1       3.665   5.942  19.111  0.00  0.00    -0.042 A 
ATOM     39  C   UNL     1       2.986   7.175  19.174  0.00  0.00    -0.037 A 
ATOM     40  H   UNL     1       0.893   6.510  21.770  0.00  0.00    +0.064 HD
ATOM     41  H   UNL     1       2.054   4.377  21.667  0.00  0.00    +0.062 HD
ATOM     42  H   UNL     1       3.809   3.966  19.993  0.00  0.00    +0.062 HD
ATOM     43  H   UNL     1       3.275   7.943  18.462  0.00  0.00    +0.064 HD
BRANCH  38  44
ATOM     44  C   UNL     1       4.731   5.730  18.044  0.00  0.00    -0.013 C 
ATOM     45  H   UNL     1       5.623   5.307  18.526  0.00  0.00    +0.035 HD
BRANCH  44  46
ATOM     46  C   UNL     1       5.153   7.079  17.448  0.00  0.00    -0.058 C 
ATOM     47  H   UNL     1       5.420   7.789  18.239  0.00  0.00    +0.024 HD
ATOM     48  H   UNL     1       4.342   7.520  16.860  0.00  0.00    +0.024 HD
ATOM     49  H   UNL     1       6.024   6.975  16.789  0.00  0.00    +0.024 HD
ENDBRANCH  44  46
BRANCH  44  50
ATOM     50  C   UNL     1       4.304   4.763  16.918  0.00  0.00    -0.004 C 
ATOM     51  H   UNL     1       5.194   4.459  16.350  0.00  0.00    +0.033 HD
ATOM     52  H   UNL     1       3.651   5.268  16.196  0.00  0.00    +0.033 HD
BRANCH  50  53
ATOM     53  C   UNL     1       3.632   3.523  17.419  0.00  0.00    +0.040 A 
ATOM     54  C   UNL     1       2.300   3.196  17.614  0.00  0.00    -0.010 A 
ATOM     55  C   UNL     1       2.335   1.861  18.082  0.00  0.00    +0.052 A 
ATOM     56  N   UNL     1       3.574   1.379  18.176  0.00  0.00    -0.182 NA
ATOM     57  N   UNL     1       4.342   2.408  17.784  0.00  0.00    -0.281 N 
ATOM     58  H   UNL     1       1.504   1.223  18.354  0.00  0.00    +0.085 HD
ATOM     59  H   UNL     1       5.348   2.275  17.780  0.00  0.00    +0.189 HD
BRANCH  54  60
ATOM     60  C   UNL     1       1.097   4.028  17.393  0.00  0.00    -0.037 C 
ATOM     61  H   UNL     1       0.634   3.809  16.426  0.00  0.00    +0.028 HD
ATOM     62  H   UNL     1       0.349   3.841  18.170  0.00  0.00    +0.028 HD
ATOM     63  H   UNL     1       1.360   5.090  17.420  0.00  0.00    +0.028 HD
ENDBRANCH  54  60
ENDBRANCH  50  53
ENDBRANCH  44  50
ENDBRANCH  38  44
ENDBRANCH   6  34
BRANCH   9  64
ATOM     64  C   UNL     1       1.780  12.816  18.497  0.00  0.00    +0.349 C 
ATOM     65  F   UNL     1       1.250  13.685  17.587  0.00  0.00    -0.183 F 
ATOM     66  F   UNL     1       2.396  11.850  17.750  0.00  0.00    -0.183 F 
ATOM     67 CL   UNL     1       3.060  13.671  19.397  0.00  0.00    -0.042 Cl
ENDBRANCH   9  64
TORSDOF 10
ENDMDL
MODEL 18
REMARK VINA RESULT:    -8.044      2.447      3.630
REMARK INTER + INTRA:         -10.823
REMARK INTER:                  -9.852
REMARK INTRA:                  -0.971
REMARK UNBOUND:                 0.984
REMARK  Name = 
REMARK  10 active torsions:
REMARK  status: ('A' for Active; 'I' for Inactive)
REMARK    1  A    between atoms: C_1  and  C_2
REMARK    2  A    between atoms: C_4  and  O_38
REMARK    3  A    between atoms: C_7  and  C_9
REMARK    4  A    between atoms: N_14  and  C_17
REMARK    5  A    between atoms: C_21  and  C_23
REMARK    6  A    between atoms: C_23  and  C_24
REMARK    7  A    between atoms: C_23  and  C_25
REMARK    8  A    between atoms: C_25  and  C_26
REMARK    9  A    between atoms: C_27  and  C_31
REMARK   10  A    between atoms: C_32  and  C_34
REMARK                            x       y       z     vdW  Elec       q    Type
REMARK                         _______ _______ _______ _____ _____    ______ ____
ROOT
ATOM      1  C   UNL     1       4.567   6.335  18.414  0.00  0.00    +0.038 A 
ATOM      2  C   UNL     1       4.145   7.607  18.024  0.00  0.00    -0.037 A 
ATOM      3  C   UNL     1       2.917   8.026  18.494  0.00  0.00    +0.043 A 
ATOM      4  C   UNL     1       2.129   7.256  19.351  0.00  0.00    -0.008 A 
ATOM      5  C   UNL     1       0.870   8.005  19.658  0.00  0.00    +0.046 C 
ATOM      6  N   UNL     1       0.999   9.236  18.892  0.00  0.00    -0.263 N 
ATOM      7  C   UNL     1       2.202   9.267  18.178  0.00  0.00    +0.251 C 
ATOM      8  O   UNL     1       2.655  10.085  17.402  0.00  0.00    -0.270 OA
ATOM      9  C   UNL     1       2.545   5.990  19.783  0.00  0.00    +0.043 A 
ATOM     10  C   UNL     1       3.787   5.540  19.285  0.00  0.00    -0.039 A 
ATOM     11  H   UNL     1       4.742   8.233  17.368  0.00  0.00    +0.063 HD
ATOM     12  H   UNL     1       0.816   8.243  20.726  0.00  0.00    +0.052 HD
ATOM     13  H   UNL     1      -0.008   7.447  19.317  0.00  0.00    +0.052 HD
ATOM     14  H   UNL     1       4.178   4.559  19.568  0.00  0.00    +0.063 HD
ENDROOT
BRANCH   1  20
ATOM     15  C   UNL     1       5.129   5.565  15.513  0.00  0.00    +0.026 C 
ATOM     16  C   UNL     1       5.870   4.875  14.352  0.00  0.00    -0.007 C 
ATOM     17  C   UNL     1       6.804   3.901  15.053  0.00  0.00    +0.073 C 
ATOM     18  C   UNL     1       7.237   4.696  16.286  0.00  0.00    +0.041 C 
ATOM     19  N   UNL     1       6.053   5.459  16.652  0.00  0.00    -0.292 N 
ATOM     20  C   UNL     1       5.889   5.861  17.962  0.00  0.00    +0.247 C 
ATOM     21  O   UNL     1       6.783   5.806  18.803  0.00  0.00    -0.270 OA
ATOM     22  H   UNL     1       4.223   5.003  15.753  0.00  0.00    +0.050 HD
ATOM     23  H   UNL     1       6.459   5.599  13.773  0.00  0.00    +0.031 HD
ATOM     24  H   UNL     1       5.167   4.384  13.669  0.00  0.00    +0.031 HD
ATOM     25  H   UNL     1       7.650   3.588  14.433  0.00  0.00    +0.061 HD
ATOM     26  H   UNL     1       8.027   5.416  16.044  0.00  0.00    +0.049 HD
ATOM     27  H   UNL     1       7.559   4.055  17.113  0.00  0.00    +0.049 HD
BRANCH  15  28
ATOM     28  C   UNL     1       4.774   7.002  15.142  0.00  0.00    -0.046 C 
ATOM     29  H   UNL     1       5.622   7.512  14.671  0.00  0.00    +0.025 HD
ATOM     30  H   UNL     1       4.485   7.594  16.014  0.00  0.00    +0.025 HD
ATOM     31  H   UNL     1       3.932   7.016  14.439  0.00  0.00    +0.025 HD
ENDBRANCH  15  28
BRANCH  17  32
ATOM     32  O   UNL     1       6.063   2.734  15.414  0.00  0.00    -0.390 OA
ATOM     33  H   UNL     1       5.977   2.731  16.385  0.00  0.00    +0.210 HD
ENDBRANCH  17  32
ENDBRANCH   1  20
BRANCH   6  34
ATOM     34  C   UNL     1      -0.012  10.236  18.895  0.00  0.00    +0.037 A 
ATOM     35  C   UNL     1      -1.261   9.997  18.300  0.00  0.00    -0.040 A 
ATOM     36  C   UNL     1      -2.271  10.963  18.324  0.00  0.00    -0.060 A 
ATOM     37  C   UNL     1      -2.054  12.191  18.940  0.00  0.00    -0.058 A 
ATOM     38  C   UNL     1      -0.818  12.472  19.530  0.00  0.00    -0.042 A 
ATOM     39  C   UNL     1       0.187  11.485  19.499  0.00  0.00    -0.037 A 
ATOM     40  H   UNL     1      -1.492   9.056  17.812  0.00  0.00    +0.064 HD
ATOM     41  H   UNL     1      -3.234  10.750  17.865  0.00  0.00    +0.062 HD
ATOM     42  H   UNL     1      -2.859  12.924  18.952  0.00  0.00    +0.062 HD
ATOM     43  H   UNL     1       1.139  11.724  19.963  0.00  0.00    +0.064 HD
BRANCH  38  44
ATOM     44  C   UNL     1      -0.544  13.795  20.232  0.00  0.00    -0.013 C 
ATOM     45  H   UNL     1      -1.415  14.449  20.090  0.00  0.00    +0.035 HD
BRANCH  44  46
ATOM     46  C   UNL     1       0.648  14.502  19.573  0.00  0.00    -0.058 C 
ATOM     47  H   UNL     1       1.575  14.295  20.119  0.00  0.00    +0.024 HD
ATOM     48  H   UNL     1       0.502  15.587  19.557  0.00  0.00    +0.024 HD
ATOM     49  H   UNL     1       0.792  14.169  18.538  0.00  0.00    +0.024 HD
ENDBRANCH  44  46
BRANCH  44  50
ATOM     50  C   UNL     1      -0.304  13.658  21.752  0.00  0.00    -0.004 C 
ATOM     51  H   UNL     1      -0.034  14.641  22.163  0.00  0.00    +0.033 HD
ATOM     52  H   UNL     1       0.555  13.007  21.955  0.00  0.00    +0.033 HD
BRANCH  50  53
ATOM     53  C   UNL     1      -1.500  13.159  22.502  0.00  0.00    +0.040 A 
ATOM     54  C   UNL     1      -1.813  11.924  23.044  0.00  0.00    -0.010 A 
ATOM     55  C   UNL     1      -3.079  12.119  23.645  0.00  0.00    +0.052 A 
ATOM     56  N   UNL     1      -3.532  13.365  23.502  0.00  0.00    -0.182 NA
ATOM     57  N   UNL     1      -2.565  13.970  22.794  0.00  0.00    -0.281 N 
ATOM     58  H   UNL     1      -3.685  11.402  24.184  0.00  0.00    +0.085 HD
ATOM     59  H   UNL     1      -2.695  14.948  22.553  0.00  0.00    +0.189 HD
BRANCH  54  60
ATOM     60  C   UNL     1      -1.027  10.670  23.017  0.00  0.00    -0.037 C 
ATOM     61  H   UNL     1      -0.923  10.245  24.020  0.00  0.00    +0.028 HD
ATOM     62  H   UNL     1      -1.517   9.920  22.388  0.00  0.00    +0.028 HD
ATOM     63  H   UNL     1      -0.028  10.858  22.613  0.00  0.00    +0.028 HD
ENDBRANCH  54  60
ENDBRANCH  50  53
ENDBRANCH  44  50
ENDBRANCH  38  44
ENDBRANCH   6  34
BRANCH   9  64
ATOM     64  C   UNL     1       1.638   5.147  20.658  0.00  0.00    +0.349 C 
ATOM     65  F   UNL     1       0.640   5.910  21.193  0.00  0.00    -0.183 F 
ATOM     66  F   UNL     1       2.306   4.627  21.731  0.00  0.00    -0.183 F 
ATOM     67 CL   UNL     1       0.886   3.777  19.800  0.00  0.00    -0.042 Cl
ENDBRANCH   9  64
TORSDOF 10
ENDMDL
MODEL 19
REMARK VINA RESULT:    -7.876      3.435      9.900
REMARK INTER + INTRA:         -10.576
REMARK INTER:                 -11.519
REMARK INTRA:                   0.943
REMARK UNBOUND:                 0.984
REMARK  Name = 
REMARK  10 active torsions:
REMARK  status: ('A' for Active; 'I' for Inactive)
REMARK    1  A    between atoms: C_1  and  C_2
REMARK    2  A    between atoms: C_4  and  O_38
REMARK    3  A    between atoms: C_7  and  C_9
REMARK    4  A    between atoms: N_14  and  C_17
REMARK    5  A    between atoms: C_21  and  C_23
REMARK    6  A    between atoms: C_23  and  C_24
REMARK    7  A    between atoms: C_23  and  C_25
REMARK    8  A    between atoms: C_25  and  C_26
REMARK    9  A    between atoms: C_27  and  C_31
REMARK   10  A    between atoms: C_32  and  C_34
REMARK                            x       y       z     vdW  Elec       q    Type
REMARK                         _______ _______ _______ _____ _____    ______ ____
ROOT
ATOM      1  C   UNL     1       0.106  12.050  19.891  0.00  0.00    +0.038 A 
ATOM      2  C   UNL     1       0.804  11.373  18.890  0.00  0.00    -0.037 A 
ATOM      3  C   UNL     1       1.155  10.065  19.153  0.00  0.00    +0.043 A 
ATOM      4  C   UNL     1       0.812   9.409  20.337  0.00  0.00    -0.008 A 
ATOM      5  C   UNL     1       1.350   8.014  20.294  0.00  0.00    +0.046 C 
ATOM      6  N   UNL     1       2.042   7.944  19.015  0.00  0.00    -0.263 N 
ATOM      7  C   UNL     1       1.954   9.156  18.323  0.00  0.00    +0.251 C 
ATOM      8  O   UNL     1       2.425   9.511  17.260  0.00  0.00    -0.270 OA
ATOM      9  C   UNL     1       0.084  10.057  21.344  0.00  0.00    +0.043 A 
ATOM     10  C   UNL     1      -0.257  11.405  21.096  0.00  0.00    -0.039 A 
ATOM     11  H   UNL     1       1.075  11.852  17.954  0.00  0.00    +0.063 HD
ATOM     12  H   UNL     1       0.532   7.285  20.308  0.00  0.00    +0.052 HD
ATOM     13  H   UNL     1       2.063   7.846  21.109  0.00  0.00    +0.052 HD
ATOM     14  H   UNL     1      -0.816  11.983  21.836  0.00  0.00    +0.063 HD
ENDROOT
BRANCH   1  20
ATOM     15  C   UNL     1      -1.769  13.559  21.771  0.00  0.00    +0.026 C 
ATOM     16  C   UNL     1      -2.782  14.642  22.188  0.00  0.00    -0.007 C 
ATOM     17  C   UNL     1      -3.200  15.267  20.865  0.00  0.00    +0.073 C 
ATOM     18  C   UNL     1      -1.890  15.264  20.075  0.00  0.00    +0.041 C 
ATOM     19  N   UNL     1      -1.227  14.037  20.490  0.00  0.00    -0.292 N 
ATOM     20  C   UNL     1      -0.319  13.440  19.638  0.00  0.00    +0.247 C 
ATOM     21  O   UNL     1       0.132  13.992  18.638  0.00  0.00    -0.270 OA
ATOM     22  H   UNL     1      -2.294  12.617  21.592  0.00  0.00    +0.050 HD
ATOM     23  H   UNL     1      -2.307  15.404  22.821  0.00  0.00    +0.031 HD
ATOM     24  H   UNL     1      -3.620  14.209  22.744  0.00  0.00    +0.031 HD
ATOM     25  H   UNL     1      -3.626  16.269  20.974  0.00  0.00    +0.061 HD
ATOM     26  H   UNL     1      -1.243  16.099  20.365  0.00  0.00    +0.049 HD
ATOM     27  H   UNL     1      -2.048  15.274  18.991  0.00  0.00    +0.049 HD
BRANCH  15  28
ATOM     28  C   UNL     1      -0.710  13.373  22.854  0.00  0.00    -0.046 C 
ATOM     29  H   UNL     1      -0.516  12.310  23.042  0.00  0.00    +0.025 HD
ATOM     30  H   UNL     1      -1.010  13.819  23.805  0.00  0.00    +0.025 HD
ATOM     31  H   UNL     1       0.232  13.844  22.550  0.00  0.00    +0.025 HD
ENDBRANCH  15  28
BRANCH  17  32
ATOM     32  O   UNL     1      -4.185  14.431  20.254  0.00  0.00    -0.390 OA
ATOM     33  H   UNL     1      -3.814  14.111  19.411  0.00  0.00    +0.210 HD
ENDBRANCH  17  32
ENDBRANCH   1  20
BRANCH   6  34
ATOM     34  C   UNL     1       2.718   6.769  18.586  0.00  0.00    +0.037 A 
ATOM     35  C   UNL     1       2.319   5.503  19.044  0.00  0.00    -0.040 A 
ATOM     36  C   UNL     1       2.958   4.340  18.606  0.00  0.00    -0.060 A 
ATOM     37  C   UNL     1       4.014   4.416  17.703  0.00  0.00    -0.058 A 
ATOM     38  C   UNL     1       4.450   5.659  17.236  0.00  0.00    -0.042 A 
ATOM     39  C   UNL     1       3.792   6.821  17.687  0.00  0.00    -0.037 A 
ATOM     40  H   UNL     1       1.497   5.379  19.742  0.00  0.00    +0.064 HD
ATOM     41  H   UNL     1       2.623   3.370  18.967  0.00  0.00    +0.062 HD
ATOM     42  H   UNL     1       4.490   3.496  17.371  0.00  0.00    +0.062 HD
ATOM     43  H   UNL     1       4.147   7.776  17.312  0.00  0.00    +0.064 HD
BRANCH  38  44
ATOM     44  C   UNL     1       5.589   5.789  16.233  0.00  0.00    -0.013 C 
ATOM     45  H   UNL     1       6.464   6.199  16.755  0.00  0.00    +0.035 HD
BRANCH  44  46
ATOM     46  C   UNL     1       5.215   6.800  15.142  0.00  0.00    -0.058 C 
ATOM     47  H   UNL     1       6.106   7.311  14.762  0.00  0.00    +0.024 HD
ATOM     48  H   UNL     1       4.529   7.561  15.529  0.00  0.00    +0.024 HD
ATOM     49  H   UNL     1       4.726   6.312  14.289  0.00  0.00    +0.024 HD
ENDBRANCH  44  46
BRANCH  44  50
ATOM     50  C   UNL     1       6.011   4.448  15.592  0.00  0.00    -0.004 C 
ATOM     51  H   UNL     1       5.115   3.840  15.408  0.00  0.00    +0.033 HD
ATOM     52  H   UNL     1       6.628   3.862  16.284  0.00  0.00    +0.033 HD
BRANCH  50  53
ATOM     53  C   UNL     1       6.732   4.610  14.290  0.00  0.00    +0.040 A 
ATOM     54  C   UNL     1       6.458   4.162  13.008  0.00  0.00    -0.010 A 
ATOM     55  C   UNL     1       7.517   4.679  12.226  0.00  0.00    +0.052 A 
ATOM     56  N   UNL     1       8.386   5.394  12.940  0.00  0.00    -0.182 NA
ATOM     57  N   UNL     1       7.898   5.324  14.189  0.00  0.00    -0.281 N 
ATOM     58  H   UNL     1       7.684   4.565  11.162  0.00  0.00    +0.085 HD
ATOM     59  H   UNL     1       8.409   5.800  14.926  0.00  0.00    +0.189 HD
BRANCH  54  60
ATOM     60  C   UNL     1       5.327   3.333  12.536  0.00  0.00    -0.037 C 
ATOM     61  H   UNL     1       5.482   3.000  11.505  0.00  0.00    +0.028 HD
ATOM     62  H   UNL     1       5.216   2.440  13.160  0.00  0.00    +0.028 HD
ATOM     63  H   UNL     1       4.394   3.902  12.582  0.00  0.00    +0.028 HD
ENDBRANCH  54  60
ENDBRANCH  50  53
ENDBRANCH  44  50
ENDBRANCH  38  44
ENDBRANCH   6  34
BRANCH   9  64
ATOM     64  C   UNL     1      -0.216   9.343  22.647  0.00  0.00    +0.349 C 
ATOM     65  F   UNL     1       0.929   9.154  23.367  0.00  0.00    -0.183 F 
ATOM     66  F   UNL     1      -0.717   8.089  22.436  0.00  0.00    -0.183 F 
ATOM     67 CL   UNL     1      -1.385  10.203  23.683  0.00  0.00    -0.042 Cl
ENDBRANCH   9  64
TORSDOF 10
ENDMDL
MODEL 20
REMARK VINA RESULT:    -7.809      4.287     10.168
REMARK INTER + INTRA:         -10.477
REMARK INTER:                  -9.462
REMARK INTRA:                  -1.016
REMARK UNBOUND:                 0.984
REMARK  Name = 
REMARK  10 active torsions:
REMARK  status: ('A' for Active; 'I' for Inactive)
REMARK    1  A    between atoms: C_1  and  C_2
REMARK    2  A    between atoms: C_4  and  O_38
REMARK    3  A    between atoms: C_7  and  C_9
REMARK    4  A    between atoms: N_14  and  C_17
REMARK    5  A    between atoms: C_21  and  C_23
REMARK    6  A    between atoms: C_23  and  C_24
REMARK    7  A    between atoms: C_23  and  C_25
REMARK    8  A    between atoms: C_25  and  C_26
REMARK    9  A    between atoms: C_27  and  C_31
REMARK   10  A    between atoms: C_32  and  C_34
REMARK                            x       y       z     vdW  Elec       q    Type
REMARK                         _______ _______ _______ _____ _____    ______ ____
ROOT
ATOM      1  C   UNL     1      -1.297  12.413  19.970  0.00  0.00    +0.038 A 
ATOM      2  C   UNL     1      -0.023  11.862  20.120  0.00  0.00    -0.037 A 
ATOM      3  C   UNL     1       0.295  10.798  19.300  0.00  0.00    +0.043 A 
ATOM      4  C   UNL     1      -0.578  10.298  18.332  0.00  0.00    -0.008 A 
ATOM      5  C   UNL     1       0.078   9.150  17.632  0.00  0.00    +0.046 C 
ATOM      6  N   UNL     1       1.368   9.027  18.295  0.00  0.00    -0.263 N 
ATOM      7  C   UNL     1       1.516   9.986  19.302  0.00  0.00    +0.251 C 
ATOM      8  O   UNL     1       2.413  10.184  20.098  0.00  0.00    -0.270 OA
ATOM      9  C   UNL     1      -1.850  10.855  18.140  0.00  0.00    +0.043 A 
ATOM     10  C   UNL     1      -2.195  11.926  18.992  0.00  0.00    -0.039 A 
ATOM     11  H   UNL     1       0.681  12.236  20.856  0.00  0.00    +0.063 HD
ATOM     12  H   UNL     1       0.232   9.383  16.572  0.00  0.00    +0.052 HD
ATOM     13  H   UNL     1      -0.498   8.229  17.769  0.00  0.00    +0.052 HD
ATOM     14  H   UNL     1      -3.173  12.409  18.912  0.00  0.00    +0.063 HD
ENDROOT
BRANCH   1  20
ATOM     15  C   UNL     1      -2.492  12.113  22.764  0.00  0.00    +0.026 C 
ATOM     16  C   UNL     1      -3.274  12.541  24.021  0.00  0.00    -0.007 C 
ATOM     17  C   UNL     1      -3.975  13.820  23.585  0.00  0.00    +0.073 C 
ATOM     18  C   UNL     1      -2.923  14.481  22.695  0.00  0.00    +0.041 C 
ATOM     19  N   UNL     1      -2.270  13.365  22.026  0.00  0.00    -0.292 N 
ATOM     20  C   UNL     1      -1.666  13.573  20.802  0.00  0.00    +0.247 C 
ATOM     21  O   UNL     1      -1.451  14.689  20.336  0.00  0.00    -0.270 OA
ATOM     22  H   UNL     1      -3.116  11.459  22.150  0.00  0.00    +0.050 HD
ATOM     23  H   UNL     1      -2.593  12.760  24.855  0.00  0.00    +0.031 HD
ATOM     24  H   UNL     1      -3.968  11.757  24.342  0.00  0.00    +0.031 HD
ATOM     25  H   UNL     1      -4.280  14.454  24.424  0.00  0.00    +0.061 HD
ATOM     26  H   UNL     1      -2.160  14.998  23.288  0.00  0.00    +0.049 HD
ATOM     27  H   UNL     1      -3.358  15.172  21.965  0.00  0.00    +0.049 HD
BRANCH  15  28
ATOM     28  C   UNL     1      -1.204  11.395  23.156  0.00  0.00    -0.046 C 
ATOM     29  H   UNL     1      -1.416  10.448  23.667  0.00  0.00    +0.025 HD
ATOM     30  H   UNL     1      -0.586  11.994  23.829  0.00  0.00    +0.025 HD
ATOM     31  H   UNL     1      -0.604  11.176  22.264  0.00  0.00    +0.025 HD
ENDBRANCH  15  28
BRANCH  17  32
ATOM     32  O   UNL     1      -5.147  13.471  22.846  0.00  0.00    -0.390 OA
ATOM     33  H   UNL     1      -5.368  14.229  22.275  0.00  0.00    +0.210 HD
ENDBRANCH  17  32
ENDBRANCH   1  20
BRANCH   6  34
ATOM     34  C   UNL     1       2.311   8.025  17.931  0.00  0.00    +0.037 A 
ATOM     35  C   UNL     1       3.564   8.376  17.404  0.00  0.00    -0.040 A 
ATOM     36  C   UNL     1       4.508   7.401  17.071  0.00  0.00    -0.060 A 
ATOM     37  C   UNL     1       4.219   6.053  17.252  0.00  0.00    -0.058 A 
ATOM     38  C   UNL     1       2.976   5.663  17.760  0.00  0.00    -0.042 A 
ATOM     39  C   UNL     1       2.038   6.660  18.094  0.00  0.00    -0.037 A 
ATOM     40  H   UNL     1       3.850   9.412  17.248  0.00  0.00    +0.064 HD
ATOM     41  H   UNL     1       5.477   7.699  16.675  0.00  0.00    +0.062 HD
ATOM     42  H   UNL     1       4.973   5.313  16.993  0.00  0.00    +0.062 HD
ATOM     43  H   UNL     1       1.079   6.336  18.485  0.00  0.00    +0.064 HD
BRANCH  38  44
ATOM     44  C   UNL     1       2.624   4.200  17.993  0.00  0.00    -0.013 C 
ATOM     45  H   UNL     1       3.485   3.709  18.467  0.00  0.00    +0.035 HD
BRANCH  44  46
ATOM     46  C   UNL     1       2.401   3.493  16.650  0.00  0.00    -0.058 C 
ATOM     47  H   UNL     1       1.676   2.678  16.754  0.00  0.00    +0.024 HD
ATOM     48  H   UNL     1       3.335   3.065  16.271  0.00  0.00    +0.024 HD
ATOM     49  H   UNL     1       2.018   4.183  15.889  0.00  0.00    +0.024 HD
ENDBRANCH  44  46
BRANCH  44  50
ATOM     50  C   UNL     1       1.400   3.990  18.912  0.00  0.00    -0.004 C 
ATOM     51  H   UNL     1       0.636   3.419  18.367  0.00  0.00    +0.033 HD
ATOM     52  H   UNL     1       0.929   4.950  19.160  0.00  0.00    +0.033 HD
BRANCH  50  53
ATOM     53  C   UNL     1       1.719   3.247  20.172  0.00  0.00    +0.040 A 
ATOM     54  C   UNL     1       2.875   2.634  20.627  0.00  0.00    -0.010 A 
ATOM     55  C   UNL     1       2.524   2.137  21.904  0.00  0.00    +0.052 A 
ATOM     56  N   UNL     1       1.262   2.409  22.235  0.00  0.00    -0.182 NA
ATOM     57  N   UNL     1       0.792   3.068  21.165  0.00  0.00    -0.281 N 
ATOM     58  H   UNL     1       3.142   1.590  22.605  0.00  0.00    +0.085 HD
ATOM     59  H   UNL     1      -0.175   3.378  21.185  0.00  0.00    +0.189 HD
BRANCH  54  60
ATOM     60  C   UNL     1       4.187   2.510  19.955  0.00  0.00    -0.037 C 
ATOM     61  H   UNL     1       4.142   2.877  18.924  0.00  0.00    +0.028 HD
ATOM     62  H   UNL     1       4.948   3.095  20.482  0.00  0.00    +0.028 HD
ATOM     63  H   UNL     1       4.508   1.464  19.939  0.00  0.00    +0.028 HD
ENDBRANCH  54  60
ENDBRANCH  50  53
ENDBRANCH  44  50
ENDBRANCH  38  44
ENDBRANCH   6  34
BRANCH   9  64
ATOM     64  C   UNL     1      -2.802  10.248  17.128  0.00  0.00    +0.349 C 
ATOM     65  F   UNL     1      -3.334   9.085  17.605  0.00  0.00    -0.183 F 
ATOM     66  F   UNL     1      -2.162   9.901  15.971  0.00  0.00    -0.183 F 
ATOM     67 CL   UNL     1      -4.147  11.326  16.674  0.00  0.00    -0.042 Cl
ENDBRANCH   9  64
TORSDOF 10
ENDMDL
MODEL 21
REMARK VINA RESULT:    -7.801      4.417     10.106
REMARK INTER + INTRA:         -10.465
REMARK INTER:                 -10.085
REMARK INTRA:                  -0.380
REMARK UNBOUND:                 0.984
REMARK  Name = 
REMARK  10 active torsions:
REMARK  status: ('A' for Active; 'I' for Inactive)
REMARK    1  A    between atoms: C_1  and  C_2
REMARK    2  A    between atoms: C_4  and  O_38
REMARK    3  A    between atoms: C_7  and  C_9
REMARK    4  A    between atoms: N_14  and  C_17
REMARK    5  A    between atoms: C_21  and  C_23
REMARK    6  A    between atoms: C_23  and  C_24
REMARK    7  A    between atoms: C_23  and  C_25
REMARK    8  A    between atoms: C_25  and  C_26
REMARK    9  A    between atoms: C_27  and  C_31
REMARK   10  A    between atoms: C_32  and  C_34
REMARK                            x       y       z     vdW  Elec       q    Type
REMARK                         _______ _______ _______ _____ _____    ______ ____
ROOT
ATOM      1  C   UNL     1      -0.845  11.110  21.538  0.00  0.00    +0.038 A 
ATOM      2  C   UNL     1      -0.264   9.841  21.499  0.00  0.00    -0.037 A 
ATOM      3  C   UNL     1       0.649   9.605  20.492  0.00  0.00    +0.043 A 
ATOM      4  C   UNL     1       1.025  10.579  19.565  0.00  0.00    -0.008 A 
ATOM      5  C   UNL     1       2.023   9.989  18.619  0.00  0.00    +0.046 C 
ATOM      6  N   UNL     1       2.158   8.610  19.066  0.00  0.00    -0.263 N 
ATOM      7  C   UNL     1       1.340   8.352  20.170  0.00  0.00    +0.251 C 
ATOM      8  O   UNL     1       1.137   7.332  20.799  0.00  0.00    -0.270 OA
ATOM      9  C   UNL     1       0.481  11.869  19.602  0.00  0.00    +0.043 A 
ATOM     10  C   UNL     1      -0.475  12.113  20.612  0.00  0.00    -0.039 A 
ATOM     11  H   UNL     1      -0.528   9.067  22.213  0.00  0.00    +0.063 HD
ATOM     12  H   UNL     1       2.988  10.500  18.710  0.00  0.00    +0.052 HD
ATOM     13  H   UNL     1       1.645  10.009  17.591  0.00  0.00    +0.052 HD
ATOM     14  H   UNL     1      -0.953  13.092  20.702  0.00  0.00    +0.063 HD
ENDROOT
BRANCH   1  20
ATOM     15  C   UNL     1      -3.101  13.140  21.204  0.00  0.00    +0.026 C 
ATOM     16  C   UNL     1      -4.183  14.138  21.658  0.00  0.00    -0.007 C 
ATOM     17  C   UNL     1      -3.892  14.331  23.139  0.00  0.00    +0.073 C 
ATOM     18  C   UNL     1      -3.472  12.926  23.573  0.00  0.00    +0.041 C 
ATOM     19  N   UNL     1      -2.751  12.399  22.424  0.00  0.00    -0.292 N 
ATOM     20  C   UNL     1      -1.801  11.416  22.618  0.00  0.00    +0.247 C 
ATOM     21  O   UNL     1      -1.674  10.798  23.672  0.00  0.00    -0.270 OA
ATOM     22  H   UNL     1      -2.216  13.688  20.870  0.00  0.00    +0.050 HD
ATOM     23  H   UNL     1      -5.189  13.715  21.532  0.00  0.00    +0.031 HD
ATOM     24  H   UNL     1      -4.130  15.069  21.083  0.00  0.00    +0.031 HD
ATOM     25  H   UNL     1      -4.749  14.710  23.704  0.00  0.00    +0.061 HD
ATOM     26  H   UNL     1      -4.341  12.279  23.739  0.00  0.00    +0.049 HD
ATOM     27  H   UNL     1      -2.836  12.930  24.465  0.00  0.00    +0.049 HD
BRANCH  15  28
ATOM     28  C   UNL     1      -3.628  12.256  20.078  0.00  0.00    -0.046 C 
ATOM     29  H   UNL     1      -3.187  12.535  19.113  0.00  0.00    +0.025 HD
ATOM     30  H   UNL     1      -4.713  12.328  19.970  0.00  0.00    +0.025 HD
ATOM     31  H   UNL     1      -3.385  11.205  20.274  0.00  0.00    +0.025 HD
ENDBRANCH  15  28
BRANCH  17  32
ATOM     32  O   UNL     1      -2.821  15.267  23.277  0.00  0.00    -0.390 OA
ATOM     33  H   UNL     1      -2.991  15.788  24.083  0.00  0.00    +0.210 HD
ENDBRANCH  17  32
ENDBRANCH   1  20
BRANCH   6  34
ATOM     34  C   UNL     1       3.018   7.685  18.411  0.00  0.00    +0.037 A 
ATOM     35  C   UNL     1       3.342   7.843  17.054  0.00  0.00    -0.040 A 
ATOM     36  C   UNL     1       4.208   6.956  16.409  0.00  0.00    -0.060 A 
ATOM     37  C   UNL     1       4.767   5.889  17.105  0.00  0.00    -0.058 A 
ATOM     38  C   UNL     1       4.456   5.690  18.453  0.00  0.00    -0.042 A 
ATOM     39  C   UNL     1       3.583   6.597  19.087  0.00  0.00    -0.037 A 
ATOM     40  H   UNL     1       2.943   8.660  16.461  0.00  0.00    +0.064 HD
ATOM     41  H   UNL     1       4.453   7.106  15.359  0.00  0.00    +0.062 HD
ATOM     42  H   UNL     1       5.446   5.217  16.583  0.00  0.00    +0.062 HD
ATOM     43  H   UNL     1       3.355   6.423  20.135  0.00  0.00    +0.064 HD
BRANCH  38  44
ATOM     44  C   UNL     1       5.060   4.548  19.259  0.00  0.00    -0.013 C 
ATOM     45  H   UNL     1       4.982   4.798  20.326  0.00  0.00    +0.035 HD
BRANCH  44  46
ATOM     46  C   UNL     1       6.557   4.418  18.947  0.00  0.00    -0.058 C 
ATOM     47  H   UNL     1       7.023   3.657  19.582  0.00  0.00    +0.024 HD
ATOM     48  H   UNL     1       7.078   5.366  19.120  0.00  0.00    +0.024 HD
ATOM     49  H   UNL     1       6.728   4.128  17.903  0.00  0.00    +0.024 HD
ENDBRANCH  44  46
BRANCH  44  50
ATOM     50  C   UNL     1       4.354   3.190  19.044  0.00  0.00    -0.004 C 
ATOM     51  H   UNL     1       4.994   2.387  19.435  0.00  0.00    +0.033 HD
ATOM     52  H   UNL     1       4.235   2.978  17.974  0.00  0.00    +0.033 HD
BRANCH  50  53
ATOM     53  C   UNL     1       3.026   3.094  19.726  0.00  0.00    +0.040 A 
ATOM     54  C   UNL     1       1.737   3.376  19.305  0.00  0.00    -0.010 A 
ATOM     55  C   UNL     1       0.928   3.045  20.417  0.00  0.00    +0.052 A 
ATOM     56  N   UNL     1       1.634   2.590  21.453  0.00  0.00    -0.182 NA
ATOM     57  N   UNL     1       2.902   2.644  21.015  0.00  0.00    -0.281 N 
ATOM     58  H   UNL     1      -0.149   3.114  20.509  0.00  0.00    +0.085 HD
ATOM     59  H   UNL     1       3.636   2.346  21.650  0.00  0.00    +0.189 HD
BRANCH  54  60
ATOM     60  C   UNL     1       1.280   3.904  18.000  0.00  0.00    -0.037 C 
ATOM     61  H   UNL     1       2.092   3.904  17.266  0.00  0.00    +0.028 HD
ATOM     62  H   UNL     1       0.469   3.289  17.597  0.00  0.00    +0.028 HD
ATOM     63  H   UNL     1       0.912   4.928  18.113  0.00  0.00    +0.028 HD
ENDBRANCH  54  60
ENDBRANCH  50  53
ENDBRANCH  44  50
ENDBRANCH  38  44
ENDBRANCH   6  34
BRANCH   9  64
ATOM     64  C   UNL     1       0.857  12.885  18.541  0.00  0.00    +0.349 C 
ATOM     65  F   UNL     1      -0.152  13.029  17.633  0.00  0.00    -0.183 F 
ATOM     66  F   UNL     1       1.940  12.482  17.811  0.00  0.00    -0.183 F 
ATOM     67 CL   UNL     1       1.243  14.497  19.197  0.00  0.00    -0.042 Cl
ENDBRANCH   9  64
TORSDOF 10
ENDMDL
MODEL 22
REMARK VINA RESULT:    -7.685      3.033      8.887
REMARK INTER + INTRA:         -10.294
REMARK INTER:                  -8.934
REMARK INTRA:                  -1.360
REMARK UNBOUND:                 0.984
REMARK  Name = 
REMARK  10 active torsions:
REMARK  status: ('A' for Active; 'I' for Inactive)
REMARK    1  A    between atoms: C_1  and  C_2
REMARK    2  A    between atoms: C_4  and  O_38
REMARK    3  A    between atoms: C_7  and  C_9
REMARK    4  A    between atoms: N_14  and  C_17
REMARK    5  A    between atoms: C_21  and  C_23
REMARK    6  A    between atoms: C_23  and  C_24
REMARK    7  A    between atoms: C_23  and  C_25
REMARK    8  A    between atoms: C_25  and  C_26
REMARK    9  A    between atoms: C_27  and  C_31
REMARK   10  A    between atoms: C_32  and  C_34
REMARK                            x       y       z     vdW  Elec       q    Type
REMARK                         _______ _______ _______ _____ _____    ______ ____
ROOT
ATOM      1  C   UNL     1       0.274  10.657  18.848  0.00  0.00    +0.038 A 
ATOM      2  C   UNL     1       1.118   9.946  17.994  0.00  0.00    -0.037 A 
ATOM      3  C   UNL     1       1.739   8.831  18.520  0.00  0.00    +0.043 A 
ATOM      4  C   UNL     1       1.523   8.386  19.826  0.00  0.00    -0.008 A 
ATOM      5  C   UNL     1       2.350   7.163  20.066  0.00  0.00    +0.046 C 
ATOM      6  N   UNL     1       3.063   6.970  18.812  0.00  0.00    -0.263 N 
ATOM      7  C   UNL     1       2.728   7.957  17.879  0.00  0.00    +0.251 C 
ATOM      8  O   UNL     1       3.131   8.169  16.753  0.00  0.00    -0.270 OA
ATOM      9  C   UNL     1       0.655   9.064  20.692  0.00  0.00    +0.043 A 
ATOM     10  C   UNL     1       0.037  10.222  20.173  0.00  0.00    -0.039 A 
ATOM     11  H   UNL     1       1.297  10.260  16.971  0.00  0.00    +0.063 HD
ATOM     12  H   UNL     1       1.708   6.296  20.259  0.00  0.00    +0.052 HD
ATOM     13  H   UNL     1       3.067   7.330  20.877  0.00  0.00    +0.052 HD
ATOM     14  H   UNL     1      -0.647  10.812  20.788  0.00  0.00    +0.063 HD
ENDROOT
BRANCH   1  20
ATOM     15  C   UNL     1       1.171  13.515  19.440  0.00  0.00    +0.026 C 
ATOM     16  C   UNL     1       1.025  15.042  19.578  0.00  0.00    -0.007 C 
ATOM     17  C   UNL     1      -0.477  15.267  19.485  0.00  0.00    +0.073 C 
ATOM     18  C   UNL     1      -0.896  14.236  18.437  0.00  0.00    +0.041 C 
ATOM     19  N   UNL     1      -0.020  13.100  18.685  0.00  0.00    -0.292 N 
ATOM     20  C   UNL     1      -0.436  11.835  18.317  0.00  0.00    +0.247 C 
ATOM     21  O   UNL     1      -1.407  11.628  17.594  0.00  0.00    -0.270 OA
ATOM     22  H   UNL     1       1.128  13.053  20.430  0.00  0.00    +0.050 HD
ATOM     23  H   UNL     1       1.528  15.564  18.752  0.00  0.00    +0.031 HD
ATOM     24  H   UNL     1       1.457  15.399  20.520  0.00  0.00    +0.031 HD
ATOM     25  H   UNL     1      -0.746  16.290  19.204  0.00  0.00    +0.061 HD
ATOM     26  H   UNL     1      -0.692  14.589  17.420  0.00  0.00    +0.049 HD
ATOM     27  H   UNL     1      -1.948  13.944  18.526  0.00  0.00    +0.049 HD
BRANCH  15  28
ATOM     28  C   UNL     1       2.487  13.164  18.752  0.00  0.00    -0.046 C 
ATOM     29  H   UNL     1       2.354  12.349  18.030  0.00  0.00    +0.025 HD
ATOM     30  H   UNL     1       3.251  12.842  19.464  0.00  0.00    +0.025 HD
ATOM     31  H   UNL     1       2.880  14.035  18.216  0.00  0.00    +0.025 HD
ENDBRANCH  15  28
BRANCH  17  32
ATOM     32  O   UNL     1      -1.061  14.990  20.760  0.00  0.00    -0.390 OA
ATOM     33  H   UNL     1      -0.624  15.566  21.413  0.00  0.00    +0.210 HD
ENDBRANCH  17  32
ENDBRANCH   1  20
BRANCH   6  34
ATOM     34  C   UNL     1       3.984   5.902  18.624  0.00  0.00    +0.037 A 
ATOM     35  C   UNL     1       5.363   6.105  18.792  0.00  0.00    -0.040 A 
ATOM     36  C   UNL     1       6.273   5.056  18.638  0.00  0.00    -0.060 A 
ATOM     37  C   UNL     1       5.826   3.781  18.308  0.00  0.00    -0.058 A 
ATOM     38  C   UNL     1       4.461   3.543  18.116  0.00  0.00    -0.042 A 
ATOM     39  C   UNL     1       3.559   4.612  18.279  0.00  0.00    -0.037 A 
ATOM     40  H   UNL     1       5.771   7.075  19.058  0.00  0.00    +0.064 HD
ATOM     41  H   UNL     1       7.336   5.236  18.785  0.00  0.00    +0.062 HD
ATOM     42  H   UNL     1       6.553   2.978  18.201  0.00  0.00    +0.062 HD
ATOM     43  H   UNL     1       2.504   4.406  18.125  0.00  0.00    +0.064 HD
BRANCH  38  44
ATOM     44  C   UNL     1       3.925   2.159  17.773  0.00  0.00    -0.013 C 
ATOM     45  H   UNL     1       4.726   1.591  17.280  0.00  0.00    +0.035 HD
BRANCH  44  46
ATOM     46  C   UNL     1       2.782   2.276  16.756  0.00  0.00    -0.058 C 
ATOM     47  H   UNL     1       1.811   2.147  17.245  0.00  0.00    +0.024 HD
ATOM     48  H   UNL     1       2.870   1.513  15.976  0.00  0.00    +0.024 HD
ATOM     49  H   UNL     1       2.778   3.257  16.264  0.00  0.00    +0.024 HD
ENDBRANCH  44  46
BRANCH  44  50
ATOM     50  C   UNL     1       3.461   1.346  19.002  0.00  0.00    -0.004 C 
ATOM     51  H   UNL     1       4.343   0.947  19.521  0.00  0.00    +0.033 HD
ATOM     52  H   UNL     1       2.879   0.469  18.692  0.00  0.00    +0.033 HD
BRANCH  50  53
ATOM     53  C   UNL     1       2.672   2.151  19.986  0.00  0.00    +0.040 A 
ATOM     54  C   UNL     1       1.375   2.638  19.968  0.00  0.00    -0.010 A 
ATOM     55  C   UNL     1       1.234   3.294  21.213  0.00  0.00    +0.052 A 
ATOM     56  N   UNL     1       2.336   3.231  21.959  0.00  0.00    -0.182 NA
ATOM     57  N   UNL     1       3.197   2.548  21.189  0.00  0.00    -0.281 N 
ATOM     58  H   UNL     1       0.367   3.812  21.605  0.00  0.00    +0.085 HD
ATOM     59  H   UNL     1       4.130   2.377  21.553  0.00  0.00    +0.189 HD
BRANCH  54  60
ATOM     60  C   UNL     1       0.352   2.517  18.907  0.00  0.00    -0.037 C 
ATOM     61  H   UNL     1      -0.386   3.323  18.971  0.00  0.00    +0.028 HD
ATOM     62  H   UNL     1       0.814   2.569  17.916  0.00  0.00    +0.028 HD
ATOM     63  H   UNL     1      -0.171   1.559  18.991  0.00  0.00    +0.028 HD
ENDBRANCH  54  60
ENDBRANCH  50  53
ENDBRANCH  44  50
ENDBRANCH  38  44
ENDBRANCH   6  34
BRANCH   9  64
ATOM     64  C   UNL     1       0.493   8.599  22.126  0.00  0.00    +0.349 C 
ATOM     65  F   UNL     1       1.705   8.531  22.750  0.00  0.00    -0.183 F 
ATOM     66  F   UNL     1      -0.016   7.332  22.195  0.00  0.00    -0.183 F 
ATOM     67 CL   UNL     1      -0.574   9.642  23.101  0.00  0.00    -0.042 Cl
ENDBRANCH   9  64
TORSDOF 10
ENDMDL
MODEL 23
REMARK VINA RESULT:    -7.590      3.642      9.703
REMARK INTER + INTRA:         -10.155
REMARK INTER:                 -10.128
REMARK INTRA:                  -0.027
REMARK UNBOUND:                 0.984
REMARK  Name = 
REMARK  10 active torsions:
REMARK  status: ('A' for Active; 'I' for Inactive)
REMARK    1  A    between atoms: C_1  and  C_2
REMARK    2  A    between atoms: C_4  and  O_38
REMARK    3  A    between atoms: C_7  and  C_9
REMARK    4  A    between atoms: N_14  and  C_17
REMARK    5  A    between atoms: C_21  and  C_23
REMARK    6  A    between atoms: C_23  and  C_24
REMARK    7  A    between atoms: C_23  and  C_25
REMARK    8  A    between atoms: C_25  and  C_26
REMARK    9  A    between atoms: C_27  and  C_31
REMARK   10  A    between atoms: C_32  and  C_34
REMARK                            x       y       z     vdW  Elec       q    Type
REMARK                         _______ _______ _______ _____ _____    ______ ____
ROOT
ATOM      1  C   UNL     1      -0.580  12.422  20.201  0.00  0.00    +0.038 A 
ATOM      2  C   UNL     1       0.231  11.993  19.149  0.00  0.00    -0.037 A 
ATOM      3  C   UNL     1       0.790  10.737  19.268  0.00  0.00    +0.043 A 
ATOM      4  C   UNL     1       0.545   9.896  20.355  0.00  0.00    -0.008 A 
ATOM      5  C   UNL     1       1.306   8.622  20.166  0.00  0.00    +0.046 C 
ATOM      6  N   UNL     1       2.014   8.820  18.909  0.00  0.00    -0.263 N 
ATOM      7  C   UNL     1       1.736  10.076  18.361  0.00  0.00    +0.251 C 
ATOM      8  O   UNL     1       2.154  10.629  17.363  0.00  0.00    -0.270 OA
ATOM      9  C   UNL     1      -0.290  10.291  21.408  0.00  0.00    +0.043 A 
ATOM     10  C   UNL     1      -0.845  11.586  21.310  0.00  0.00    -0.039 A 
ATOM     11  H   UNL     1       0.430  12.619  18.286  0.00  0.00    +0.063 HD
ATOM     12  H   UNL     1       0.619   7.774  20.068  0.00  0.00    +0.052 HD
ATOM     13  H   UNL     1       2.028   8.474  20.977  0.00  0.00    +0.052 HD
ATOM     14  H   UNL     1      -1.500  11.972  22.095  0.00  0.00    +0.063 HD
ENDROOT
BRANCH   1  20
ATOM     15  C   UNL     1      -2.498  13.478  22.330  0.00  0.00    +0.026 C 
ATOM     16  C   UNL     1      -3.622  14.357  22.909  0.00  0.00    -0.007 C 
ATOM     17  C   UNL     1      -4.235  15.008  21.677  0.00  0.00    +0.073 C 
ATOM     18  C   UNL     1      -3.008  15.267  20.802  0.00  0.00    +0.041 C 
ATOM     19  N   UNL     1      -2.139  14.129  21.062  0.00  0.00    -0.292 N 
ATOM     20  C   UNL     1      -1.225  13.745  20.100  0.00  0.00    +0.247 C 
ATOM     21  O   UNL     1      -0.943  14.434  19.124  0.00  0.00    -0.270 OA
ATOM     22  H   UNL     1      -2.891  12.482  22.106  0.00  0.00    +0.050 HD
ATOM     23  H   UNL     1      -3.216  15.133  23.572  0.00  0.00    +0.031 HD
ATOM     24  H   UNL     1      -4.339  13.759  23.482  0.00  0.00    +0.031 HD
ATOM     25  H   UNL     1      -4.794  15.922  21.902  0.00  0.00    +0.061 HD
ATOM     26  H   UNL     1      -2.469  16.167  21.118  0.00  0.00    +0.049 HD
ATOM     27  H   UNL     1      -3.253  15.334  19.737  0.00  0.00    +0.049 HD
BRANCH  15  28
ATOM     28  C   UNL     1      -1.339  13.375  23.317  0.00  0.00    -0.046 C 
ATOM     29  H   UNL     1      -0.965  12.346  23.387  0.00  0.00    +0.025 HD
ATOM     30  H   UNL     1      -1.627  13.682  24.326  0.00  0.00    +0.025 HD
ATOM     31  H   UNL     1      -0.510  14.019  23.000  0.00  0.00    +0.025 HD
ENDBRANCH  15  28
BRANCH  17  32
ATOM     32  O   UNL     1      -5.132  14.079  21.066  0.00  0.00    -0.390 OA
ATOM     33  H   UNL     1      -5.222  14.334  20.129  0.00  0.00    +0.210 HD
ENDBRANCH  17  32
ENDBRANCH   1  20
BRANCH   6  34
ATOM     34  C   UNL     1       2.879   7.830  18.366  0.00  0.00    +0.037 A 
ATOM     35  C   UNL     1       3.204   7.831  17.000  0.00  0.00    -0.040 A 
ATOM     36  C   UNL     1       4.076   6.880  16.463  0.00  0.00    -0.060 A 
ATOM     37  C   UNL     1       4.640   5.904  17.277  0.00  0.00    -0.058 A 
ATOM     38  C   UNL     1       4.328   5.861  18.640  0.00  0.00    -0.042 A 
ATOM     39  C   UNL     1       3.450   6.829  19.164  0.00  0.00    -0.037 A 
ATOM     40  H   UNL     1       2.803   8.572  16.317  0.00  0.00    +0.064 HD
ATOM     41  H   UNL     1       4.321   6.909  15.403  0.00  0.00    +0.062 HD
ATOM     42  H   UNL     1       5.322   5.179  16.837  0.00  0.00    +0.062 HD
ATOM     43  H   UNL     1       3.221   6.777  20.224  0.00  0.00    +0.064 HD
BRANCH  38  44
ATOM     44  C   UNL     1       4.936   4.822  19.572  0.00  0.00    -0.013 C 
ATOM     45  H   UNL     1       4.734   5.126  20.608  0.00  0.00    +0.035 HD
BRANCH  44  46
ATOM     46  C   UNL     1       6.462   4.801  19.412  0.00  0.00    -0.058 C 
ATOM     47  H   UNL     1       6.751   5.092  18.396  0.00  0.00    +0.024 HD
ATOM     48  H   UNL     1       6.864   3.801  19.603  0.00  0.00    +0.024 HD
ATOM     49  H   UNL     1       6.951   5.496  20.107  0.00  0.00    +0.024 HD
ENDBRANCH  44  46
BRANCH  44  50
ATOM     50  C   UNL     1       4.364   3.399  19.382  0.00  0.00    -0.004 C 
ATOM     51  H   UNL     1       5.015   2.679  19.896  0.00  0.00    +0.033 HD
ATOM     52  H   UNL     1       4.382   3.110  18.324  0.00  0.00    +0.033 HD
BRANCH  50  53
ATOM     53  C   UNL     1       2.978   3.236  19.923  0.00  0.00    +0.040 A 
ATOM     54  C   UNL     1       1.727   3.436  19.363  0.00  0.00    -0.010 A 
ATOM     55  C   UNL     1       0.825   3.076  20.392  0.00  0.00    +0.052 A 
ATOM     56  N   UNL     1       1.442   2.681  21.505  0.00  0.00    -0.182 NA
ATOM     57  N   UNL     1       2.744   2.802  21.202  0.00  0.00    -0.281 N 
ATOM     58  H   UNL     1      -0.257   3.084  20.369  0.00  0.00    +0.085 HD
ATOM     59  H   UNL     1       3.423   2.558  21.917  0.00  0.00    +0.189 HD
BRANCH  54  60
ATOM     60  C   UNL     1       1.382   3.914  18.006  0.00  0.00    -0.037 C 
ATOM     61  H   UNL     1       2.110   3.568  17.266  0.00  0.00    +0.028 HD
ATOM     62  H   UNL     1       0.398   3.542  17.703  0.00  0.00    +0.028 HD
ATOM     63  H   UNL     1       1.357   5.008  17.984  0.00  0.00    +0.028 HD
ENDBRANCH  54  60
ENDBRANCH  50  53
ENDBRANCH  44  50
ENDBRANCH  38  44
ENDBRANCH   6  34
BRANCH   9  64
ATOM     64  C   UNL     1      -0.483   9.385  22.609  0.00  0.00    +0.349 C 
ATOM     65  F   UNL     1      -0.912   8.150  22.217  0.00  0.00    -0.183 F 
ATOM     66  F   UNL     1      -1.457   9.853  23.447  0.00  0.00    -0.183 F 
ATOM     67 CL   UNL     1       0.990   9.173  23.590  0.00  0.00    -0.042 Cl
ENDBRANCH   9  64
TORSDOF 10
ENDMDL
MODEL 24
REMARK VINA RESULT:    -7.547      2.436      3.721
REMARK INTER + INTRA:         -10.092
REMARK INTER:                  -9.032
REMARK INTRA:                  -1.060
REMARK UNBOUND:                 0.984
REMARK  Name = 
REMARK  10 active torsions:
REMARK  status: ('A' for Active; 'I' for Inactive)
REMARK    1  A    between atoms: C_1  and  C_2
REMARK    2  A    between atoms: C_4  and  O_38
REMARK    3  A    between atoms: C_7  and  C_9
REMARK    4  A    between atoms: N_14  and  C_17
REMARK    5  A    between atoms: C_21  and  C_23
REMARK    6  A    between atoms: C_23  and  C_24
REMARK    7  A    between atoms: C_23  and  C_25
REMARK    8  A    between atoms: C_25  and  C_26
REMARK    9  A    between atoms: C_27  and  C_31
REMARK   10  A    between atoms: C_32  and  C_34
REMARK                            x       y       z     vdW  Elec       q    Type
REMARK                         _______ _______ _______ _____ _____    ______ ____
ROOT
ATOM      1  C   UNL     1       4.562   6.264  18.454  0.00  0.00    +0.038 A 
ATOM      2  C   UNL     1       4.123   7.553  18.149  0.00  0.00    -0.037 A 
ATOM      3  C   UNL     1       2.893   7.927  18.650  0.00  0.00    +0.043 A 
ATOM      4  C   UNL     1       2.117   7.093  19.458  0.00  0.00    -0.008 A 
ATOM      5  C   UNL     1       0.851   7.806  19.818  0.00  0.00    +0.046 C 
ATOM      6  N   UNL     1       0.963   9.085  19.132  0.00  0.00    -0.263 N 
ATOM      7  C   UNL     1       2.162   9.177  18.419  0.00  0.00    +0.251 C 
ATOM      8  O   UNL     1       2.602  10.049  17.696  0.00  0.00    -0.270 OA
ATOM      9  C   UNL     1       2.549   5.806  19.804  0.00  0.00    +0.043 A 
ATOM     10  C   UNL     1       3.794   5.404  19.274  0.00  0.00    -0.039 A 
ATOM     11  H   UNL     1       4.710   8.228  17.533  0.00  0.00    +0.063 HD
ATOM     12  H   UNL     1       0.799   7.973  20.899  0.00  0.00    +0.052 HD
ATOM     13  H   UNL     1      -0.022   7.261  19.444  0.00  0.00    +0.052 HD
ATOM     14  H   UNL     1       4.197   4.411  19.491  0.00  0.00    +0.063 HD
ENDROOT
BRANCH   1  20
ATOM     15  C   UNL     1       5.083   5.551  15.531  0.00  0.00    +0.026 C 
ATOM     16  C   UNL     1       5.818   4.900  14.344  0.00  0.00    -0.007 C 
ATOM     17  C   UNL     1       6.796   3.944  15.011  0.00  0.00    +0.073 C 
ATOM     18  C   UNL     1       7.232   4.734  16.246  0.00  0.00    +0.041 C 
ATOM     19  N   UNL     1       6.034   5.457  16.648  0.00  0.00    -0.292 N 
ATOM     20  C   UNL     1       5.886   5.835  17.968  0.00  0.00    +0.247 C 
ATOM     21  O   UNL     1       6.800   5.795  18.788  0.00  0.00    -0.270 OA
ATOM     22  H   UNL     1       4.199   4.959  15.782  0.00  0.00    +0.050 HD
ATOM     23  H   UNL     1       6.373   5.650  13.763  0.00  0.00    +0.031 HD
ATOM     24  H   UNL     1       5.116   4.398  13.669  0.00  0.00    +0.031 HD
ATOM     25  H   UNL     1       7.637   3.666  14.369  0.00  0.00    +0.061 HD
ATOM     26  H   UNL     1       7.995   5.481  15.998  0.00  0.00    +0.049 HD
ATOM     27  H   UNL     1       7.590   4.091  17.056  0.00  0.00    +0.049 HD
BRANCH  15  28
ATOM     28  C   UNL     1       4.678   6.982  15.189  0.00  0.00    -0.046 C 
ATOM     29  H   UNL     1       4.827   7.653  16.043  0.00  0.00    +0.025 HD
ATOM     30  H   UNL     1       3.626   7.056  14.900  0.00  0.00    +0.025 HD
ATOM     31  H   UNL     1       5.277   7.357  14.350  0.00  0.00    +0.025 HD
ENDBRANCH  15  28
BRANCH  17  32
ATOM     32  O   UNL     1       6.097   2.751  15.370  0.00  0.00    -0.390 OA
ATOM     33  H   UNL     1       5.620   2.443  14.578  0.00  0.00    +0.210 HD
ENDBRANCH  17  32
ENDBRANCH   1  20
BRANCH   6  34
ATOM     34  C   UNL     1      -0.060  10.072  19.205  0.00  0.00    +0.037 A 
ATOM     35  C   UNL     1      -0.938  10.276  18.129  0.00  0.00    -0.040 A 
ATOM     36  C   UNL     1      -1.964  11.222  18.202  0.00  0.00    -0.060 A 
ATOM     37  C   UNL     1      -2.133  11.989  19.350  0.00  0.00    -0.058 A 
ATOM     38  C   UNL     1      -1.268  11.825  20.437  0.00  0.00    -0.042 A 
ATOM     39  C   UNL     1      -0.242  10.864  20.346  0.00  0.00    -0.037 A 
ATOM     40  H   UNL     1      -0.862   9.703  17.211  0.00  0.00    +0.064 HD
ATOM     41  H   UNL     1      -2.639  11.354  17.359  0.00  0.00    +0.062 HD
ATOM     42  H   UNL     1      -2.944  12.714  19.386  0.00  0.00    +0.062 HD
ATOM     43  H   UNL     1       0.419  10.754  21.201  0.00  0.00    +0.064 HD
BRANCH  38  44
ATOM     44  C   UNL     1      -1.427  12.629  21.721  0.00  0.00    -0.013 C 
ATOM     45  H   UNL     1      -0.699  12.256  22.454  0.00  0.00    +0.035 HD
BRANCH  44  46
ATOM     46  C   UNL     1      -2.818  12.389  22.322  0.00  0.00    -0.058 C 
ATOM     47  H   UNL     1      -2.833  11.468  22.915  0.00  0.00    +0.024 HD
ATOM     48  H   UNL     1      -3.575  12.296  21.536  0.00  0.00    +0.024 HD
ATOM     49  H   UNL     1      -3.120  13.213  22.981  0.00  0.00    +0.024 HD
ENDBRANCH  44  46
BRANCH  44  50
ATOM     50  C   UNL     1      -1.179  14.144  21.544  0.00  0.00    -0.004 C 
ATOM     51  H   UNL     1      -1.323  14.646  22.511  0.00  0.00    +0.033 HD
ATOM     52  H   UNL     1      -1.923  14.585  20.870  0.00  0.00    +0.033 HD
BRANCH  50  53
ATOM     53  C   UNL     1       0.198  14.471  21.056  0.00  0.00    +0.040 A 
ATOM     54  C   UNL     1       0.691  14.798  19.804  0.00  0.00    -0.010 A 
ATOM     55  C   UNL     1       2.072  15.017  20.022  0.00  0.00    +0.052 A 
ATOM     56  N   UNL     1       2.427  14.848  21.295  0.00  0.00    -0.182 NA
ATOM     57  N   UNL     1       1.279  14.502  21.898  0.00  0.00    -0.281 N 
ATOM     58  H   UNL     1       2.829  15.298  19.301  0.00  0.00    +0.085 HD
ATOM     59  H   UNL     1       1.304  14.312  22.895  0.00  0.00    +0.189 HD
BRANCH  54  60
ATOM     60  C   UNL     1      -0.033  14.902  18.518  0.00  0.00    -0.037 C 
ATOM     61  H   UNL     1      -0.030  13.948  17.982  0.00  0.00    +0.028 HD
ATOM     62  H   UNL     1      -1.077  15.187  18.684  0.00  0.00    +0.028 HD
ATOM     63  H   UNL     1       0.432  15.661  17.881  0.00  0.00    +0.028 HD
ENDBRANCH  54  60
ENDBRANCH  50  53
ENDBRANCH  44  50
ENDBRANCH  38  44
ENDBRANCH   6  34
BRANCH   9  64
ATOM     64  C   UNL     1       1.655   4.898  20.626  0.00  0.00    +0.349 C 
ATOM     65  F   UNL     1       0.578   5.587  21.104  0.00  0.00    -0.183 F 
ATOM     66  F   UNL     1       2.296   4.422  21.735  0.00  0.00    -0.183 F 
ATOM     67 CL   UNL     1       1.051   3.482  19.726  0.00  0.00    -0.042 Cl
ENDBRANCH   9  64
TORSDOF 10
ENDMDL
MODEL 25
REMARK VINA RESULT:    -7.463      2.962      8.801
REMARK INTER + INTRA:          -9.969
REMARK INTER:                  -8.475
REMARK INTRA:                  -1.493
REMARK UNBOUND:                 0.984
REMARK  Name = 
REMARK  10 active torsions:
REMARK  status: ('A' for Active; 'I' for Inactive)
REMARK    1  A    between atoms: C_1  and  C_2
REMARK    2  A    between atoms: C_4  and  O_38
REMARK    3  A    between atoms: C_7  and  C_9
REMARK    4  A    between atoms: N_14  and  C_17
REMARK    5  A    between atoms: C_21  and  C_23
REMARK    6  A    between atoms: C_23  and  C_24
REMARK    7  A    between atoms: C_23  and  C_25
REMARK    8  A    between atoms: C_25  and  C_26
REMARK    9  A    between atoms: C_27  and  C_31
REMARK   10  A    between atoms: C_32  and  C_34
REMARK                            x       y       z     vdW  Elec       q    Type
REMARK                         _______ _______ _______ _____ _____    ______ ____
ROOT
ATOM      1  C   UNL     1      -0.381  10.465  18.560  0.00  0.00    +0.038 A 
ATOM      2  C   UNL     1       0.468   9.676  17.782  0.00  0.00    -0.037 A 
ATOM      3  C   UNL     1       1.230   8.738  18.448  0.00  0.00    +0.043 A 
ATOM      4  C   UNL     1       1.150   8.536  19.828  0.00  0.00    -0.008 A 
ATOM      5  C   UNL     1       2.108   7.454  20.217  0.00  0.00    +0.046 C 
ATOM      6  N   UNL     1       2.747   7.084  18.962  0.00  0.00    -0.263 N 
ATOM      7  C   UNL     1       2.253   7.844  17.896  0.00  0.00    +0.251 C 
ATOM      8  O   UNL     1       2.554   7.868  16.719  0.00  0.00    -0.270 OA
ATOM      9  C   UNL     1       0.283   9.293  20.626  0.00  0.00    +0.043 A 
ATOM     10  C   UNL     1      -0.481  10.274  19.958  0.00  0.00    -0.039 A 
ATOM     11  H   UNL     1       0.543   9.802  16.706  0.00  0.00    +0.063 HD
ATOM     12  H   UNL     1       1.569   6.590  20.621  0.00  0.00    +0.052 HD
ATOM     13  H   UNL     1       2.860   7.832  20.917  0.00  0.00    +0.052 HD
ATOM     14  H   UNL     1      -1.175  10.912  20.511  0.00  0.00    +0.063 HD
ENDROOT
BRANCH   1  20
ATOM     15  C   UNL     1      -2.943   9.688  17.090  0.00  0.00    +0.026 C 
ATOM     16  C   UNL     1      -4.103   9.850  16.090  0.00  0.00    -0.007 C 
ATOM     17  C   UNL     1      -3.671  11.030  15.231  0.00  0.00    +0.073 C 
ATOM     18  C   UNL     1      -2.994  11.945  16.253  0.00  0.00    +0.041 C 
ATOM     19  N   UNL     1      -2.343  11.028  17.176  0.00  0.00    -0.292 N 
ATOM     20  C   UNL     1      -1.238  11.457  17.885  0.00  0.00    +0.247 C 
ATOM     21  O   UNL     1      -0.895  12.634  17.953  0.00  0.00    -0.270 OA
ATOM     22  H   UNL     1      -2.197   9.004  16.678  0.00  0.00    +0.050 HD
ATOM     23  H   UNL     1      -5.040  10.094  16.607  0.00  0.00    +0.031 HD
ATOM     24  H   UNL     1      -4.260   8.932  15.513  0.00  0.00    +0.031 HD
ATOM     25  H   UNL     1      -4.503  11.517  14.713  0.00  0.00    +0.061 HD
ATOM     26  H   UNL     1      -3.730  12.520  16.828  0.00  0.00    +0.049 HD
ATOM     27  H   UNL     1      -2.265  12.623  15.798  0.00  0.00    +0.049 HD
BRANCH  15  28
ATOM     28  C   UNL     1      -3.459   9.160  18.426  0.00  0.00    -0.046 C 
ATOM     29  H   UNL     1      -2.973   9.667  19.269  0.00  0.00    +0.025 HD
ATOM     30  H   UNL     1      -3.276   8.089  18.545  0.00  0.00    +0.025 HD
ATOM     31  H   UNL     1      -4.540   9.322  18.507  0.00  0.00    +0.025 HD
ENDBRANCH  15  28
BRANCH  17  32
ATOM     32  O   UNL     1      -2.746  10.566  14.246  0.00  0.00    -0.390 OA
ATOM     33  H   UNL     1      -3.188   9.861  13.739  0.00  0.00    +0.210 HD
ENDBRANCH  17  32
ENDBRANCH   1  20
BRANCH   6  34
ATOM     34  C   UNL     1       3.753   6.081  18.894  0.00  0.00    +0.037 A 
ATOM     35  C   UNL     1       5.064   6.348  19.318  0.00  0.00    -0.040 A 
ATOM     36  C   UNL     1       6.053   5.360  19.284  0.00  0.00    -0.060 A 
ATOM     37  C   UNL     1       5.753   4.084  18.820  0.00  0.00    -0.058 A 
ATOM     38  C   UNL     1       4.462   3.783  18.374  0.00  0.00    -0.042 A 
ATOM     39  C   UNL     1       3.479   4.791  18.420  0.00  0.00    -0.037 A 
ATOM     40  H   UNL     1       5.356   7.322  19.698  0.00  0.00    +0.064 HD
ATOM     41  H   UNL     1       7.059   5.589  19.628  0.00  0.00    +0.062 HD
ATOM     42  H   UNL     1       6.537   3.329  18.810  0.00  0.00    +0.062 HD
ATOM     43  H   UNL     1       2.483   4.536  18.069  0.00  0.00    +0.064 HD
BRANCH  38  44
ATOM     44  C   UNL     1       4.085   2.394  17.877  0.00  0.00    -0.013 C 
ATOM     45  H   UNL     1       4.979   1.930  17.437  0.00  0.00    +0.035 HD
BRANCH  44  46
ATOM     46  C   UNL     1       3.049   2.503  16.751  0.00  0.00    -0.058 C 
ATOM     47  H   UNL     1       2.046   2.261  17.119  0.00  0.00    +0.024 HD
ATOM     48  H   UNL     1       3.282   1.813  15.933  0.00  0.00    +0.024 HD
ATOM     49  H   UNL     1       3.012   3.516  16.332  0.00  0.00    +0.024 HD
ENDBRANCH  44  46
BRANCH  44  50
ATOM     50  C   UNL     1       3.566   1.453  18.986  0.00  0.00    -0.004 C 
ATOM     51  H   UNL     1       4.424   1.002  19.505  0.00  0.00    +0.033 HD
ATOM     52  H   UNL     1       3.008   0.612  18.556  0.00  0.00    +0.033 HD
BRANCH  50  53
ATOM     53  C   UNL     1       2.721   2.145  20.010  0.00  0.00    +0.040 A 
ATOM     54  C   UNL     1       1.398   2.555  20.006  0.00  0.00    -0.010 A 
ATOM     55  C   UNL     1       1.206   3.121  21.288  0.00  0.00    +0.052 A 
ATOM     56  N   UNL     1       2.304   3.074  22.043  0.00  0.00    -0.182 NA
ATOM     57  N   UNL     1       3.211   2.493  21.242  0.00  0.00    -0.281 N 
ATOM     58  H   UNL     1       0.307   3.561  21.700  0.00  0.00    +0.085 HD
ATOM     59  H   UNL     1       4.148   2.354  21.607  0.00  0.00    +0.189 HD
BRANCH  54  60
ATOM     60  C   UNL     1       0.394   2.443  18.925  0.00  0.00    -0.037 C 
ATOM     61  H   UNL     1      -0.527   1.975  19.285  0.00  0.00    +0.028 HD
ATOM     62  H   UNL     1       0.133   3.432  18.535  0.00  0.00    +0.028 HD
ATOM     63  H   UNL     1       0.790   1.843  18.100  0.00  0.00    +0.028 HD
ENDBRANCH  54  60
ENDBRANCH  50  53
ENDBRANCH  44  50
ENDBRANCH  38  44
ENDBRANCH   6  34
BRANCH   9  64
ATOM     64  C   UNL     1       0.267   9.099  22.130  0.00  0.00    +0.349 C 
ATOM     65  F   UNL     1       1.540   9.043  22.621  0.00  0.00    -0.183 F 
ATOM     66  F   UNL     1      -0.305   7.908  22.483  0.00  0.00    -0.183 F 
ATOM     67 CL   UNL     1      -0.609  10.378  23.008  0.00  0.00    -0.042 Cl
ENDBRANCH   9  64
TORSDOF 10
ENDMDL
MODEL 26
REMARK VINA RESULT:    -7.457      4.819     10.550
REMARK INTER + INTRA:          -9.961
REMARK INTER:                  -8.820
REMARK INTRA:                  -1.140
REMARK UNBOUND:                 0.984
REMARK  Name = 
REMARK  10 active torsions:
REMARK  status: ('A' for Active; 'I' for Inactive)
REMARK    1  A    between atoms: C_1  and  C_2
REMARK    2  A    between atoms: C_4  and  O_38
REMARK    3  A    between atoms: C_7  and  C_9
REMARK    4  A    between atoms: N_14  and  C_17
REMARK    5  A    between atoms: C_21  and  C_23
REMARK    6  A    between atoms: C_23  and  C_24
REMARK    7  A    between atoms: C_23  and  C_25
REMARK    8  A    between atoms: C_25  and  C_26
REMARK    9  A    between atoms: C_27  and  C_31
REMARK   10  A    between atoms: C_32  and  C_34
REMARK                            x       y       z     vdW  Elec       q    Type
REMARK                         _______ _______ _______ _____ _____    ______ ____
ROOT
ATOM      1  C   UNL     1      -2.114  12.965  20.498  0.00  0.00    +0.038 A 
ATOM      2  C   UNL     1      -1.899  11.587  20.449  0.00  0.00    -0.037 A 
ATOM      3  C   UNL     1      -0.700  11.162  19.916  0.00  0.00    +0.043 A 
ATOM      4  C   UNL     1       0.289  12.043  19.473  0.00  0.00    -0.008 A 
ATOM      5  C   UNL     1       1.449  11.252  18.955  0.00  0.00    +0.046 C 
ATOM      6  N   UNL     1       1.028   9.868  19.114  0.00  0.00    -0.263 N 
ATOM      7  C   UNL     1      -0.253   9.786  19.670  0.00  0.00    +0.251 C 
ATOM      8  O   UNL     1      -0.963   8.832  19.917  0.00  0.00    -0.270 OA
ATOM      9  C   UNL     1       0.111  13.431  19.541  0.00  0.00    +0.043 A 
ATOM     10  C   UNL     1      -1.124  13.876  20.060  0.00  0.00    -0.039 A 
ATOM     11  H   UNL     1      -2.644  10.877  20.796  0.00  0.00    +0.063 HD
ATOM     12  H   UNL     1       2.342  11.435  19.563  0.00  0.00    +0.052 HD
ATOM     13  H   UNL     1       1.623  11.466  17.895  0.00  0.00    +0.052 HD
ATOM     14  H   UNL     1      -1.344  14.944  20.137  0.00  0.00    +0.063 HD
ENDROOT
BRANCH   1  20
ATOM     15  C   UNL     1      -2.432  13.442  23.497  0.00  0.00    +0.026 C 
ATOM     16  C   UNL     1      -3.187  13.629  24.826  0.00  0.00    -0.007 C 
ATOM     17  C   UNL     1      -4.612  13.216  24.487  0.00  0.00    +0.073 C 
ATOM     18  C   UNL     1      -4.779  13.759  23.068  0.00  0.00    +0.041 C 
ATOM     19  N   UNL     1      -3.467  13.587  22.463  0.00  0.00    -0.292 N 
ATOM     20  C   UNL     1      -3.368  13.463  21.091  0.00  0.00    +0.247 C 
ATOM     21  O   UNL     1      -4.295  13.708  20.323  0.00  0.00    -0.270 OA
ATOM     22  H   UNL     1      -2.032  12.426  23.443  0.00  0.00    +0.050 HD
ATOM     23  H   UNL     1      -3.174  14.681  25.144  0.00  0.00    +0.031 HD
ATOM     24  H   UNL     1      -2.741  13.025  25.624  0.00  0.00    +0.031 HD
ATOM     25  H   UNL     1      -5.357  13.615  25.184  0.00  0.00    +0.061 HD
ATOM     26  H   UNL     1      -4.998  14.834  23.071  0.00  0.00    +0.049 HD
ATOM     27  H   UNL     1      -5.546  13.225  22.497  0.00  0.00    +0.049 HD
BRANCH  15  28
ATOM     28  C   UNL     1      -1.300  14.459  23.378  0.00  0.00    -0.046 C 
ATOM     29  H   UNL     1      -1.037  14.878  24.357  0.00  0.00    +0.025 HD
ATOM     30  H   UNL     1      -1.565  15.298  22.730  0.00  0.00    +0.025 HD
ATOM     31  H   UNL     1      -0.405  13.986  22.957  0.00  0.00    +0.025 HD
ENDBRANCH  15  28
BRANCH  17  32
ATOM     32  O   UNL     1      -4.695  11.790  24.518  0.00  0.00    -0.390 OA
ATOM     33  H   UNL     1      -5.617  11.556  24.731  0.00  0.00    +0.210 HD
ENDBRANCH  17  32
ENDBRANCH   1  20
BRANCH   6  34
ATOM     34  C   UNL     1       1.853   8.778  18.720  0.00  0.00    +0.037 A 
ATOM     35  C   UNL     1       2.407   8.726  17.431  0.00  0.00    -0.040 A 
ATOM     36  C   UNL     1       3.242   7.675  17.044  0.00  0.00    -0.060 A 
ATOM     37  C   UNL     1       3.540   6.649  17.935  0.00  0.00    -0.058 A 
ATOM     38  C   UNL     1       2.994   6.658  19.223  0.00  0.00    -0.042 A 
ATOM     39  C   UNL     1       2.157   7.727  19.596  0.00  0.00    -0.037 A 
ATOM     40  H   UNL     1       2.218   9.501  16.695  0.00  0.00    +0.064 HD
ATOM     41  H   UNL     1       3.668   7.663  16.043  0.00  0.00    +0.062 HD
ATOM     42  H   UNL     1       4.199   5.845  17.613  0.00  0.00    +0.062 HD
ATOM     43  H   UNL     1       1.744   7.714  20.600  0.00  0.00    +0.064 HD
BRANCH  38  44
ATOM     44  C   UNL     1       3.308   5.566  20.237  0.00  0.00    -0.013 C 
ATOM     45  H   UNL     1       3.439   6.036  21.221  0.00  0.00    +0.035 HD
BRANCH  44  46
ATOM     46  C   UNL     1       4.643   4.895  19.891  0.00  0.00    -0.058 C 
ATOM     47  H   UNL     1       5.340   4.956  20.734  0.00  0.00    +0.024 HD
ATOM     48  H   UNL     1       5.115   5.378  19.029  0.00  0.00    +0.024 HD
ATOM     49  H   UNL     1       4.511   3.833  19.647  0.00  0.00    +0.024 HD
ENDBRANCH  44  46
BRANCH  44  50
ATOM     50  C   UNL     1       2.198   4.500  20.371  0.00  0.00    -0.004 C 
ATOM     51  H   UNL     1       1.222   4.976  20.202  0.00  0.00    +0.033 HD
ATOM     52  H   UNL     1       2.159   4.104  21.393  0.00  0.00    +0.033 HD
BRANCH  50  53
ATOM     53  C   UNL     1       2.334   3.370  19.399  0.00  0.00    +0.040 A 
ATOM     54  C   UNL     1       1.914   3.209  18.090  0.00  0.00    -0.010 A 
ATOM     55  C   UNL     1       2.383   1.923  17.731  0.00  0.00    +0.052 A 
ATOM     56  N   UNL     1       3.044   1.319  18.718  0.00  0.00    -0.182 NA
ATOM     57  N   UNL     1       2.987   2.208  19.722  0.00  0.00    -0.281 N 
ATOM     58  H   UNL     1       2.271   1.407  16.785  0.00  0.00    +0.085 HD
ATOM     59  H   UNL     1       3.428   1.960  20.603  0.00  0.00    +0.189 HD
BRANCH  54  60
ATOM     60  C   UNL     1       1.150   4.146  17.237  0.00  0.00    -0.037 C 
ATOM     61  H   UNL     1       0.106   3.833  17.140  0.00  0.00    +0.028 HD
ATOM     62  H   UNL     1       1.156   5.152  17.667  0.00  0.00    +0.028 HD
ATOM     63  H   UNL     1       1.593   4.197  16.237  0.00  0.00    +0.028 HD
ENDBRANCH  54  60
ENDBRANCH  50  53
ENDBRANCH  44  50
ENDBRANCH  38  44
ENDBRANCH   6  34
BRANCH   9  64
ATOM     64  C   UNL     1       1.173  14.363  18.990  0.00  0.00    +0.349 C 
ATOM     65  F   UNL     1       0.621  15.267  18.129  0.00  0.00    -0.183 F 
ATOM     66  F   UNL     1       2.107  13.690  18.251  0.00  0.00    -0.183 F 
ATOM     67 CL   UNL     1       2.057  15.266  20.248  0.00  0.00    -0.042 Cl
ENDBRANCH   9  64
TORSDOF 10
ENDMDL
MODEL 27
REMARK VINA RESULT:    -7.352      3.258      4.814
REMARK INTER + INTRA:          -9.807
REMARK INTER:                  -8.735
REMARK INTRA:                  -1.072
REMARK UNBOUND:                 0.984
REMARK  Name = 
REMARK  10 active torsions:
REMARK  status: ('A' for Active; 'I' for Inactive)
REMARK    1  A    between atoms: C_1  and  C_2
REMARK    2  A    between atoms: C_4  and  O_38
REMARK    3  A    between atoms: C_7  and  C_9
REMARK    4  A    between atoms: N_14  and  C_17
REMARK    5  A    between atoms: C_21  and  C_23
REMARK    6  A    between atoms: C_23  and  C_24
REMARK    7  A    between atoms: C_23  and  C_25
REMARK    8  A    between atoms: C_25  and  C_26
REMARK    9  A    between atoms: C_27  and  C_31
REMARK   10  A    between atoms: C_32  and  C_34
REMARK                            x       y       z     vdW  Elec       q    Type
REMARK                         _______ _______ _______ _____ _____    ______ ____
ROOT
ATOM      1  C   UNL     1       3.786   4.969  19.034  0.00  0.00    +0.038 A 
ATOM      2  C   UNL     1       2.923   5.915  19.588  0.00  0.00    -0.037 A 
ATOM      3  C   UNL     1       2.835   7.132  18.943  0.00  0.00    +0.043 A 
ATOM      4  C   UNL     1       3.533   7.420  17.768  0.00  0.00    -0.008 A 
ATOM      5  C   UNL     1       3.213   8.819  17.343  0.00  0.00    +0.046 C 
ATOM      6  N   UNL     1       2.308   9.300  18.377  0.00  0.00    -0.263 N 
ATOM      7  C   UNL     1       2.078   8.321  19.349  0.00  0.00    +0.251 C 
ATOM      8  O   UNL     1       1.431   8.344  20.377  0.00  0.00    -0.270 OA
ATOM      9  C   UNL     1       4.381   6.476  17.174  0.00  0.00    +0.043 A 
ATOM     10  C   UNL     1       4.499   5.238  17.842  0.00  0.00    -0.039 A 
ATOM     11  H   UNL     1       2.359   5.716  20.494  0.00  0.00    +0.063 HD
ATOM     12  H   UNL     1       2.696   8.818  16.377  0.00  0.00    +0.052 HD
ATOM     13  H   UNL     1       4.116   9.437  17.325  0.00  0.00    +0.052 HD
ATOM     14  H   UNL     1       5.148   4.452  17.447  0.00  0.00    +0.063 HD
ENDROOT
BRANCH   1  20
ATOM     15  C   UNL     1       1.328   3.287  19.707  0.00  0.00    +0.026 C 
ATOM     16  C   UNL     1       0.518   2.194  20.430  0.00  0.00    -0.007 C 
ATOM     17  C   UNL     1       1.430   1.771  21.572  0.00  0.00    +0.073 C 
ATOM     18  C   UNL     1       2.814   1.835  20.925  0.00  0.00    +0.041 C 
ATOM     19  N   UNL     1       2.730   2.969  20.016  0.00  0.00    -0.292 N 
ATOM     20  C   UNL     1       3.885   3.644  19.672  0.00  0.00    +0.247 C 
ATOM     21  O   UNL     1       5.012   3.217  19.909  0.00  0.00    -0.270 OA
ATOM     22  H   UNL     1       1.094   4.263  20.141  0.00  0.00    +0.050 HD
ATOM     23  H   UNL     1       0.333   1.337  19.769  0.00  0.00    +0.031 HD
ATOM     24  H   UNL     1      -0.450   2.578  20.771  0.00  0.00    +0.031 HD
ATOM     25  H   UNL     1       1.195   0.779  21.971  0.00  0.00    +0.061 HD
ATOM     26  H   UNL     1       3.016   0.945  20.317  0.00  0.00    +0.049 HD
ATOM     27  H   UNL     1       3.617   1.978  21.654  0.00  0.00    +0.049 HD
BRANCH  15  28
ATOM     28  C   UNL     1       1.013   3.286  18.214  0.00  0.00    -0.046 C 
ATOM     29  H   UNL     1       0.021   3.707  18.017  0.00  0.00    +0.025 HD
ATOM     30  H   UNL     1       1.026   2.279  17.790  0.00  0.00    +0.025 HD
ATOM     31  H   UNL     1       1.753   3.883  17.669  0.00  0.00    +0.025 HD
ENDBRANCH  15  28
BRANCH  17  32
ATOM     32  O   UNL     1       1.302   2.717  22.635  0.00  0.00    -0.390 OA
ATOM     33  H   UNL     1       1.913   3.453  22.446  0.00  0.00    +0.210 HD
ENDBRANCH  17  32
ENDBRANCH   1  20
BRANCH   6  34
ATOM     34  C   UNL     1       1.771  10.618  18.356  0.00  0.00    +0.037 A 
ATOM     35  C   UNL     1       2.586  11.720  18.055  0.00  0.00    -0.040 A 
ATOM     36  C   UNL     1       2.061  13.015  18.003  0.00  0.00    -0.060 A 
ATOM     37  C   UNL     1       0.711  13.237  18.255  0.00  0.00    -0.058 A 
ATOM     38  C   UNL     1      -0.129  12.165  18.574  0.00  0.00    -0.042 A 
ATOM     39  C   UNL     1       0.417  10.867  18.618  0.00  0.00    -0.037 A 
ATOM     40  H   UNL     1       3.644  11.610  17.841  0.00  0.00    +0.064 HD
ATOM     41  H   UNL     1       2.711  13.852  17.756  0.00  0.00    +0.062 HD
ATOM     42  H   UNL     1       0.325  14.252  18.200  0.00  0.00    +0.062 HD
ATOM     43  H   UNL     1      -0.252  10.050  18.868  0.00  0.00    +0.064 HD
BRANCH  38  44
ATOM     44  C   UNL     1      -1.616  12.359  18.838  0.00  0.00    -0.013 C 
ATOM     45  H   UNL     1      -1.996  13.114  18.136  0.00  0.00    +0.035 HD
BRANCH  44  46
ATOM     46  C   UNL     1      -1.830  12.924  20.248  0.00  0.00    -0.058 C 
ATOM     47  H   UNL     1      -0.899  13.345  20.645  0.00  0.00    +0.024 HD
ATOM     48  H   UNL     1      -2.167  12.144  20.938  0.00  0.00    +0.024 HD
ATOM     49  H   UNL     1      -2.583  13.722  20.253  0.00  0.00    +0.024 HD
ENDBRANCH  44  46
BRANCH  44  50
ATOM     50  C   UNL     1      -2.457  11.077  18.648  0.00  0.00    -0.004 C 
ATOM     51  H   UNL     1      -3.366  11.150  19.260  0.00  0.00    +0.033 HD
ATOM     52  H   UNL     1      -1.918  10.198  19.024  0.00  0.00    +0.033 HD
BRANCH  50  53
ATOM     53  C   UNL     1      -2.874  10.841  17.230  0.00  0.00    +0.040 A 
ATOM     54  C   UNL     1      -3.983  11.242  16.504  0.00  0.00    -0.010 A 
ATOM     55  C   UNL     1      -3.762  10.712  15.211  0.00  0.00    +0.052 A 
ATOM     56  N   UNL     1      -2.616  10.037  15.119  0.00  0.00    -0.182 NA
ATOM     57  N   UNL     1      -2.105  10.116  16.357  0.00  0.00    -0.281 N 
ATOM     58  H   UNL     1      -4.391  10.796  14.334  0.00  0.00    +0.085 HD
ATOM     59  H   UNL     1      -1.215   9.659  16.534  0.00  0.00    +0.189 HD
BRANCH  54  60
ATOM     60  C   UNL     1      -5.147  12.039  16.950  0.00  0.00    -0.037 C 
ATOM     61  H   UNL     1      -4.851  13.059  17.215  0.00  0.00    +0.028 HD
ATOM     62  H   UNL     1      -5.897  12.107  16.155  0.00  0.00    +0.028 HD
ATOM     63  H   UNL     1      -5.614  11.574  17.823  0.00  0.00    +0.028 HD
ENDBRANCH  54  60
ENDBRANCH  50  53
ENDBRANCH  44  50
ENDBRANCH  38  44
ENDBRANCH   6  34
BRANCH   9  64
ATOM     64  C   UNL     1       5.178   6.841  15.937  0.00  0.00    +0.349 C 
ATOM     65  F   UNL     1       6.150   7.750  16.241  0.00  0.00    -0.183 F 
ATOM     66  F   UNL     1       4.401   7.450  14.992  0.00  0.00    -0.183 F 
ATOM     67 CL   UNL     1       5.956   5.444  15.149  0.00  0.00    -0.042 Cl
ENDBRANCH   9  64
TORSDOF 10
ENDMDL
MODEL 28
REMARK VINA RESULT:    -7.277      3.176      4.292
REMARK INTER + INTRA:          -9.697
REMARK INTER:                  -9.474
REMARK INTRA:                  -0.222
REMARK UNBOUND:                 0.984
REMARK  Name = 
REMARK  10 active torsions:
REMARK  status: ('A' for Active; 'I' for Inactive)
REMARK    1  A    between atoms: C_1  and  C_2
REMARK    2  A    between atoms: C_4  and  O_38
REMARK    3  A    between atoms: C_7  and  C_9
REMARK    4  A    between atoms: N_14  and  C_17
REMARK    5  A    between atoms: C_21  and  C_23
REMARK    6  A    between atoms: C_23  and  C_24
REMARK    7  A    between atoms: C_23  and  C_25
REMARK    8  A    between atoms: C_25  and  C_26
REMARK    9  A    between atoms: C_27  and  C_31
REMARK   10  A    between atoms: C_32  and  C_34
REMARK                            x       y       z     vdW  Elec       q    Type
REMARK                         _______ _______ _______ _____ _____    ______ ____
ROOT
ATOM      1  C   UNL     1       2.037   5.866  20.345  0.00  0.00    +0.038 A 
ATOM      2  C   UNL     1       1.215   6.656  21.149  0.00  0.00    -0.037 A 
ATOM      3  C   UNL     1       1.034   7.967  20.757  0.00  0.00    +0.043 A 
ATOM      4  C   UNL     1       1.601   8.497  19.596  0.00  0.00    -0.008 A 
ATOM      5  C   UNL     1       1.208   9.936  19.476  0.00  0.00    +0.046 C 
ATOM      6  N   UNL     1       0.405  10.180  20.665  0.00  0.00    -0.263 N 
ATOM      7  C   UNL     1       0.298   9.028  21.452  0.00  0.00    +0.251 C 
ATOM      8  O   UNL     1      -0.241   8.834  22.524  0.00  0.00    -0.270 OA
ATOM      9  C   UNL     1       2.403   7.715  18.754  0.00  0.00    +0.043 A 
ATOM     10  C   UNL     1       2.617   6.380  19.162  0.00  0.00    -0.039 A 
ATOM     11  H   UNL     1       0.752   6.270  22.052  0.00  0.00    +0.063 HD
ATOM     12  H   UNL     1       0.595  10.094  18.582  0.00  0.00    +0.052 HD
ATOM     13  H   UNL     1       2.091  10.583  19.487  0.00  0.00    +0.052 HD
ATOM     14  H   UNL     1       3.239   5.708  18.565  0.00  0.00    +0.063 HD
ENDROOT
BRANCH   1  20
ATOM     15  C   UNL     1       3.967   4.036  18.845  0.00  0.00    +0.026 C 
ATOM     16  C   UNL     1       4.558   2.699  18.359  0.00  0.00    -0.007 C 
ATOM     17  C   UNL     1       3.497   1.679  18.745  0.00  0.00    +0.073 C 
ATOM     18  C   UNL     1       3.006   2.214  20.091  0.00  0.00    +0.041 C 
ATOM     19  N   UNL     1       3.063   3.660  19.942  0.00  0.00    -0.292 N 
ATOM     20  C   UNL     1       2.230   4.450  20.709  0.00  0.00    +0.247 C 
ATOM     21  O   UNL     1       1.594   4.026  21.670  0.00  0.00    -0.270 OA
ATOM     22  H   UNL     1       3.370   4.483  18.046  0.00  0.00    +0.050 HD
ATOM     23  H   UNL     1       5.498   2.469  18.880  0.00  0.00    +0.031 HD
ATOM     24  H   UNL     1       4.762   2.723  17.283  0.00  0.00    +0.031 HD
ATOM     25  H   UNL     1       3.882   0.656  18.811  0.00  0.00    +0.061 HD
ATOM     26  H   UNL     1       3.689   1.943  20.905  0.00  0.00    +0.049 HD
ATOM     27  H   UNL     1       1.990   1.886  20.333  0.00  0.00    +0.049 HD
BRANCH  15  28
ATOM     28  C   UNL     1       5.081   4.990  19.267  0.00  0.00    -0.046 C 
ATOM     29  H   UNL     1       5.020   5.224  20.336  0.00  0.00    +0.025 HD
ATOM     30  H   UNL     1       5.037   5.939  18.726  0.00  0.00    +0.025 HD
ATOM     31  H   UNL     1       6.061   4.542  19.069  0.00  0.00    +0.025 HD
ENDBRANCH  15  28
BRANCH  17  32
ATOM     32  O   UNL     1       2.461   1.700  17.761  0.00  0.00    -0.390 OA
ATOM     33  H   UNL     1       2.664   2.423  17.140  0.00  0.00    +0.210 HD
ENDBRANCH  17  32
ENDBRANCH   1  20
BRANCH   6  34
ATOM     34  C   UNL     1      -0.161  11.455  20.945  0.00  0.00    +0.037 A 
ATOM     35  C   UNL     1       0.607  12.465  21.546  0.00  0.00    -0.040 A 
ATOM     36  C   UNL     1       0.070  13.730  21.798  0.00  0.00    -0.060 A 
ATOM     37  C   UNL     1      -1.250  14.013  21.460  0.00  0.00    -0.058 A 
ATOM     38  C   UNL     1      -2.051  13.028  20.875  0.00  0.00    -0.042 A 
ATOM     39  C   UNL     1      -1.491  11.759  20.625  0.00  0.00    -0.037 A 
ATOM     40  H   UNL     1       1.644  12.307  21.825  0.00  0.00    +0.064 HD
ATOM     41  H   UNL     1       0.689  14.500  22.255  0.00  0.00    +0.062 HD
ATOM     42  H   UNL     1      -1.643  15.007  21.660  0.00  0.00    +0.062 HD
ATOM     43  H   UNL     1      -2.130  11.009  20.170  0.00  0.00    +0.064 HD
BRANCH  38  44
ATOM     44  C   UNL     1      -3.494  13.299  20.471  0.00  0.00    -0.013 C 
ATOM     45  H   UNL     1      -3.489  13.961  19.594  0.00  0.00    +0.035 HD
BRANCH  44  46
ATOM     46  C   UNL     1      -4.219  14.059  21.589  0.00  0.00    -0.058 C 
ATOM     47  H   UNL     1      -3.630  14.921  21.920  0.00  0.00    +0.024 HD
ATOM     48  H   UNL     1      -4.388  13.414  22.458  0.00  0.00    +0.024 HD
ATOM     49  H   UNL     1      -5.195  14.433  21.256  0.00  0.00    +0.024 HD
ENDBRANCH  44  46
BRANCH  44  50
ATOM     50  C   UNL     1      -4.287  12.027  20.093  0.00  0.00    -0.004 C 
ATOM     51  H   UNL     1      -5.307  12.109  20.493  0.00  0.00    +0.033 HD
ATOM     52  H   UNL     1      -3.853  11.141  20.572  0.00  0.00    +0.033 HD
BRANCH  50  53
ATOM     53  C   UNL     1      -4.387  11.803  18.617  0.00  0.00    +0.040 A 
ATOM     54  C   UNL     1      -3.834  10.849  17.778  0.00  0.00    -0.010 A 
ATOM     55  C   UNL     1      -4.342  11.176  16.499  0.00  0.00    +0.052 A 
ATOM     56  N   UNL     1      -5.146  12.239  16.519  0.00  0.00    -0.182 NA
ATOM     57  N   UNL     1      -5.145  12.609  17.809  0.00  0.00    -0.281 N 
ATOM     58  H   UNL     1      -4.158  10.677  15.556  0.00  0.00    +0.085 HD
ATOM     59  H   UNL     1      -5.697  13.420  18.071  0.00  0.00    +0.189 HD
BRANCH  54  60
ATOM     60  C   UNL     1      -2.920   9.735  18.113  0.00  0.00    -0.037 C 
ATOM     61  H   UNL     1      -3.394   8.765  17.932  0.00  0.00    +0.028 HD
ATOM     62  H   UNL     1      -2.014   9.781  17.500  0.00  0.00    +0.028 HD
ATOM     63  H   UNL     1      -2.626   9.789  19.165  0.00  0.00    +0.028 HD
ENDBRANCH  54  60
ENDBRANCH  50  53
ENDBRANCH  44  50
ENDBRANCH  38  44
ENDBRANCH   6  34
BRANCH   9  64
ATOM     64  C   UNL     1       3.061   8.335  17.537  0.00  0.00    +0.349 C 
ATOM     65  F   UNL     1       3.806   9.422  17.893  0.00  0.00    -0.183 F 
ATOM     66  F   UNL     1       2.138   8.810  16.647  0.00  0.00    -0.183 F 
ATOM     67 CL   UNL     1       4.116   7.211  16.642  0.00  0.00    -0.042 Cl
ENDBRANCH   9  64
TORSDOF 10
ENDMDL
MODEL 29
REMARK VINA RESULT:    -7.255      3.462      8.838
REMARK INTER + INTRA:          -9.664
REMARK INTER:                 -10.284
REMARK INTRA:                   0.620
REMARK UNBOUND:                 0.984
REMARK  Name = 
REMARK  10 active torsions:
REMARK  status: ('A' for Active; 'I' for Inactive)
REMARK    1  A    between atoms: C_1  and  C_2
REMARK    2  A    between atoms: C_4  and  O_38
REMARK    3  A    between atoms: C_7  and  C_9
REMARK    4  A    between atoms: N_14  and  C_17
REMARK    5  A    between atoms: C_21  and  C_23
REMARK    6  A    between atoms: C_23  and  C_24
REMARK    7  A    between atoms: C_23  and  C_25
REMARK    8  A    between atoms: C_25  and  C_26
REMARK    9  A    between atoms: C_27  and  C_31
REMARK   10  A    between atoms: C_32  and  C_34
REMARK                            x       y       z     vdW  Elec       q    Type
REMARK                         _______ _______ _______ _____ _____    ______ ____
ROOT
ATOM      1  C   UNL     1       0.645  11.503  19.926  0.00  0.00    +0.038 A 
ATOM      2  C   UNL     1       1.244  10.474  19.198  0.00  0.00    -0.037 A 
ATOM      3  C   UNL     1       1.220   9.215  19.763  0.00  0.00    +0.043 A 
ATOM      4  C   UNL     1       0.600   8.943  20.985  0.00  0.00    -0.008 A 
ATOM      5  C   UNL     1       0.764   7.490  21.300  0.00  0.00    +0.046 C 
ATOM      6  N   UNL     1       1.542   6.974  20.183  0.00  0.00    -0.263 N 
ATOM      7  C   UNL     1       1.839   7.984  19.261  0.00  0.00    +0.251 C 
ATOM      8  O   UNL     1       2.492   7.970  18.236  0.00  0.00    -0.270 OA
ATOM      9  C   UNL     1      -0.036   9.952  21.719  0.00  0.00    +0.043 A 
ATOM     10  C   UNL     1       0.007  11.249  21.163  0.00  0.00    -0.039 A 
ATOM     11  H   UNL     1       1.724  10.652  18.240  0.00  0.00    +0.063 HD
ATOM     12  H   UNL     1      -0.210   6.990  21.329  0.00  0.00    +0.052 HD
ATOM     13  H   UNL     1       1.323   7.354  22.233  0.00  0.00    +0.052 HD
ATOM     14  H   UNL     1      -0.458  12.093  21.679  0.00  0.00    +0.063 HD
ENDROOT
BRANCH   1  20
ATOM     15  C   UNL     1       3.059  12.726  18.511  0.00  0.00    +0.026 C 
ATOM     16  C   UNL     1       3.946  13.852  17.947  0.00  0.00    -0.007 C 
ATOM     17  C   UNL     1       3.339  15.115  18.541  0.00  0.00    +0.073 C 
ATOM     18  C   UNL     1       1.842  14.804  18.507  0.00  0.00    +0.041 C 
ATOM     19  N   UNL     1       1.769  13.377  18.783  0.00  0.00    -0.292 N 
ATOM     20  C   UNL     1       0.619  12.857  19.343  0.00  0.00    +0.247 C 
ATOM     21  O   UNL     1      -0.435  13.483  19.426  0.00  0.00    -0.270 OA
ATOM     22  H   UNL     1       3.473  12.375  19.460  0.00  0.00    +0.050 HD
ATOM     23  H   UNL     1       3.884  13.894  16.851  0.00  0.00    +0.031 HD
ATOM     24  H   UNL     1       4.996  13.707  18.224  0.00  0.00    +0.031 HD
ATOM     25  H   UNL     1       3.595  16.022  17.985  0.00  0.00    +0.061 HD
ATOM     26  H   UNL     1       1.420  14.965  17.508  0.00  0.00    +0.049 HD
ATOM     27  H   UNL     1       1.273  15.374  19.249  0.00  0.00    +0.049 HD
BRANCH  15  28
ATOM     28  C   UNL     1       2.966  11.571  17.518  0.00  0.00    -0.046 C 
ATOM     29  H   UNL     1       3.943  11.354  17.068  0.00  0.00    +0.025 HD
ATOM     30  H   UNL     1       2.275  11.785  16.699  0.00  0.00    +0.025 HD
ATOM     31  H   UNL     1       2.612  10.664  18.021  0.00  0.00    +0.025 HD
ENDBRANCH  15  28
BRANCH  17  32
ATOM     32  O   UNL     1       3.815  15.266  19.880  0.00  0.00    -0.390 OA
ATOM     33  H   UNL     1       4.688  15.696  19.833  0.00  0.00    +0.210 HD
ENDBRANCH  17  32
ENDBRANCH   1  20
BRANCH   6  34
ATOM     34  C   UNL     1       1.935   5.609  20.102  0.00  0.00    +0.037 A 
ATOM     35  C   UNL     1       1.889   4.781  21.235  0.00  0.00    -0.040 A 
ATOM     36  C   UNL     1       2.245   3.432  21.160  0.00  0.00    -0.060 A 
ATOM     37  C   UNL     1       2.658   2.880  19.951  0.00  0.00    -0.058 A 
ATOM     38  C   UNL     1       2.731   3.677  18.805  0.00  0.00    -0.042 A 
ATOM     39  C   UNL     1       2.365   5.034  18.899  0.00  0.00    -0.037 A 
ATOM     40  H   UNL     1       1.567   5.152  22.203  0.00  0.00    +0.064 HD
ATOM     41  H   UNL     1       2.190   2.808  22.049  0.00  0.00    +0.062 HD
ATOM     42  H   UNL     1       2.922   1.825  19.916  0.00  0.00    +0.062 HD
ATOM     43  H   UNL     1       2.430   5.635  17.997  0.00  0.00    +0.064 HD
BRANCH  38  44
ATOM     44  C   UNL     1       3.159   3.111  17.457  0.00  0.00    -0.013 C 
ATOM     45  H   UNL     1       2.266   2.733  16.942  0.00  0.00    +0.035 HD
BRANCH  44  46
ATOM     46  C   UNL     1       4.089   1.909  17.664  0.00  0.00    -0.058 C 
ATOM     47  H   UNL     1       3.636   0.993  17.267  0.00  0.00    +0.024 HD
ATOM     48  H   UNL     1       4.295   1.749  18.727  0.00  0.00    +0.024 HD
ATOM     49  H   UNL     1       5.051   2.050  17.155  0.00  0.00    +0.024 HD
ENDBRANCH  44  46
BRANCH  44  50
ATOM     50  C   UNL     1       3.831   4.148  16.529  0.00  0.00    -0.004 C 
ATOM     51  H   UNL     1       3.361   5.129  16.688  0.00  0.00    +0.033 HD
ATOM     52  H   UNL     1       3.652   3.902  15.475  0.00  0.00    +0.033 HD
BRANCH  50  53
ATOM     53  C   UNL     1       5.301   4.298  16.767  0.00  0.00    +0.040 A 
ATOM     54  C   UNL     1       6.395   4.245  15.919  0.00  0.00    -0.010 A 
ATOM     55  C   UNL     1       7.502   4.493  16.763  0.00  0.00    +0.052 A 
ATOM     56  N   UNL     1       7.149   4.689  18.034  0.00  0.00    -0.182 NA
ATOM     57  N   UNL     1       5.814   4.550  18.013  0.00  0.00    -0.281 N 
ATOM     58  H   UNL     1       8.551   4.542  16.499  0.00  0.00    +0.085 HD
ATOM     59  H   UNL     1       5.312   4.653  18.890  0.00  0.00    +0.189 HD
BRANCH  54  60
ATOM     60  C   UNL     1       6.429   3.989  14.462  0.00  0.00    -0.037 C 
ATOM     61  H   UNL     1       6.660   2.940  14.248  0.00  0.00    +0.028 HD
ATOM     62  H   UNL     1       5.459   4.214  14.007  0.00  0.00    +0.028 HD
ATOM     63  H   UNL     1       7.186   4.617  13.984  0.00  0.00    +0.028 HD
ENDBRANCH  54  60
ENDBRANCH  50  53
ENDBRANCH  44  50
ENDBRANCH  38  44
ENDBRANCH   6  34
BRANCH   9  64
ATOM     64  C   UNL     1      -0.641   9.642  23.074  0.00  0.00    +0.349 C 
ATOM     65  F   UNL     1       0.338   9.414  23.998  0.00  0.00    -0.183 F 
ATOM     66  F   UNL     1      -1.382   8.493  23.050  0.00  0.00    -0.183 F 
ATOM     67 CL   UNL     1      -1.701  10.932  23.699  0.00  0.00    -0.042 Cl
ENDBRANCH   9  64
TORSDOF 10
ENDMDL
MODEL 30
REMARK VINA RESULT:    -7.209      4.641     10.649
REMARK INTER + INTRA:          -9.597
REMARK INTER:                  -9.426
REMARK INTRA:                  -0.171
REMARK UNBOUND:                 0.984
REMARK  Name = 
REMARK  10 active torsions:
REMARK  status: ('A' for Active; 'I' for Inactive)
REMARK    1  A    between atoms: C_1  and  C_2
REMARK    2  A    between atoms: C_4  and  O_38
REMARK    3  A    between atoms: C_7  and  C_9
REMARK    4  A    between atoms: N_14  and  C_17
REMARK    5  A    between atoms: C_21  and  C_23
REMARK    6  A    between atoms: C_23  and  C_24
REMARK    7  A    between atoms: C_23  and  C_25
REMARK    8  A    between atoms: C_25  and  C_26
REMARK    9  A    between atoms: C_27  and  C_31
REMARK   10  A    between atoms: C_32  and  C_34
REMARK                            x       y       z     vdW  Elec       q    Type
REMARK                         _______ _______ _______ _____ _____    ______ ____
ROOT
ATOM      1  C   UNL     1      -2.899  12.858  21.146  0.00  0.00    +0.038 A 
ATOM      2  C   UNL     1      -1.916  12.086  21.766  0.00  0.00    -0.037 A 
ATOM      3  C   UNL     1      -1.312  11.112  20.996  0.00  0.00    +0.043 A 
ATOM      4  C   UNL     1      -1.619  10.910  19.649  0.00  0.00    -0.008 A 
ATOM      5  C   UNL     1      -0.788   9.782  19.125  0.00  0.00    +0.046 C 
ATOM      6  N   UNL     1      -0.015   9.350  20.281  0.00  0.00    -0.263 N 
ATOM      7  C   UNL     1      -0.318  10.116  21.411  0.00  0.00    +0.251 C 
ATOM      8  O   UNL     1       0.073  10.045  22.559  0.00  0.00    -0.270 OA
ATOM      9  C   UNL     1      -2.579  11.693  18.995  0.00  0.00    +0.043 A 
ATOM     10  C   UNL     1      -3.223  12.674  19.781  0.00  0.00    -0.039 A 
ATOM     11  H   UNL     1      -1.648  12.227  22.808  0.00  0.00    +0.063 HD
ATOM     12  H   UNL     1      -0.108  10.136  18.342  0.00  0.00    +0.052 HD
ATOM     13  H   UNL     1      -1.422   8.960  18.777  0.00  0.00    +0.052 HD
ATOM     14  H   UNL     1      -3.991  13.320  19.348  0.00  0.00    +0.063 HD
ENDROOT
BRANCH   1  20
ATOM     15  C   UNL     1      -1.532  14.227  23.508  0.00  0.00    +0.026 C 
ATOM     16  C   UNL     1      -1.444  15.041  24.813  0.00  0.00    -0.007 C 
ATOM     17  C   UNL     1      -2.888  15.114  25.285  0.00  0.00    +0.073 C 
ATOM     18  C   UNL     1      -3.654  15.266  23.970  0.00  0.00    +0.041 C 
ATOM     19  N   UNL     1      -2.901  14.456  23.024  0.00  0.00    -0.292 N 
ATOM     20  C   UNL     1      -3.547  13.931  21.922  0.00  0.00    +0.247 C 
ATOM     21  O   UNL     1      -4.669  14.282  21.567  0.00  0.00    -0.270 OA
ATOM     22  H   UNL     1      -1.420  13.163  23.733  0.00  0.00    +0.050 HD
ATOM     23  H   UNL     1      -1.067  16.055  24.621  0.00  0.00    +0.031 HD
ATOM     24  H   UNL     1      -0.777  14.560  25.536  0.00  0.00    +0.031 HD
ATOM     25  H   UNL     1      -3.076  15.937  25.981  0.00  0.00    +0.061 HD
ATOM     26  H   UNL     1      -3.628  16.300  23.606  0.00  0.00    +0.049 HD
ATOM     27  H   UNL     1      -4.690  14.921  24.040  0.00  0.00    +0.049 HD
BRANCH  15  28
ATOM     28  C   UNL     1      -0.451  14.672  22.527  0.00  0.00    -0.046 C 
ATOM     29  H   UNL     1       0.325  15.262  23.029  0.00  0.00    +0.025 HD
ATOM     30  H   UNL     1      -0.855  15.291  21.721  0.00  0.00    +0.025 HD
ATOM     31  H   UNL     1       0.027  13.800  22.065  0.00  0.00    +0.025 HD
ENDBRANCH  15  28
BRANCH  17  32
ATOM     32  O   UNL     1      -3.216  13.891  25.946  0.00  0.00    -0.390 OA
ATOM     33  H   UNL     1      -4.036  13.551  25.542  0.00  0.00    +0.210 HD
ENDBRANCH  17  32
ENDBRANCH   1  20
BRANCH   6  34
ATOM     34  C   UNL     1       0.906   8.268  20.211  0.00  0.00    +0.037 A 
ATOM     35  C   UNL     1       0.887   7.245  21.172  0.00  0.00    -0.040 A 
ATOM     36  C   UNL     1       1.768   6.163  21.096  0.00  0.00    -0.060 A 
ATOM     37  C   UNL     1       2.692   6.081  20.059  0.00  0.00    -0.058 A 
ATOM     38  C   UNL     1       2.752   7.089  19.091  0.00  0.00    -0.042 A 
ATOM     39  C   UNL     1       1.854   8.170  19.183  0.00  0.00    -0.037 A 
ATOM     40  H   UNL     1       0.184   7.249  21.999  0.00  0.00    +0.064 HD
ATOM     41  H   UNL     1       1.726   5.377  21.847  0.00  0.00    +0.062 HD
ATOM     42  H   UNL     1       3.362   5.225  20.016  0.00  0.00    +0.062 HD
ATOM     43  H   UNL     1       1.918   8.941  18.421  0.00  0.00    +0.064 HD
BRANCH  38  44
ATOM     44  C   UNL     1       3.734   7.031  17.928  0.00  0.00    -0.013 C 
ATOM     45  H   UNL     1       4.715   7.370  18.288  0.00  0.00    +0.035 HD
BRANCH  44  46
ATOM     46  C   UNL     1       3.306   8.012  16.830  0.00  0.00    -0.058 C 
ATOM     47  H   UNL     1       4.059   8.797  16.693  0.00  0.00    +0.024 HD
ATOM     48  H   UNL     1       2.357   8.497  17.083  0.00  0.00    +0.024 HD
ATOM     49  H   UNL     1       3.176   7.506  15.865  0.00  0.00    +0.024 HD
ENDBRANCH  44  46
BRANCH  44  50
ATOM     50  C   UNL     1       3.916   5.616  17.334  0.00  0.00    -0.004 C 
ATOM     51  H   UNL     1       3.366   5.552  16.385  0.00  0.00    +0.033 HD
ATOM     52  H   UNL     1       3.466   4.858  17.987  0.00  0.00    +0.033 HD
BRANCH  50  53
ATOM     53  C   UNL     1       5.345   5.261  17.064  0.00  0.00    +0.040 A 
ATOM     54  C   UNL     1       6.434   5.073  17.898  0.00  0.00    -0.010 A 
ATOM     55  C   UNL     1       7.488   4.728  17.020  0.00  0.00    +0.052 A 
ATOM     56  N   UNL     1       7.108   4.698  15.743  0.00  0.00    -0.182 NA
ATOM     57  N   UNL     1       5.811   5.039  15.794  0.00  0.00    -0.281 N 
ATOM     58  H   UNL     1       8.517   4.495  17.264  0.00  0.00    +0.085 HD
ATOM     59  H   UNL     1       5.298   5.090  14.919  0.00  0.00    +0.189 HD
BRANCH  54  60
ATOM     60  C   UNL     1       6.509   5.196  19.370  0.00  0.00    -0.037 C 
ATOM     61  H   UNL     1       5.992   4.368  19.866  0.00  0.00    +0.028 HD
ATOM     62  H   UNL     1       7.551   5.185  19.707  0.00  0.00    +0.028 HD
ATOM     63  H   UNL     1       6.053   6.136  19.696  0.00  0.00    +0.028 HD
ENDBRANCH  54  60
ENDBRANCH  50  53
ENDBRANCH  44  50
ENDBRANCH  38  44
ENDBRANCH   6  34
BRANCH   9  64
ATOM     64  C   UNL     1      -2.941  11.407  17.551  0.00  0.00    +0.349 C 
ATOM     65  F   UNL     1      -1.955  11.841  16.712  0.00  0.00    -0.183 F 
ATOM     66  F   UNL     1      -4.063  12.084  17.164  0.00  0.00    -0.183 F 
ATOM     67 CL   UNL     1      -3.233   9.681  17.215  0.00  0.00    -0.042 Cl
ENDBRANCH   9  64
TORSDOF 10
ENDMDL
MODEL 31
REMARK VINA RESULT:    -7.184      3.012      4.694
REMARK INTER + INTRA:          -9.560
REMARK INTER:                  -9.127
REMARK INTRA:                  -0.434
REMARK UNBOUND:                 0.984
REMARK  Name = 
REMARK  10 active torsions:
REMARK  status: ('A' for Active; 'I' for Inactive)
REMARK    1  A    between atoms: C_1  and  C_2
REMARK    2  A    between atoms: C_4  and  O_38
REMARK    3  A    between atoms: C_7  and  C_9
REMARK    4  A    between atoms: N_14  and  C_17
REMARK    5  A    between atoms: C_21  and  C_23
REMARK    6  A    between atoms: C_23  and  C_24
REMARK    7  A    between atoms: C_23  and  C_25
REMARK    8  A    between atoms: C_25  and  C_26
REMARK    9  A    between atoms: C_27  and  C_31
REMARK   10  A    between atoms: C_32  and  C_34
REMARK                            x       y       z     vdW  Elec       q    Type
REMARK                         _______ _______ _______ _____ _____    ______ ____
ROOT
ATOM      1  C   UNL     1       3.145   7.299  18.081  0.00  0.00    +0.038 A 
ATOM      2  C   UNL     1       3.049   8.610  17.611  0.00  0.00    -0.037 A 
ATOM      3  C   UNL     1       2.285   9.483  18.358  0.00  0.00    +0.043 A 
ATOM      4  C   UNL     1       1.657   9.115  19.549  0.00  0.00    -0.008 A 
ATOM      5  C   UNL     1       0.914  10.295  20.092  0.00  0.00    +0.046 C 
ATOM      6  N   UNL     1       1.148  11.341  19.106  0.00  0.00    -0.263 N 
ATOM      7  C   UNL     1       1.949  10.879  18.056  0.00  0.00    +0.251 C 
ATOM      8  O   UNL     1       2.329  11.421  17.037  0.00  0.00    -0.270 OA
ATOM      9  C   UNL     1       1.765   7.815  20.058  0.00  0.00    +0.043 A 
ATOM     10  C   UNL     1       2.522   6.906  19.288  0.00  0.00    -0.039 A 
ATOM     11  H   UNL     1       3.535   8.928  16.694  0.00  0.00    +0.063 HD
ATOM     12  H   UNL     1       1.332  10.603  21.057  0.00  0.00    +0.052 HD
ATOM     13  H   UNL     1      -0.159  10.084  20.158  0.00  0.00    +0.052 HD
ATOM     14  H   UNL     1       2.646   5.869  19.612  0.00  0.00    +0.063 HD
ENDROOT
BRANCH   1  20
ATOM     15  C   UNL     1       2.601   4.294  18.089  0.00  0.00    +0.026 C 
ATOM     16  C   UNL     1       2.927   2.798  17.922  0.00  0.00    -0.007 C 
ATOM     17  C   UNL     1       4.444   2.776  17.798  0.00  0.00    +0.073 C 
ATOM     18  C   UNL     1       4.721   4.036  16.977  0.00  0.00    +0.041 C 
ATOM     19  N   UNL     1       3.722   4.989  17.439  0.00  0.00    -0.292 N 
ATOM     20  C   UNL     1       3.980   6.341  17.332  0.00  0.00    +0.247 C 
ATOM     21  O   UNL     1       4.908   6.801  16.671  0.00  0.00    -0.270 OA
ATOM     22  H   UNL     1       2.605   4.554  19.151  0.00  0.00    +0.050 HD
ATOM     23  H   UNL     1       2.476   2.394  17.006  0.00  0.00    +0.031 HD
ATOM     24  H   UNL     1       2.556   2.214  18.772  0.00  0.00    +0.031 HD
ATOM     25  H   UNL     1       4.827   1.868  17.321  0.00  0.00    +0.061 HD
ATOM     26  H   UNL     1       4.543   3.869  15.909  0.00  0.00    +0.049 HD
ATOM     27  H   UNL     1       5.732   4.428  17.130  0.00  0.00    +0.049 HD
BRANCH  15  28
ATOM     28  C   UNL     1       1.241   4.616  17.475  0.00  0.00    -0.046 C 
ATOM     29  H   UNL     1       0.490   4.808  18.250  0.00  0.00    +0.025 HD
ATOM     30  H   UNL     1       0.864   3.798  16.856  0.00  0.00    +0.025 HD
ATOM     31  H   UNL     1       1.312   5.506  16.838  0.00  0.00    +0.025 HD
ENDBRANCH  15  28
BRANCH  17  32
ATOM     32  O   UNL     1       5.013   2.863  19.106  0.00  0.00    -0.390 OA
ATOM     33  H   UNL     1       5.402   3.752  19.195  0.00  0.00    +0.210 HD
ENDBRANCH  17  32
ENDBRANCH   1  20
BRANCH   6  34
ATOM     34  C   UNL     1       0.593  12.643  19.241  0.00  0.00    +0.037 A 
ATOM     35  C   UNL     1       1.322  13.779  18.855  0.00  0.00    -0.040 A 
ATOM     36  C   UNL     1       0.774  15.060  18.956  0.00  0.00    -0.060 A 
ATOM     37  C   UNL     1      -0.514  15.237  19.450  0.00  0.00    -0.058 A 
ATOM     38  C   UNL     1      -1.266  14.131  19.859  0.00  0.00    -0.042 A 
ATOM     39  C   UNL     1      -0.698  12.847  19.747  0.00  0.00    -0.037 A 
ATOM     40  H   UNL     1       2.328  13.705  18.454  0.00  0.00    +0.064 HD
ATOM     41  H   UNL     1       1.356  15.924  18.639  0.00  0.00    +0.062 HD
ATOM     42  H   UNL     1      -0.922  16.243  19.511  0.00  0.00    +0.062 HD
ATOM     43  H   UNL     1      -1.299  12.002  20.071  0.00  0.00    +0.064 HD
BRANCH  38  44
ATOM     44  C   UNL     1      -2.687  14.275  20.388  0.00  0.00    -0.013 C 
ATOM     45  H   UNL     1      -3.280  14.821  19.641  0.00  0.00    +0.035 HD
BRANCH  44  46
ATOM     46  C   UNL     1      -2.690  15.132  21.661  0.00  0.00    -0.058 C 
ATOM     47  H   UNL     1      -2.643  16.198  21.413  0.00  0.00    +0.024 HD
ATOM     48  H   UNL     1      -1.830  14.895  22.296  0.00  0.00    +0.024 HD
ATOM     49  H   UNL     1      -3.599  14.969  22.254  0.00  0.00    +0.024 HD
ENDBRANCH  44  46
BRANCH  44  50
ATOM     50  C   UNL     1      -3.395  12.927  20.654  0.00  0.00    -0.004 C 
ATOM     51  H   UNL     1      -2.766  12.111  20.271  0.00  0.00    +0.033 HD
ATOM     52  H   UNL     1      -4.335  12.863  20.093  0.00  0.00    +0.033 HD
BRANCH  50  53
ATOM     53  C   UNL     1      -3.656  12.666  22.104  0.00  0.00    +0.040 A 
ATOM     54  C   UNL     1      -2.855  12.181  23.125  0.00  0.00    -0.010 A 
ATOM     55  C   UNL     1      -3.694  12.200  24.263  0.00  0.00    +0.052 A 
ATOM     56  N   UNL     1      -4.917  12.658  23.996  0.00  0.00    -0.182 NA
ATOM     57  N   UNL     1      -4.874  12.919  22.680  0.00  0.00    -0.281 N 
ATOM     58  H   UNL     1      -3.458  11.902  25.277  0.00  0.00    +0.085 HD
ATOM     59  H   UNL     1      -5.715  13.280  22.239  0.00  0.00    +0.189 HD
BRANCH  54  60
ATOM     60  C   UNL     1      -1.446  11.736  23.067  0.00  0.00    -0.037 C 
ATOM     61  H   UNL     1      -1.355  10.763  22.574  0.00  0.00    +0.028 HD
ATOM     62  H   UNL     1      -0.837  12.451  22.505  0.00  0.00    +0.028 HD
ATOM     63  H   UNL     1      -1.032  11.654  24.078  0.00  0.00    +0.028 HD
ENDBRANCH  54  60
ENDBRANCH  50  53
ENDBRANCH  44  50
ENDBRANCH  38  44
ENDBRANCH   6  34
BRANCH   9  64
ATOM     64  C   UNL     1       1.017   7.425  21.318  0.00  0.00    +0.349 C 
ATOM     65  F   UNL     1       1.619   7.959  22.421  0.00  0.00    -0.183 F 
ATOM     66  F   UNL     1       1.033   6.073  21.522  0.00  0.00    -0.183 F 
ATOM     67 CL   UNL     1      -0.693   7.930  21.322  0.00  0.00    -0.042 Cl
ENDBRANCH   9  64
TORSDOF 10
ENDMDL
MODEL 32
REMARK VINA RESULT:    -6.864      4.408     10.505
REMARK INTER + INTRA:          -9.090
REMARK INTER:                 -10.074
REMARK INTRA:                   0.984
REMARK UNBOUND:                 0.984
REMARK  Name = 
REMARK  10 active torsions:
REMARK  status: ('A' for Active; 'I' for Inactive)
REMARK    1  A    between atoms: C_1  and  C_2
REMARK    2  A    between atoms: C_4  and  O_38
REMARK    3  A    between atoms: C_7  and  C_9
REMARK    4  A    between atoms: N_14  and  C_17
REMARK    5  A    between atoms: C_21  and  C_23
REMARK    6  A    between atoms: C_23  and  C_24
REMARK    7  A    between atoms: C_23  and  C_25
REMARK    8  A    between atoms: C_25  and  C_26
REMARK    9  A    between atoms: C_27  and  C_31
REMARK   10  A    between atoms: C_32  and  C_34
REMARK                            x       y       z     vdW  Elec       q    Type
REMARK                         _______ _______ _______ _____ _____    ______ ____
ROOT
ATOM      1  C   UNL     1      -1.069  11.193  21.733  0.00  0.00    +0.038 A 
ATOM      2  C   UNL     1      -0.399   9.972  21.639  0.00  0.00    -0.037 A 
ATOM      3  C   UNL     1       0.403   9.787  20.531  0.00  0.00    +0.043 A 
ATOM      4  C   UNL     1       0.586  10.767  19.554  0.00  0.00    -0.008 A 
ATOM      5  C   UNL     1       1.507  10.237  18.500  0.00  0.00    +0.046 C 
ATOM      6  N   UNL     1       1.803   8.882  18.943  0.00  0.00    -0.263 N 
ATOM      7  C   UNL     1       1.147   8.584  20.142  0.00  0.00    +0.251 C 
ATOM      8  O   UNL     1       1.103   7.565  20.803  0.00  0.00    -0.270 OA
ATOM      9  C   UNL     1      -0.050  12.012  19.642  0.00  0.00    +0.043 A 
ATOM     10  C   UNL     1      -0.894  12.202  20.758  0.00  0.00    -0.039 A 
ATOM     11  H   UNL     1      -0.513   9.195  22.389  0.00  0.00    +0.063 HD
ATOM     12  H   UNL     1       2.432  10.822  18.468  0.00  0.00    +0.052 HD
ATOM     13  H   UNL     1       1.007  10.205  17.526  0.00  0.00    +0.052 HD
ATOM     14  H   UNL     1      -1.434  13.142  20.894  0.00  0.00    +0.063 HD
ENDROOT
BRANCH   1  20
ATOM     15  C   UNL     1      -3.272  13.307  21.758  0.00  0.00    +0.026 C 
ATOM     16  C   UNL     1      -4.271  14.301  22.382  0.00  0.00    -0.007 C 
ATOM     17  C   UNL     1      -3.837  14.376  23.838  0.00  0.00    +0.073 C 
ATOM     18  C   UNL     1      -3.430  12.931  24.131  0.00  0.00    +0.041 C 
ATOM     19  N   UNL     1      -2.838  12.468  22.885  0.00  0.00    -0.292 N 
ATOM     20  C   UNL     1      -1.910  11.446  22.918  0.00  0.00    +0.247 C 
ATOM     21  O   UNL     1      -1.708  10.750  23.909  0.00  0.00    -0.270 OA
ATOM     22  H   UNL     1      -2.403  13.852  21.381  0.00  0.00    +0.050 HD
ATOM     23  H   UNL     1      -5.299  13.917  22.322  0.00  0.00    +0.031 HD
ATOM     24  H   UNL     1      -4.238  15.269  21.871  0.00  0.00    +0.031 HD
ATOM     25  H   UNL     1      -4.625  14.737  24.507  0.00  0.00    +0.061 HD
ATOM     26  H   UNL     1      -4.303  12.299  24.332  0.00  0.00    +0.049 HD
ATOM     27  H   UNL     1      -2.714  12.851  24.956  0.00  0.00    +0.049 HD
BRANCH  15  28
ATOM     28  C   UNL     1      -3.933  12.524  20.628  0.00  0.00    -0.046 C 
ATOM     29  H   UNL     1      -4.259  13.190  19.820  0.00  0.00    +0.025 HD
ATOM     30  H   UNL     1      -4.813  11.973  20.967  0.00  0.00    +0.025 HD
ATOM     31  H   UNL     1      -3.229  11.796  20.208  0.00  0.00    +0.025 HD
ENDBRANCH  15  28
BRANCH  17  32
ATOM     32  O   UNL     1      -2.725  15.267  23.940  0.00  0.00    -0.390 OA
ATOM     33  H   UNL     1      -2.211  15.187  23.116  0.00  0.00    +0.210 HD
ENDBRANCH  17  32
ENDBRANCH   1  20
BRANCH   6  34
ATOM     34  C   UNL     1       2.649   8.013  18.199  0.00  0.00    +0.037 A 
ATOM     35  C   UNL     1       3.630   8.529  17.339  0.00  0.00    -0.040 A 
ATOM     36  C   UNL     1       4.485   7.683  16.626  0.00  0.00    -0.060 A 
ATOM     37  C   UNL     1       4.375   6.303  16.754  0.00  0.00    -0.058 A 
ATOM     38  C   UNL     1       3.399   5.751  17.590  0.00  0.00    -0.042 A 
ATOM     39  C   UNL     1       2.549   6.619  18.303  0.00  0.00    -0.037 A 
ATOM     40  H   UNL     1       3.770   9.596  17.203  0.00  0.00    +0.064 HD
ATOM     41  H   UNL     1       5.245   8.108  15.973  0.00  0.00    +0.062 HD
ATOM     42  H   UNL     1       5.057   5.665  16.195  0.00  0.00    +0.062 HD
ATOM     43  H   UNL     1       1.798   6.169  18.946  0.00  0.00    +0.064 HD
BRANCH  38  44
ATOM     44  C   UNL     1       3.255   4.246  17.775  0.00  0.00    -0.013 C 
ATOM     45  H   UNL     1       3.326   3.768  16.789  0.00  0.00    +0.035 HD
BRANCH  44  46
ATOM     46  C   UNL     1       1.861   3.915  18.324  0.00  0.00    -0.058 C 
ATOM     47  H   UNL     1       1.583   4.608  19.125  0.00  0.00    +0.024 HD
ATOM     48  H   UNL     1       1.830   2.899  18.732  0.00  0.00    +0.024 HD
ATOM     49  H   UNL     1       1.093   3.985  17.544  0.00  0.00    +0.024 HD
ENDBRANCH  44  46
BRANCH  44  50
ATOM     50  C   UNL     1       4.343   3.621  18.678  0.00  0.00    -0.004 C 
ATOM     51  H   UNL     1       4.486   2.570  18.391  0.00  0.00    +0.033 HD
ATOM     52  H   UNL     1       4.016   3.598  19.724  0.00  0.00    +0.033 HD
BRANCH  50  53
ATOM     53  C   UNL     1       5.668   4.310  18.580  0.00  0.00    +0.040 A 
ATOM     54  C   UNL     1       6.583   4.432  17.548  0.00  0.00    -0.010 A 
ATOM     55  C   UNL     1       7.616   5.231  18.093  0.00  0.00    +0.052 A 
ATOM     56  N   UNL     1       7.381   5.588  19.355  0.00  0.00    -0.182 NA
ATOM     57  N   UNL     1       6.204   5.006  19.632  0.00  0.00    -0.281 N 
ATOM     58  H   UNL     1       8.527   5.568  17.615  0.00  0.00    +0.085 HD
ATOM     59  H   UNL     1       5.817   5.136  20.562  0.00  0.00    +0.189 HD
BRANCH  54  60
ATOM     60  C   UNL     1       6.523   3.868  16.182  0.00  0.00    -0.037 C 
ATOM     61  H   UNL     1       7.387   4.178  15.585  0.00  0.00    +0.028 HD
ATOM     62  H   UNL     1       6.519   2.774  16.215  0.00  0.00    +0.028 HD
ATOM     63  H   UNL     1       5.612   4.199  15.674  0.00  0.00    +0.028 HD
ENDBRANCH  54  60
ENDBRANCH  50  53
ENDBRANCH  44  50
ENDBRANCH  38  44
ENDBRANCH   6  34
BRANCH   9  64
ATOM     64  C   UNL     1       0.113  13.031  18.532  0.00  0.00    +0.349 C 
ATOM     65  F   UNL     1      -0.486  14.211  18.869  0.00  0.00    -0.183 F 
ATOM     66  F   UNL     1      -0.506  12.632  17.380  0.00  0.00    -0.183 F 
ATOM     67 CL   UNL     1       1.813  13.373  18.117  0.00  0.00    -0.042 Cl
ENDBRANCH   9  64
TORSDOF 10
ENDMDL
