MODEL 1
REMARK VINA RESULT:    -9.548      0.000      0.000
REMARK INTER + INTRA:         -11.649
REMARK INTER:                 -10.885
REMARK INTRA:                  -0.764
REMARK UNBOUND:                 0.131
REMARK  Name = 
REMARK  4 active torsions:
REMARK  status: ('A' for Active; 'I' for Inactive)
REMARK    1  A    between atoms: N_10  and  C_11
REMARK    2  A    between atoms: C_14  and  C_15
REMARK    3  A    between atoms: C_18  and  C_19
REMARK    4  A    between atoms: C_19  and  C_20
REMARK                            x       y       z     vdW  Elec       q    Type
REMARK                         _______ _______ _______ _____ _____    ______ ____
ROOT
ATOM      1  C   UNL     1       1.222  10.033  19.491  0.00  0.00    +0.037 A 
ATOM      2  C   UNL     1       1.199   9.163  20.592  0.00  0.00    -0.040 A 
ATOM      3  C   UNL     1       1.629   7.831  20.487  0.00  0.00    -0.057 A 
ATOM      4  C   UNL     1       2.080   7.315  19.270  0.00  0.00    -0.044 A 
ATOM      5  C   UNL     1       2.081   8.164  18.160  0.00  0.00    -0.057 A 
ATOM      6  C   UNL     1       1.653   9.494  18.270  0.00  0.00    -0.040 A 
ATOM      7  H   UNL     1       0.837   9.475  21.565  0.00  0.00    +0.064 HD
ATOM      8  H   UNL     1       1.592   7.202  21.374  0.00  0.00    +0.062 HD
ATOM      9  H   UNL     1       2.407   7.805  17.187  0.00  0.00    +0.062 HD
ATOM     10  H   UNL     1       1.662  10.087  17.356  0.00  0.00    +0.064 HD
ENDROOT
BRANCH   1  20
ATOM     11  N   UNL     1      -1.174  11.448  23.069  0.00  0.00    -0.281 NA
ATOM     12  C   UNL     1      -0.910  12.602  22.565  0.00  0.00    +0.164 A 
ATOM     13  N   UNL     1      -1.083  13.644  23.445  0.00  0.00    -0.218 NA
ATOM     14  C   UNL     1      -0.647  14.797  23.070  0.00  0.00    +0.098 A 
ATOM     15  N   UNL     1      -0.058  15.051  21.877  0.00  0.00    -0.316 N 
ATOM     16  C   UNL     1       0.014  14.089  20.903  0.00  0.00    +0.210 A 
ATOM     17  C   UNL     1      -0.420  12.838  21.168  0.00  0.00    +0.140 A 
ATOM     18  C   UNL     1      -0.452  11.706  20.208  0.00  0.00    +0.260 C 
ATOM     19  O   UNL     1      -1.502  11.098  20.009  0.00  0.00    -0.269 OA
ATOM     20  N   UNL     1       0.760  11.396  19.587  0.00  0.00    -0.264 N 
ATOM     21  C   UNL     1       1.518  12.469  18.941  0.00  0.00    +0.054 C 
ATOM     22  C   UNL     1       0.666  13.698  18.619  0.00  0.00    +0.107 C 
ATOM     23  O   UNL     1       0.539  14.571  19.736  0.00  0.00    -0.475 OA
ATOM     24  H   UNL     1      -1.479  11.645  24.030  0.00  0.00    +0.188 HD
ATOM     25  H   UNL     1      -0.736  15.681  23.724  0.00  0.00    +0.103 HD
ATOM     26  H   UNL     1       0.196  15.989  21.596  0.00  0.00    +0.170 HD
ATOM     27  H   UNL     1       2.367  12.723  19.585  0.00  0.00    +0.050 HD
ATOM     28  H   UNL     1       1.882  12.103  17.977  0.00  0.00    +0.050 HD
ATOM     29  H   UNL     1      -0.323  13.446  18.218  0.00  0.00    +0.071 HD
ATOM     30  H   UNL     1       1.179  14.280  17.845  0.00  0.00    +0.071 HD
ENDBRANCH   1  20
BRANCH   4  31
ATOM     31  C   UNL     1       2.549   5.876  19.127  0.00  0.00    -0.016 C 
ATOM     32  C   UNL     1       2.172   5.002  20.342  0.00  0.00    -0.046 C 
ATOM     33  C   UNL     1       1.056   4.007  20.033  0.00  0.00    -0.049 C 
ATOM     34  C   UNL     1       1.404   3.062  18.865  0.00  0.00    -0.033 C 
ATOM     35  C   UNL     1       2.277   3.752  17.796  0.00  0.00    -0.049 C 
ATOM     36  C   UNL     1       2.091   5.266  17.789  0.00  0.00    -0.046 C 
ATOM     37  H   UNL     1       3.649   5.895  19.105  0.00  0.00    +0.035 HD
ATOM     38  H   UNL     1       1.896   5.614  21.209  0.00  0.00    +0.027 HD
ATOM     39  H   UNL     1       3.059   4.431  20.650  0.00  0.00    +0.027 HD
ATOM     40  H   UNL     1       0.145   4.562  19.777  0.00  0.00    +0.027 HD
ATOM     41  H   UNL     1       0.810   3.435  20.936  0.00  0.00    +0.027 HD
ATOM     42  H   UNL     1       0.451   2.781  18.394  0.00  0.00    +0.031 HD
ATOM     43  H   UNL     1       3.340   3.530  17.961  0.00  0.00    +0.027 HD
ATOM     44  H   UNL     1       2.029   3.352  16.806  0.00  0.00    +0.027 HD
ATOM     45  H   UNL     1       1.039   5.494  17.580  0.00  0.00    +0.027 HD
ATOM     46  H   UNL     1       2.668   5.708  16.968  0.00  0.00    +0.027 HD
BRANCH  34  47
ATOM     47  C   UNL     1       2.077   1.776  19.379  0.00  0.00    +0.027 C 
ATOM     48  H   UNL     1       1.674   0.908  18.841  0.00  0.00    +0.036 HD
ATOM     49  H   UNL     1       1.863   1.633  20.445  0.00  0.00    +0.036 HD
BRANCH  47  50
ATOM     50  C   UNL     1       3.579   1.754  19.168  0.00  0.00    +0.211 C 
ATOM     51  N   UNL     1       3.989   0.908  18.178  0.00  0.00    -0.329 N 
ATOM     52  O   UNL     1       4.385   2.440  19.781  0.00  0.00    -0.276 OA
ATOM     53  H   UNL     1       4.986   0.819  18.034  0.00  0.00    +0.145 HD
ATOM     54  H   UNL     1       3.378   0.223  17.757  0.00  0.00    +0.145 HD
ENDBRANCH  47  50
ENDBRANCH  34  47
ENDBRANCH   4  31
TORSDOF 4
ENDMDL
MODEL 2
REMARK VINA RESULT:    -9.242      0.658      1.197
REMARK INTER + INTRA:         -11.272
REMARK INTER:                 -10.679
REMARK INTRA:                  -0.594
REMARK UNBOUND:                 0.131
REMARK  Name = 
REMARK  4 active torsions:
REMARK  status: ('A' for Active; 'I' for Inactive)
REMARK    1  A    between atoms: N_10  and  C_11
REMARK    2  A    between atoms: C_14  and  C_15
REMARK    3  A    between atoms: C_18  and  C_19
REMARK    4  A    between atoms: C_19  and  C_20
REMARK                            x       y       z     vdW  Elec       q    Type
REMARK                         _______ _______ _______ _____ _____    ______ ____
ROOT
ATOM      1  C   UNL     1       1.285   9.893  19.364  0.00  0.00    +0.037 A 
ATOM      2  C   UNL     1       1.869   9.413  18.181  0.00  0.00    -0.040 A 
ATOM      3  C   UNL     1       2.340   8.095  18.074  0.00  0.00    -0.057 A 
ATOM      4  C   UNL     1       2.261   7.214  19.155  0.00  0.00    -0.044 A 
ATOM      5  C   UNL     1       1.707   7.690  20.347  0.00  0.00    -0.057 A 
ATOM      6  C   UNL     1       1.236   9.005  20.449  0.00  0.00    -0.040 A 
ATOM      7  H   UNL     1       1.995  10.040  17.305  0.00  0.00    +0.064 HD
ATOM      8  H   UNL     1       2.780   7.776  17.133  0.00  0.00    +0.062 HD
ATOM      9  H   UNL     1       1.638   7.047  21.222  0.00  0.00    +0.062 HD
ATOM     10  H   UNL     1       0.838   9.308  21.416  0.00  0.00    +0.064 HD
ENDROOT
BRANCH   1  20
ATOM     11  N   UNL     1      -1.247  11.195  22.890  0.00  0.00    -0.281 NA
ATOM     12  C   UNL     1      -0.963  12.364  22.435  0.00  0.00    +0.164 A 
ATOM     13  N   UNL     1      -1.170  13.377  23.341  0.00  0.00    -0.218 NA
ATOM     14  C   UNL     1      -0.719  14.541  23.021  0.00  0.00    +0.098 A 
ATOM     15  N   UNL     1      -0.084  14.833  21.861  0.00  0.00    -0.316 N 
ATOM     16  C   UNL     1       0.025  13.903  20.859  0.00  0.00    +0.210 A 
ATOM     17  C   UNL     1      -0.420  12.644  21.067  0.00  0.00    +0.140 A 
ATOM     18  C   UNL     1      -0.414  11.544  20.070  0.00  0.00    +0.260 C 
ATOM     19  O   UNL     1      -1.456  10.945  19.810  0.00  0.00    -0.269 OA
ATOM     20  N   UNL     1       0.821  11.253  19.487  0.00  0.00    -0.264 N 
ATOM     21  C   UNL     1       1.603  12.345  18.906  0.00  0.00    +0.054 C 
ATOM     22  C   UNL     1       0.765  13.586  18.591  0.00  0.00    +0.107 C 
ATOM     23  O   UNL     1       0.596  14.422  19.729  0.00  0.00    -0.475 OA
ATOM     24  H   UNL     1      -1.589  11.361  23.845  0.00  0.00    +0.188 HD
ATOM     25  H   UNL     1      -0.833  15.404  23.699  0.00  0.00    +0.103 HD
ATOM     26  H   UNL     1       0.181  15.780  21.620  0.00  0.00    +0.170 HD
ATOM     27  H   UNL     1       2.427  12.576  19.590  0.00  0.00    +0.050 HD
ATOM     28  H   UNL     1       2.005  12.010  17.945  0.00  0.00    +0.050 HD
ATOM     29  H   UNL     1      -0.208  13.348  18.144  0.00  0.00    +0.071 HD
ATOM     30  H   UNL     1       1.308  14.191  17.857  0.00  0.00    +0.071 HD
ENDBRANCH   1  20
BRANCH   4  31
ATOM     31  C   UNL     1       2.764   5.783  19.069  0.00  0.00    -0.016 C 
ATOM     32  C   UNL     1       1.642   4.742  19.271  0.00  0.00    -0.046 C 
ATOM     33  C   UNL     1       1.261   4.021  17.980  0.00  0.00    -0.049 C 
ATOM     34  C   UNL     1       2.455   3.301  17.323  0.00  0.00    -0.033 C 
ATOM     35  C   UNL     1       3.784   4.055  17.541  0.00  0.00    -0.049 C 
ATOM     36  C   UNL     1       3.569   5.547  17.777  0.00  0.00    -0.046 C 
ATOM     37  H   UNL     1       3.462   5.633  19.907  0.00  0.00    +0.035 HD
ATOM     38  H   UNL     1       0.751   5.194  19.722  0.00  0.00    +0.027 HD
ATOM     39  H   UNL     1       1.990   3.988  19.989  0.00  0.00    +0.027 HD
ATOM     40  H   UNL     1       0.857   4.753  17.269  0.00  0.00    +0.027 HD
ATOM     41  H   UNL     1       0.443   3.318  18.176  0.00  0.00    +0.027 HD
ATOM     42  H   UNL     1       2.253   3.278  16.243  0.00  0.00    +0.031 HD
ATOM     43  H   UNL     1       4.329   3.639  18.399  0.00  0.00    +0.027 HD
ATOM     44  H   UNL     1       4.432   3.916  16.668  0.00  0.00    +0.027 HD
ATOM     45  H   UNL     1       3.064   5.976  16.902  0.00  0.00    +0.027 HD
ATOM     46  H   UNL     1       4.537   6.055  17.850  0.00  0.00    +0.027 HD
BRANCH  34  47
ATOM     47  C   UNL     1       2.561   1.846  17.816  0.00  0.00    +0.027 C 
ATOM     48  H   UNL     1       2.820   1.189  16.977  0.00  0.00    +0.036 HD
ATOM     49  H   UNL     1       1.597   1.508  18.216  0.00  0.00    +0.036 HD
BRANCH  47  50
ATOM     50  C   UNL     1       3.633   1.642  18.870  0.00  0.00    +0.211 C 
ATOM     51  N   UNL     1       4.519   0.647  18.576  0.00  0.00    -0.329 N 
ATOM     52  O   UNL     1       3.752   2.307  19.891  0.00  0.00    -0.276 OA
ATOM     53  H   UNL     1       5.223   0.437  19.272  0.00  0.00    +0.145 HD
ATOM     54  H   UNL     1       4.369  -0.014  17.828  0.00  0.00    +0.145 HD
ENDBRANCH  47  50
ENDBRANCH  34  47
ENDBRANCH   4  31
TORSDOF 4
ENDMDL
MODEL 3
REMARK VINA RESULT:    -9.126      3.172      4.175
REMARK INTER + INTRA:         -11.129
REMARK INTER:                 -11.066
REMARK INTRA:                  -0.063
REMARK UNBOUND:                 0.131
REMARK  Name = 
REMARK  4 active torsions:
REMARK  status: ('A' for Active; 'I' for Inactive)
REMARK    1  A    between atoms: N_10  and  C_11
REMARK    2  A    between atoms: C_14  and  C_15
REMARK    3  A    between atoms: C_18  and  C_19
REMARK    4  A    between atoms: C_19  and  C_20
REMARK                            x       y       z     vdW  Elec       q    Type
REMARK                         _______ _______ _______ _____ _____    ______ ____
ROOT
ATOM      1  C   UNL     1       1.082   9.318  19.429  0.00  0.00    +0.037 A 
ATOM      2  C   UNL     1       1.447   8.263  20.280  0.00  0.00    -0.040 A 
ATOM      3  C   UNL     1       2.318   7.246  19.859  0.00  0.00    -0.057 A 
ATOM      4  C   UNL     1       2.841   7.236  18.564  0.00  0.00    -0.044 A 
ATOM      5  C   UNL     1       2.462   8.267  17.700  0.00  0.00    -0.057 A 
ATOM      6  C   UNL     1       1.595   9.282  18.124  0.00  0.00    -0.040 A 
ATOM      7  H   UNL     1       1.063   8.179  21.290  0.00  0.00    +0.064 HD
ATOM      8  H   UNL     1       2.569   6.454  20.562  0.00  0.00    +0.062 HD
ATOM      9  H   UNL     1       2.830   8.295  16.676  0.00  0.00    +0.062 HD
ATOM     10  H   UNL     1       1.329  10.038  17.386  0.00  0.00    +0.064 HD
ENDROOT
BRANCH   1  20
ATOM     11  N   UNL     1      -2.079  10.936  16.613  0.00  0.00    -0.281 NA
ATOM     12  C   UNL     1      -2.531  11.451  17.701  0.00  0.00    +0.164 A 
ATOM     13  N   UNL     1      -3.841  11.862  17.618  0.00  0.00    -0.218 NA
ATOM     14  C   UNL     1      -4.413  12.200  18.722  0.00  0.00    +0.098 A 
ATOM     15  N   UNL     1      -3.813  12.198  19.937  0.00  0.00    -0.316 N 
ATOM     16  C   UNL     1      -2.472  11.938  20.065  0.00  0.00    +0.210 A 
ATOM     17  C   UNL     1      -1.756  11.580  18.977  0.00  0.00    +0.140 A 
ATOM     18  C   UNL     1      -0.296  11.313  18.946  0.00  0.00    +0.260 C 
ATOM     19  O   UNL     1       0.422  11.917  18.152  0.00  0.00    -0.269 OA
ATOM     20  N   UNL     1       0.170  10.354  19.847  0.00  0.00    -0.264 N 
ATOM     21  C   UNL     1      -0.202  10.469  21.258  0.00  0.00    +0.054 C 
ATOM     22  C   UNL     1      -0.660  11.876  21.647  0.00  0.00    +0.107 C 
ATOM     23  O   UNL     1      -2.035  12.095  21.351  0.00  0.00    -0.475 OA
ATOM     24  H   UNL     1      -2.860  11.003  15.947  0.00  0.00    +0.188 HD
ATOM     25  H   UNL     1      -5.465  12.528  18.743  0.00  0.00    +0.103 HD
ATOM     26  H   UNL     1      -4.279  12.548  20.764  0.00  0.00    +0.170 HD
ATOM     27  H   UNL     1      -0.973   9.720  21.471  0.00  0.00    +0.050 HD
ATOM     28  H   UNL     1       0.684  10.269  21.868  0.00  0.00    +0.050 HD
ATOM     29  H   UNL     1      -0.044  12.669  21.206  0.00  0.00    +0.071 HD
ATOM     30  H   UNL     1      -0.572  11.979  22.735  0.00  0.00    +0.071 HD
ENDBRANCH   1  20
BRANCH   4  31
ATOM     31  C   UNL     1       3.784   6.147  18.082  0.00  0.00    -0.016 C 
ATOM     32  C   UNL     1       4.884   6.682  17.141  0.00  0.00    -0.046 C 
ATOM     33  C   UNL     1       6.263   6.713  17.797  0.00  0.00    -0.049 C 
ATOM     34  C   UNL     1       6.713   5.328  18.304  0.00  0.00    -0.033 C 
ATOM     35  C   UNL     1       5.528   4.475  18.805  0.00  0.00    -0.049 C 
ATOM     36  C   UNL     1       4.352   5.333  19.260  0.00  0.00    -0.046 C 
ATOM     37  H   UNL     1       3.189   5.448  17.474  0.00  0.00    +0.035 HD
ATOM     38  H   UNL     1       4.634   7.678  16.755  0.00  0.00    +0.027 HD
ATOM     39  H   UNL     1       4.942   6.027  16.262  0.00  0.00    +0.027 HD
ATOM     40  H   UNL     1       6.238   7.407  18.646  0.00  0.00    +0.027 HD
ATOM     41  H   UNL     1       6.997   7.128  17.096  0.00  0.00    +0.027 HD
ATOM     42  H   UNL     1       7.384   5.508  19.156  0.00  0.00    +0.031 HD
ATOM     43  H   UNL     1       5.181   3.794  18.016  0.00  0.00    +0.027 HD
ATOM     44  H   UNL     1       5.858   3.841  19.636  0.00  0.00    +0.027 HD
ATOM     45  H   UNL     1       4.683   5.984  20.079  0.00  0.00    +0.027 HD
ATOM     46  H   UNL     1       3.565   4.694  19.677  0.00  0.00    +0.027 HD
BRANCH  34  47
ATOM     47  C   UNL     1       7.513   4.578  17.222  0.00  0.00    +0.027 C 
ATOM     48  H   UNL     1       7.699   3.547  17.549  0.00  0.00    +0.036 HD
ATOM     49  H   UNL     1       8.486   5.058  17.067  0.00  0.00    +0.036 HD
BRANCH  47  50
ATOM     50  C   UNL     1       6.789   4.484  15.893  0.00  0.00    +0.211 C 
ATOM     51  N   UNL     1       7.344   5.242  14.903  0.00  0.00    -0.329 N 
ATOM     52  O   UNL     1       5.813   3.779  15.671  0.00  0.00    -0.276 OA
ATOM     53  H   UNL     1       6.867   5.253  14.010  0.00  0.00    +0.145 HD
ATOM     54  H   UNL     1       8.049   5.942  15.081  0.00  0.00    +0.145 HD
ENDBRANCH  47  50
ENDBRANCH  34  47
ENDBRANCH   4  31
TORSDOF 4
ENDMDL
MODEL 4
REMARK VINA RESULT:    -9.080      2.859      3.905
REMARK INTER + INTRA:         -11.072
REMARK INTER:                 -10.526
REMARK INTRA:                  -0.547
REMARK UNBOUND:                 0.131
REMARK  Name = 
REMARK  4 active torsions:
REMARK  status: ('A' for Active; 'I' for Inactive)
REMARK    1  A    between atoms: N_10  and  C_11
REMARK    2  A    between atoms: C_14  and  C_15
REMARK    3  A    between atoms: C_18  and  C_19
REMARK    4  A    between atoms: C_19  and  C_20
REMARK                            x       y       z     vdW  Elec       q    Type
REMARK                         _______ _______ _______ _____ _____    ______ ____
ROOT
ATOM      1  C   UNL     1       1.179   8.916  20.140  0.00  0.00    +0.037 A 
ATOM      2  C   UNL     1       1.445   9.343  18.830  0.00  0.00    -0.040 A 
ATOM      3  C   UNL     1       2.188   8.556  17.936  0.00  0.00    -0.057 A 
ATOM      4  C   UNL     1       2.709   7.320  18.328  0.00  0.00    -0.044 A 
ATOM      5  C   UNL     1       2.474   6.899  19.639  0.00  0.00    -0.057 A 
ATOM      6  C   UNL     1       1.730   7.686  20.528  0.00  0.00    -0.040 A 
ATOM      7  H   UNL     1       1.103  10.301  18.455  0.00  0.00    +0.064 HD
ATOM      8  H   UNL     1       2.362   8.934  16.932  0.00  0.00    +0.062 HD
ATOM      9  H   UNL     1       2.872   5.952  19.997  0.00  0.00    +0.062 HD
ATOM     10  H   UNL     1       1.608   7.300  21.539  0.00  0.00    +0.064 HD
ENDROOT
BRANCH   1  20
ATOM     11  N   UNL     1      -0.722  12.819  18.837  0.00  0.00    -0.281 NA
ATOM     12  C   UNL     1      -1.317  12.702  19.971  0.00  0.00    +0.164 A 
ATOM     13  N   UNL     1      -2.440  13.486  20.092  0.00  0.00    -0.218 NA
ATOM     14  C   UNL     1      -3.191  13.269  21.117  0.00  0.00    +0.098 A 
ATOM     15  N   UNL     1      -2.940  12.350  22.079  0.00  0.00    -0.316 N 
ATOM     16  C   UNL     1      -1.767  11.639  22.092  0.00  0.00    +0.210 A 
ATOM     17  C   UNL     1      -0.889  11.784  21.076  0.00  0.00    +0.140 A 
ATOM     18  C   UNL     1       0.437  11.124  20.971  0.00  0.00    +0.260 C 
ATOM     19  O   UNL     1       1.449  11.800  20.798  0.00  0.00    -0.269 OA
ATOM     20  N   UNL     1       0.436   9.731  21.070  0.00  0.00    -0.264 N 
ATOM     21  C   UNL     1      -0.254   9.103  22.198  0.00  0.00    +0.054 C 
ATOM     22  C   UNL     1      -0.482  10.057  23.372  0.00  0.00    +0.107 C 
ATOM     23  O   UNL     1      -1.653  10.848  23.202  0.00  0.00    -0.475 OA
ATOM     24  H   UNL     1      -1.270  13.521  18.324  0.00  0.00    +0.188 HD
ATOM     25  H   UNL     1      -4.117  13.847  21.278  0.00  0.00    +0.103 HD
ATOM     26  H   UNL     1      -3.517  12.271  22.907  0.00  0.00    +0.170 HD
ATOM     27  H   UNL     1      -1.196   8.682  21.831  0.00  0.00    +0.050 HD
ATOM     28  H   UNL     1       0.380   8.302  22.589  0.00  0.00    +0.050 HD
ATOM     29  H   UNL     1       0.383  10.697  23.583  0.00  0.00    +0.071 HD
ATOM     30  H   UNL     1      -0.657   9.460  24.273  0.00  0.00    +0.071 HD
ENDBRANCH   1  20
BRANCH   4  31
ATOM     31  C   UNL     1       3.519   6.449  17.382  0.00  0.00    -0.016 C 
ATOM     32  C   UNL     1       4.990   6.901  17.264  0.00  0.00    -0.046 C 
ATOM     33  C   UNL     1       5.961   5.953  17.963  0.00  0.00    -0.049 C 
ATOM     34  C   UNL     1       5.871   4.509  17.433  0.00  0.00    -0.033 C 
ATOM     35  C   UNL     1       4.436   4.130  17.008  0.00  0.00    -0.049 C 
ATOM     36  C   UNL     1       3.382   4.956  17.738  0.00  0.00    -0.046 C 
ATOM     37  H   UNL     1       3.088   6.574  16.377  0.00  0.00    +0.035 HD
ATOM     38  H   UNL     1       5.128   7.922  17.641  0.00  0.00    +0.027 HD
ATOM     39  H   UNL     1       5.259   6.938  16.200  0.00  0.00    +0.027 HD
ATOM     40  H   UNL     1       5.741   5.948  19.038  0.00  0.00    +0.027 HD
ATOM     41  H   UNL     1       6.984   6.338  17.873  0.00  0.00    +0.027 HD
ATOM     42  H   UNL     1       6.163   3.850  18.263  0.00  0.00    +0.031 HD
ATOM     43  H   UNL     1       4.303   4.267  15.927  0.00  0.00    +0.027 HD
ATOM     44  H   UNL     1       4.264   3.066  17.207  0.00  0.00    +0.027 HD
ATOM     45  H   UNL     1       3.483   4.787  18.817  0.00  0.00    +0.027 HD
ATOM     46  H   UNL     1       2.380   4.605  17.466  0.00  0.00    +0.027 HD
BRANCH  34  47
ATOM     47  C   UNL     1       6.864   4.283  16.278  0.00  0.00    +0.027 C 
ATOM     48  H   UNL     1       7.249   3.256  16.316  0.00  0.00    +0.036 HD
ATOM     49  H   UNL     1       7.720   4.962  16.373  0.00  0.00    +0.036 HD
BRANCH  47  50
ATOM     50  C   UNL     1       6.244   4.458  14.905  0.00  0.00    +0.211 C 
ATOM     51  N   UNL     1       6.234   3.321  14.150  0.00  0.00    -0.329 N 
ATOM     52  O   UNL     1       5.754   5.497  14.481  0.00  0.00    -0.276 OA
ATOM     53  H   UNL     1       5.877   3.399  13.206  0.00  0.00    +0.145 HD
ATOM     54  H   UNL     1       6.755   2.494  14.401  0.00  0.00    +0.145 HD
ENDBRANCH  47  50
ENDBRANCH  34  47
ENDBRANCH   4  31
TORSDOF 4
ENDMDL
MODEL 5
REMARK VINA RESULT:    -8.871      2.516      3.491
REMARK INTER + INTRA:         -10.814
REMARK INTER:                  -9.959
REMARK INTRA:                  -0.856
REMARK UNBOUND:                 0.131
REMARK  Name = 
REMARK  4 active torsions:
REMARK  status: ('A' for Active; 'I' for Inactive)
REMARK    1  A    between atoms: N_10  and  C_11
REMARK    2  A    between atoms: C_14  and  C_15
REMARK    3  A    between atoms: C_18  and  C_19
REMARK    4  A    between atoms: C_19  and  C_20
REMARK                            x       y       z     vdW  Elec       q    Type
REMARK                         _______ _______ _______ _____ _____    ______ ____
ROOT
ATOM      1  C   UNL     1       0.824   9.714  20.073  0.00  0.00    +0.037 A 
ATOM      2  C   UNL     1       0.959   9.902  18.688  0.00  0.00    -0.040 A 
ATOM      3  C   UNL     1       1.563   8.935  17.870  0.00  0.00    -0.057 A 
ATOM      4  C   UNL     1       2.071   7.752  18.410  0.00  0.00    -0.044 A 
ATOM      5  C   UNL     1       1.967   7.567  19.791  0.00  0.00    -0.057 A 
ATOM      6  C   UNL     1       1.361   8.533  20.605  0.00  0.00    -0.040 A 
ATOM      7  H   UNL     1       0.618  10.805  18.193  0.00  0.00    +0.064 HD
ATOM      8  H   UNL     1       1.639   9.132  16.803  0.00  0.00    +0.062 HD
ATOM      9  H   UNL     1       2.362   6.669  20.262  0.00  0.00    +0.062 HD
ATOM     10  H   UNL     1       1.338   8.327  21.674  0.00  0.00    +0.064 HD
ENDROOT
BRANCH   1  20
ATOM     11  N   UNL     1       0.584  14.051  18.777  0.00  0.00    -0.281 NA
ATOM     12  C   UNL     1      -0.220  14.121  19.778  0.00  0.00    +0.164 A 
ATOM     13  N   UNL     1      -1.027  15.234  19.765  0.00  0.00    -0.218 NA
ATOM     14  C   UNL     1      -1.987  15.264  20.624  0.00  0.00    +0.098 A 
ATOM     15  N   UNL     1      -2.237  14.296  21.539  0.00  0.00    -0.316 N 
ATOM     16  C   UNL     1      -1.385  13.233  21.698  0.00  0.00    +0.210 A 
ATOM     17  C   UNL     1      -0.332  13.093  20.864  0.00  0.00    +0.140 A 
ATOM     18  C   UNL     1       0.700  12.028  20.936  0.00  0.00    +0.260 C 
ATOM     19  O   UNL     1       1.890  12.329  20.995  0.00  0.00    -0.269 OA
ATOM     20  N   UNL     1       0.225  10.714  20.922  0.00  0.00    -0.264 N 
ATOM     21  C   UNL     1      -0.832  10.334  21.860  0.00  0.00    +0.054 C 
ATOM     22  C   UNL     1      -0.954  11.289  23.049  0.00  0.00    +0.107 C 
ATOM     23  O   UNL     1      -1.748  12.430  22.744  0.00  0.00    -0.475 OA
ATOM     24  H   UNL     1       0.403  14.905  18.235  0.00  0.00    +0.188 HD
ATOM     25  H   UNL     1      -2.687  16.115  20.670  0.00  0.00    +0.103 HD
ATOM     26  H   UNL     1      -2.954  14.401  22.246  0.00  0.00    +0.170 HD
ATOM     27  H   UNL     1      -1.772  10.261  21.303  0.00  0.00    +0.050 HD
ATOM     28  H   UNL     1      -0.580   9.360  22.290  0.00  0.00    +0.050 HD
ATOM     29  H   UNL     1       0.016  11.598  23.457  0.00  0.00    +0.071 HD
ATOM     30  H   UNL     1      -1.482  10.769  23.856  0.00  0.00    +0.071 HD
ENDBRANCH   1  20
BRANCH   4  31
ATOM     31  C   UNL     1       2.731   6.688  17.548  0.00  0.00    -0.016 C 
ATOM     32  C   UNL     1       4.239   6.944  17.334  0.00  0.00    -0.046 C 
ATOM     33  C   UNL     1       5.122   5.969  18.109  0.00  0.00    -0.049 C 
ATOM     34  C   UNL     1       4.841   4.496  17.752  0.00  0.00    -0.033 C 
ATOM     35  C   UNL     1       3.354   4.248  17.417  0.00  0.00    -0.049 C 
ATOM     36  C   UNL     1       2.437   5.273  18.078  0.00  0.00    -0.046 C 
ATOM     37  H   UNL     1       2.275   6.753  16.548  0.00  0.00    +0.035 HD
ATOM     38  H   UNL     1       4.512   7.975  17.587  0.00  0.00    +0.027 HD
ATOM     39  H   UNL     1       4.464   6.829  16.265  0.00  0.00    +0.027 HD
ATOM     40  H   UNL     1       4.950   6.110  19.183  0.00  0.00    +0.027 HD
ATOM     41  H   UNL     1       6.178   6.214  17.944  0.00  0.00    +0.027 HD
ATOM     42  H   UNL     1       5.090   3.903  18.644  0.00  0.00    +0.031 HD
ATOM     43  H   UNL     1       3.192   4.280  16.332  0.00  0.00    +0.027 HD
ATOM     44  H   UNL     1       3.067   3.242  17.743  0.00  0.00    +0.027 HD
ATOM     45  H   UNL     1       2.563   5.214  19.166  0.00  0.00    +0.027 HD
ATOM     46  H   UNL     1       1.390   5.017  17.878  0.00  0.00    +0.027 HD
BRANCH  34  47
ATOM     47  C   UNL     1       5.750   4.024  16.602  0.00  0.00    +0.027 C 
ATOM     48  H   UNL     1       5.339   4.365  15.643  0.00  0.00    +0.036 HD
ATOM     49  H   UNL     1       5.792   2.929  16.573  0.00  0.00    +0.036 HD
BRANCH  47  50
ATOM     50  C   UNL     1       7.162   4.572  16.684  0.00  0.00    +0.211 C 
ATOM     51  N   UNL     1       7.522   5.344  15.618  0.00  0.00    -0.329 N 
ATOM     52  O   UNL     1       7.933   4.392  17.618  0.00  0.00    -0.276 OA
ATOM     53  H   UNL     1       8.473   5.690  15.602  0.00  0.00    +0.145 HD
ATOM     54  H   UNL     1       6.976   5.393  14.770  0.00  0.00    +0.145 HD
ENDBRANCH  47  50
ENDBRANCH  34  47
ENDBRANCH   4  31
TORSDOF 4
ENDMDL
MODEL 6
REMARK VINA RESULT:    -8.838      2.311      2.870
REMARK INTER + INTRA:         -10.773
REMARK INTER:                 -10.920
REMARK INTRA:                   0.146
REMARK UNBOUND:                 0.131
REMARK  Name = 
REMARK  4 active torsions:
REMARK  status: ('A' for Active; 'I' for Inactive)
REMARK    1  A    between atoms: N_10  and  C_11
REMARK    2  A    between atoms: C_14  and  C_15
REMARK    3  A    between atoms: C_18  and  C_19
REMARK    4  A    between atoms: C_19  and  C_20
REMARK                            x       y       z     vdW  Elec       q    Type
REMARK                         _______ _______ _______ _____ _____    ______ ____
ROOT
ATOM      1  C   UNL     1       0.457   9.953  20.125  0.00  0.00    +0.037 A 
ATOM      2  C   UNL     1       0.609   8.957  21.103  0.00  0.00    -0.040 A 
ATOM      3  C   UNL     1       1.372   7.803  20.867  0.00  0.00    -0.057 A 
ATOM      4  C   UNL     1       1.997   7.594  19.635  0.00  0.00    -0.044 A 
ATOM      5  C   UNL     1       1.830   8.566  18.645  0.00  0.00    -0.057 A 
ATOM      6  C   UNL     1       1.069   9.718  18.886  0.00  0.00    -0.040 A 
ATOM      7  H   UNL     1       0.133   9.026  22.075  0.00  0.00    +0.064 HD
ATOM      8  H   UNL     1       1.457   7.065  21.661  0.00  0.00    +0.062 HD
ATOM      9  H   UNL     1       2.284   8.442  17.664  0.00  0.00    +0.062 HD
ATOM     10  H   UNL     1       0.968  10.418  18.058  0.00  0.00    +0.064 HD
ENDROOT
BRANCH   1  20
ATOM     11  N   UNL     1      -3.303  10.731  17.719  0.00  0.00    -0.281 NA
ATOM     12  C   UNL     1      -3.493  11.616  18.633  0.00  0.00    +0.164 A 
ATOM     13  N   UNL     1      -4.790  12.064  18.712  0.00  0.00    -0.218 NA
ATOM     14  C   UNL     1      -5.089  12.795  19.730  0.00  0.00    +0.098 A 
ATOM     15  N   UNL     1      -4.219  13.165  20.700  0.00  0.00    -0.316 N 
ATOM     16  C   UNL     1      -2.883  12.871  20.603  0.00  0.00    +0.210 A 
ATOM     17  C   UNL     1      -2.439  12.117  19.574  0.00  0.00    +0.140 A 
ATOM     18  C   UNL     1      -1.024  11.756  19.308  0.00  0.00    +0.260 C 
ATOM     19  O   UNL     1      -0.523  12.003  18.212  0.00  0.00    -0.269 OA
ATOM     20  N   UNL     1      -0.344  11.130  20.355  0.00  0.00    -0.264 N 
ATOM     21  C   UNL     1      -0.374  11.743  21.683  0.00  0.00    +0.054 C 
ATOM     22  C   UNL     1      -0.747  13.226  21.654  0.00  0.00    +0.107 C 
ATOM     23  O   UNL     1      -2.155  13.426  21.620  0.00  0.00    -0.475 OA
ATOM     24  H   UNL     1      -4.220  10.622  17.266  0.00  0.00    +0.188 HD
ATOM     25  H   UNL     1      -6.112  13.183  19.874  0.00  0.00    +0.103 HD
ATOM     26  H   UNL     1      -4.481  13.806  21.438  0.00  0.00    +0.170 HD
ATOM     27  H   UNL     1      -1.062  11.166  22.311  0.00  0.00    +0.050 HD
ATOM     28  H   UNL     1       0.634  11.701  22.106  0.00  0.00    +0.050 HD
ATOM     29  H   UNL     1      -0.264  13.777  20.837  0.00  0.00    +0.071 HD
ATOM     30  H   UNL     1      -0.405  13.686  22.588  0.00  0.00    +0.071 HD
ENDBRANCH   1  20
BRANCH   4  31
ATOM     31  C   UNL     1       2.828   6.354  19.351  0.00  0.00    -0.016 C 
ATOM     32  C   UNL     1       2.259   5.087  20.025  0.00  0.00    -0.046 C 
ATOM     33  C   UNL     1       1.621   4.120  19.029  0.00  0.00    -0.049 C 
ATOM     34  C   UNL     1       2.599   3.667  17.927  0.00  0.00    -0.033 C 
ATOM     35  C   UNL     1       3.604   4.774  17.546  0.00  0.00    -0.049 C 
ATOM     36  C   UNL     1       3.064   6.170  17.840  0.00  0.00    -0.046 C 
ATOM     37  H   UNL     1       3.816   6.514  19.808  0.00  0.00    +0.035 HD
ATOM     38  H   UNL     1       1.539   5.339  20.813  0.00  0.00    +0.027 HD
ATOM     39  H   UNL     1       3.080   4.560  20.529  0.00  0.00    +0.027 HD
ATOM     40  H   UNL     1       0.762   4.612  18.557  0.00  0.00    +0.027 HD
ATOM     41  H   UNL     1       1.209   3.256  19.564  0.00  0.00    +0.027 HD
ATOM     42  H   UNL     1       1.990   3.442  17.040  0.00  0.00    +0.031 HD
ATOM     43  H   UNL     1       4.550   4.642  18.088  0.00  0.00    +0.027 HD
ATOM     44  H   UNL     1       3.848   4.697  16.480  0.00  0.00    +0.027 HD
ATOM     45  H   UNL     1       2.142   6.322  17.265  0.00  0.00    +0.027 HD
ATOM     46  H   UNL     1       3.774   6.925  17.485  0.00  0.00    +0.027 HD
BRANCH  34  47
ATOM     47  C   UNL     1       3.331   2.376  18.339  0.00  0.00    +0.027 C 
ATOM     48  H   UNL     1       3.973   2.037  17.515  0.00  0.00    +0.036 HD
ATOM     49  H   UNL     1       2.609   1.577  18.547  0.00  0.00    +0.036 HD
BRANCH  47  50
ATOM     50  C   UNL     1       4.235   2.552  19.544  0.00  0.00    +0.211 C 
ATOM     51  N   UNL     1       5.426   3.157  19.262  0.00  0.00    -0.329 N 
ATOM     52  O   UNL     1       3.952   2.227  20.689  0.00  0.00    -0.276 OA
ATOM     53  H   UNL     1       6.085   3.250  20.024  0.00  0.00    +0.145 HD
ATOM     54  H   UNL     1       5.755   3.302  18.319  0.00  0.00    +0.145 HD
ENDBRANCH  47  50
ENDBRANCH  34  47
ENDBRANCH   4  31
TORSDOF 4
ENDMDL
MODEL 7
REMARK VINA RESULT:    -8.785      2.125      2.552
REMARK INTER + INTRA:         -10.708
REMARK INTER:                  -9.796
REMARK INTRA:                  -0.912
REMARK UNBOUND:                 0.131
REMARK  Name = 
REMARK  4 active torsions:
REMARK  status: ('A' for Active; 'I' for Inactive)
REMARK    1  A    between atoms: N_10  and  C_11
REMARK    2  A    between atoms: C_14  and  C_15
REMARK    3  A    between atoms: C_18  and  C_19
REMARK    4  A    between atoms: C_19  and  C_20
REMARK                            x       y       z     vdW  Elec       q    Type
REMARK                         _______ _______ _______ _____ _____    ______ ____
ROOT
ATOM      1  C   UNL     1       1.089  10.653  19.384  0.00  0.00    +0.037 A 
ATOM      2  C   UNL     1       1.114   9.621  20.335  0.00  0.00    -0.040 A 
ATOM      3  C   UNL     1       1.628   8.351  20.031  0.00  0.00    -0.057 A 
ATOM      4  C   UNL     1       2.120   8.061  18.756  0.00  0.00    -0.044 A 
ATOM      5  C   UNL     1       2.075   9.072  17.793  0.00  0.00    -0.057 A 
ATOM      6  C   UNL     1       1.562  10.340  18.101  0.00  0.00    -0.040 A 
ATOM      7  H   UNL     1       0.725   9.753  21.339  0.00  0.00    +0.064 HD
ATOM      8  H   UNL     1       1.626   7.590  20.808  0.00  0.00    +0.062 HD
ATOM      9  H   UNL     1       2.431   8.891  16.781  0.00  0.00    +0.062 HD
ATOM     10  H   UNL     1       1.540  11.068  17.291  0.00  0.00    +0.064 HD
ENDROOT
BRANCH   1  20
ATOM     11  N   UNL     1      -1.435  11.333  23.086  0.00  0.00    -0.281 NA
ATOM     12  C   UNL     1      -1.239  12.567  22.777  0.00  0.00    +0.164 A 
ATOM     13  N   UNL     1      -1.488  13.443  23.806  0.00  0.00    -0.218 NA
ATOM     14  C   UNL     1      -1.122  14.666  23.627  0.00  0.00    +0.098 A 
ATOM     15  N   UNL     1      -0.535  15.141  22.502  0.00  0.00    -0.316 N 
ATOM     16  C   UNL     1      -0.391  14.352  21.390  0.00  0.00    +0.210 A 
ATOM     17  C   UNL     1      -0.748  13.051  21.446  0.00  0.00    +0.140 A 
ATOM     18  C   UNL     1      -0.696  12.086  20.319  0.00  0.00    +0.260 C 
ATOM     19  O   UNL     1      -1.703  11.455  20.003  0.00  0.00    -0.269 OA
ATOM     20  N   UNL     1       0.540  11.952  19.684  0.00  0.00    -0.264 N 
ATOM     21  C   UNL     1       1.236  13.158  19.231  0.00  0.00    +0.054 C 
ATOM     22  C   UNL     1       0.312  14.369  19.089  0.00  0.00    +0.107 C 
ATOM     23  O   UNL     1       0.117  15.045  20.326  0.00  0.00    -0.475 OA
ATOM     24  H   UNL     1      -1.764  11.357  24.060  0.00  0.00    +0.188 HD
ATOM     25  H   UNL     1      -1.274  15.428  24.410  0.00  0.00    +0.103 HD
ATOM     26  H   UNL     1      -0.338  16.126  22.378  0.00  0.00    +0.170 HD
ATOM     27  H   UNL     1       2.060  13.358  19.926  0.00  0.00    +0.050 HD
ATOM     28  H   UNL     1       1.635  12.973  18.230  0.00  0.00    +0.050 HD
ATOM     29  H   UNL     1      -0.654  14.124  18.631  0.00  0.00    +0.071 HD
ATOM     30  H   UNL     1       0.797  15.097  18.428  0.00  0.00    +0.071 HD
ENDBRANCH   1  20
BRANCH   4  31
ATOM     31  C   UNL     1       2.681   6.695  18.399  0.00  0.00    -0.016 C 
ATOM     32  C   UNL     1       3.756   6.761  17.292  0.00  0.00    -0.046 C 
ATOM     33  C   UNL     1       5.167   6.507  17.819  0.00  0.00    -0.049 C 
ATOM     34  C   UNL     1       5.303   5.143  18.524  0.00  0.00    -0.033 C 
ATOM     35  C   UNL     1       4.011   4.733  19.261  0.00  0.00    -0.049 C 
ATOM     36  C   UNL     1       3.163   5.940  19.652  0.00  0.00    -0.046 C 
ATOM     37  H   UNL     1       1.854   6.106  17.974  0.00  0.00    +0.035 HD
ATOM     38  H   UNL     1       3.725   7.719  16.758  0.00  0.00    +0.027 HD
ATOM     39  H   UNL     1       3.531   5.993  16.540  0.00  0.00    +0.027 HD
ATOM     40  H   UNL     1       5.429   7.299  18.531  0.00  0.00    +0.027 HD
ATOM     41  H   UNL     1       5.889   6.596  16.999  0.00  0.00    +0.027 HD
ATOM     42  H   UNL     1       6.099   5.255  19.274  0.00  0.00    +0.031 HD
ATOM     43  H   UNL     1       3.403   4.065  18.636  0.00  0.00    +0.027 HD
ATOM     44  H   UNL     1       4.267   4.163  20.162  0.00  0.00    +0.027 HD
ATOM     45  H   UNL     1       3.751   6.588  20.313  0.00  0.00    +0.027 HD
ATOM     46  H   UNL     1       2.297   5.611  20.238  0.00  0.00    +0.027 HD
BRANCH  34  47
ATOM     47  C   UNL     1       5.740   4.050  17.530  0.00  0.00    +0.027 C 
ATOM     48  H   UNL     1       4.983   3.944  16.742  0.00  0.00    +0.036 HD
ATOM     49  H   UNL     1       5.826   3.083  18.040  0.00  0.00    +0.036 HD
BRANCH  47  50
ATOM     50  C   UNL     1       7.049   4.359  16.829  0.00  0.00    +0.211 C 
ATOM     51  N   UNL     1       8.150   4.230  17.626  0.00  0.00    -0.329 N 
ATOM     52  O   UNL     1       7.161   4.666  15.650  0.00  0.00    -0.276 OA
ATOM     53  H   UNL     1       9.043   4.475  17.219  0.00  0.00    +0.145 HD
ATOM     54  H   UNL     1       8.089   4.125  18.628  0.00  0.00    +0.145 HD
ENDBRANCH  47  50
ENDBRANCH  34  47
ENDBRANCH   4  31
TORSDOF 4
ENDMDL
MODEL 8
REMARK VINA RESULT:    -8.742      2.270      2.772
REMARK INTER + INTRA:         -10.655
REMARK INTER:                 -10.327
REMARK INTRA:                  -0.327
REMARK UNBOUND:                 0.131
REMARK  Name = 
REMARK  4 active torsions:
REMARK  status: ('A' for Active; 'I' for Inactive)
REMARK    1  A    between atoms: N_10  and  C_11
REMARK    2  A    between atoms: C_14  and  C_15
REMARK    3  A    between atoms: C_18  and  C_19
REMARK    4  A    between atoms: C_19  and  C_20
REMARK                            x       y       z     vdW  Elec       q    Type
REMARK                         _______ _______ _______ _____ _____    ______ ____
ROOT
ATOM      1  C   UNL     1       0.280  10.215  20.205  0.00  0.00    +0.037 A 
ATOM      2  C   UNL     1       1.000   9.901  19.042  0.00  0.00    -0.040 A 
ATOM      3  C   UNL     1       1.667   8.675  18.898  0.00  0.00    -0.057 A 
ATOM      4  C   UNL     1       1.655   7.724  19.922  0.00  0.00    -0.044 A 
ATOM      5  C   UNL     1       0.964   8.039  21.095  0.00  0.00    -0.057 A 
ATOM      6  C   UNL     1       0.297   9.263  21.235  0.00  0.00    -0.040 A 
ATOM      7  H   UNL     1       1.085  10.593  18.212  0.00  0.00    +0.064 HD
ATOM      8  H   UNL     1       2.208   8.483  17.974  0.00  0.00    +0.062 HD
ATOM      9  H   UNL     1       0.938   7.339  21.928  0.00  0.00    +0.062 HD
ATOM     10  H   UNL     1      -0.200   9.443  22.187  0.00  0.00    +0.064 HD
ENDROOT
BRANCH   1  20
ATOM     11  N   UNL     1      -3.756  10.998  18.298  0.00  0.00    -0.281 NA
ATOM     12  C   UNL     1      -3.731  12.016  19.084  0.00  0.00    +0.164 A 
ATOM     13  N   UNL     1      -4.964  12.591  19.286  0.00  0.00    -0.218 NA
ATOM     14  C   UNL     1      -5.041  13.484  20.213  0.00  0.00    +0.098 A 
ATOM     15  N   UNL     1      -4.001  13.903  20.973  0.00  0.00    -0.316 N 
ATOM     16  C   UNL     1      -2.722  13.474  20.722  0.00  0.00    +0.210 A 
ATOM     17  C   UNL     1      -2.506  12.544  19.768  0.00  0.00    +0.140 A 
ATOM     18  C   UNL     1      -1.182  12.016  19.351  0.00  0.00    +0.260 C 
ATOM     19  O   UNL     1      -0.849  12.058  18.168  0.00  0.00    -0.269 OA
ATOM     20  N   UNL     1      -0.388  11.483  20.368  0.00  0.00    -0.264 N 
ATOM     21  C   UNL     1      -0.158  12.278  21.575  0.00  0.00    +0.054 C 
ATOM     22  C   UNL     1      -0.425  13.771  21.374  0.00  0.00    +0.107 C 
ATOM     23  O   UNL     1      -1.802  14.095  21.521  0.00  0.00    -0.475 OA
ATOM     24  H   UNL     1      -4.739  10.912  18.011  0.00  0.00    +0.188 HD
ATOM     25  H   UNL     1      -5.997  13.982  20.446  0.00  0.00    +0.103 HD
ATOM     26  H   UNL     1      -4.094  14.664  21.633  0.00  0.00    +0.170 HD
ATOM     27  H   UNL     1      -0.774  11.862  22.380  0.00  0.00    +0.050 HD
ATOM     28  H   UNL     1       0.900  12.201  21.843  0.00  0.00    +0.050 HD
ATOM     29  H   UNL     1      -0.043  14.153  20.419  0.00  0.00    +0.071 HD
ATOM     30  H   UNL     1       0.096  14.324  22.164  0.00  0.00    +0.071 HD
ENDBRANCH   1  20
BRANCH   4  31
ATOM     31  C   UNL     1       2.369   6.390  19.794  0.00  0.00    -0.016 C 
ATOM     32  C   UNL     1       1.878   5.348  20.822  0.00  0.00    -0.046 C 
ATOM     33  C   UNL     1       1.033   4.244  20.191  0.00  0.00    -0.049 C 
ATOM     34  C   UNL     1       1.779   3.485  19.076  0.00  0.00    -0.033 C 
ATOM     35  C   UNL     1       2.745   4.399  18.292  0.00  0.00    -0.049 C 
ATOM     36  C   UNL     1       2.324   5.864  18.347  0.00  0.00    -0.046 C 
ATOM     37  H   UNL     1       3.429   6.565  20.033  0.00  0.00    +0.035 HD
ATOM     38  H   UNL     1       1.322   5.822  21.640  0.00  0.00    +0.027 HD
ATOM     39  H   UNL     1       2.754   4.879  21.290  0.00  0.00    +0.027 HD
ATOM     40  H   UNL     1       0.125   4.689  19.768  0.00  0.00    +0.027 HD
ATOM     41  H   UNL     1       0.688   3.552  20.969  0.00  0.00    +0.027 HD
ATOM     42  H   UNL     1       1.013   3.123  18.375  0.00  0.00    +0.031 HD
ATOM     43  H   UNL     1       3.766   4.312  18.687  0.00  0.00    +0.027 HD
ATOM     44  H   UNL     1       2.791   4.074  17.246  0.00  0.00    +0.027 HD
ATOM     45  H   UNL     1       1.322   5.962  17.912  0.00  0.00    +0.027 HD
ATOM     46  H   UNL     1       2.990   6.466  17.718  0.00  0.00    +0.027 HD
BRANCH  34  47
ATOM     47  C   UNL     1       2.520   2.259  19.643  0.00  0.00    +0.027 C 
ATOM     48  H   UNL     1       1.866   1.379  19.598  0.00  0.00    +0.036 HD
ATOM     49  H   UNL     1       2.781   2.425  20.695  0.00  0.00    +0.036 HD
BRANCH  47  50
ATOM     50  C   UNL     1       3.776   1.902  18.871  0.00  0.00    +0.211 C 
ATOM     51  N   UNL     1       4.934   2.130  19.558  0.00  0.00    -0.329 N 
ATOM     52  O   UNL     1       3.797   1.419  17.747  0.00  0.00    -0.276 OA
ATOM     53  H   UNL     1       5.801   1.956  19.066  0.00  0.00    +0.145 HD
ATOM     54  H   UNL     1       4.964   2.659  20.417  0.00  0.00    +0.145 HD
ENDBRANCH  47  50
ENDBRANCH  34  47
ENDBRANCH   4  31
TORSDOF 4
ENDMDL
MODEL 9
REMARK VINA RESULT:    -8.718      2.880      3.664
REMARK INTER + INTRA:         -10.625
REMARK INTER:                 -10.495
REMARK INTRA:                  -0.130
REMARK UNBOUND:                 0.131
REMARK  Name = 
REMARK  4 active torsions:
REMARK  status: ('A' for Active; 'I' for Inactive)
REMARK    1  A    between atoms: N_10  and  C_11
REMARK    2  A    between atoms: C_14  and  C_15
REMARK    3  A    between atoms: C_18  and  C_19
REMARK    4  A    between atoms: C_19  and  C_20
REMARK                            x       y       z     vdW  Elec       q    Type
REMARK                         _______ _______ _______ _____ _____    ______ ____
ROOT
ATOM      1  C   UNL     1       1.115   9.187  19.036  0.00  0.00    +0.037 A 
ATOM      2  C   UNL     1       1.429   8.178  19.961  0.00  0.00    -0.040 A 
ATOM      3  C   UNL     1       2.334   7.151  19.651  0.00  0.00    -0.057 A 
ATOM      4  C   UNL     1       2.944   7.085  18.396  0.00  0.00    -0.044 A 
ATOM      5  C   UNL     1       2.618   8.068  17.459  0.00  0.00    -0.057 A 
ATOM      6  C   UNL     1       1.716   9.094  17.772  0.00  0.00    -0.040 A 
ATOM      7  H   UNL     1       0.978   8.138  20.946  0.00  0.00    +0.064 HD
ATOM      8  H   UNL     1       2.542   6.397  20.406  0.00  0.00    +0.062 HD
ATOM      9  H   UNL     1       3.055   8.052  16.462  0.00  0.00    +0.062 HD
ATOM     10  H   UNL     1       1.496   9.810  16.982  0.00  0.00    +0.064 HD
ENDROOT
BRANCH   1  20
ATOM     11  N   UNL     1       2.481  13.166  20.722  0.00  0.00    -0.281 NA
ATOM     12  C   UNL     1       1.277  13.505  20.422  0.00  0.00    +0.164 A 
ATOM     13  N   UNL     1       1.082  14.865  20.359  0.00  0.00    -0.218 NA
ATOM     14  C   UNL     1      -0.041  15.267  19.871  0.00  0.00    +0.098 A 
ATOM     15  N   UNL     1      -1.035  14.452  19.443  0.00  0.00    -0.316 N 
ATOM     16  C   UNL     1      -0.960  13.093  19.613  0.00  0.00    +0.210 A 
ATOM     17  C   UNL     1       0.164  12.546  20.125  0.00  0.00    +0.140 A 
ATOM     18  C   UNL     1       0.378  11.105  20.411  0.00  0.00    +0.260 C 
ATOM     19  O   UNL     1       0.726  10.747  21.534  0.00  0.00    -0.269 OA
ATOM     20  N   UNL     1       0.169  10.232  19.341  0.00  0.00    -0.264 N 
ATOM     21  C   UNL     1      -1.081  10.325  18.585  0.00  0.00    +0.054 C 
ATOM     22  C   UNL     1      -2.194  11.044  19.349  0.00  0.00    +0.107 C 
ATOM     23  O   UNL     1      -2.107  12.459  19.222  0.00  0.00    -0.475 OA
ATOM     24  H   UNL     1       2.977  14.056  20.860  0.00  0.00    +0.188 HD
ATOM     25  H   UNL     1      -0.268  16.342  19.773  0.00  0.00    +0.103 HD
ATOM     26  H   UNL     1      -1.931  14.815  19.142  0.00  0.00    +0.170 HD
ATOM     27  H   UNL     1      -0.866  10.814  17.629  0.00  0.00    +0.050 HD
ATOM     28  H   UNL     1      -1.454   9.312  18.406  0.00  0.00    +0.050 HD
ATOM     29  H   UNL     1      -2.246  10.759  20.407  0.00  0.00    +0.071 HD
ATOM     30  H   UNL     1      -3.155  10.766  18.902  0.00  0.00    +0.071 HD
ENDBRANCH   1  20
BRANCH   4  31
ATOM     31  C   UNL     1       3.926   5.983  18.033  0.00  0.00    -0.016 C 
ATOM     32  C   UNL     1       4.943   6.421  16.957  0.00  0.00    -0.046 C 
ATOM     33  C   UNL     1       6.349   6.626  17.516  0.00  0.00    -0.049 C 
ATOM     34  C   UNL     1       6.907   5.364  18.204  0.00  0.00    -0.033 C 
ATOM     35  C   UNL     1       5.803   4.540  18.900  0.00  0.00    -0.049 C 
ATOM     36  C   UNL     1       4.602   5.397  19.286  0.00  0.00    -0.046 C 
ATOM     37  H   UNL     1       3.345   5.168  17.577  0.00  0.00    +0.035 HD
ATOM     38  H   UNL     1       4.613   7.328  16.436  0.00  0.00    +0.027 HD
ATOM     39  H   UNL     1       4.996   5.639  16.187  0.00  0.00    +0.027 HD
ATOM     40  H   UNL     1       6.325   7.443  18.247  0.00  0.00    +0.027 HD
ATOM     41  H   UNL     1       7.020   6.963  16.718  0.00  0.00    +0.027 HD
ATOM     42  H   UNL     1       7.608   5.711  18.976  0.00  0.00    +0.031 HD
ATOM     43  H   UNL     1       5.459   3.726  18.248  0.00  0.00    +0.027 HD
ATOM     44  H   UNL     1       6.213   4.063  19.798  0.00  0.00    +0.027 HD
ATOM     45  H   UNL     1       4.934   6.185  19.973  0.00  0.00    +0.027 HD
ATOM     46  H   UNL     1       3.878   4.791  19.844  0.00  0.00    +0.027 HD
BRANCH  34  47
ATOM     47  C   UNL     1       7.695   4.496  17.205  0.00  0.00    +0.027 C 
ATOM     48  H   UNL     1       7.775   3.471  17.589  0.00  0.00    +0.036 HD
ATOM     49  H   UNL     1       8.713   4.884  17.083  0.00  0.00    +0.036 HD
BRANCH  47  50
ATOM     50  C   UNL     1       7.037   4.394  15.842  0.00  0.00    +0.211 C 
ATOM     51  N   UNL     1       7.621   5.171  14.884  0.00  0.00    -0.329 N 
ATOM     52  O   UNL     1       6.089   3.669  15.572  0.00  0.00    -0.276 OA
ATOM     53  H   UNL     1       7.186   5.177  13.970  0.00  0.00    +0.145 HD
ATOM     54  H   UNL     1       8.301   5.885  15.099  0.00  0.00    +0.145 HD
ENDBRANCH  47  50
ENDBRANCH  34  47
ENDBRANCH   4  31
TORSDOF 4
ENDMDL
MODEL 10
REMARK VINA RESULT:    -8.456      0.956      1.397
REMARK INTER + INTRA:         -10.302
REMARK INTER:                  -9.602
REMARK INTRA:                  -0.701
REMARK UNBOUND:                 0.131
REMARK  Name = 
REMARK  4 active torsions:
REMARK  status: ('A' for Active; 'I' for Inactive)
REMARK    1  A    between atoms: N_10  and  C_11
REMARK    2  A    between atoms: C_14  and  C_15
REMARK    3  A    between atoms: C_18  and  C_19
REMARK    4  A    between atoms: C_19  and  C_20
REMARK                            x       y       z     vdW  Elec       q    Type
REMARK                         _______ _______ _______ _____ _____    ______ ____
ROOT
ATOM      1  C   UNL     1       1.300   9.717  19.550  0.00  0.00    +0.037 A 
ATOM      2  C   UNL     1       1.198   8.868  20.663  0.00  0.00    -0.040 A 
ATOM      3  C   UNL     1       1.621   7.530  20.609  0.00  0.00    -0.057 A 
ATOM      4  C   UNL     1       2.145   6.988  19.433  0.00  0.00    -0.044 A 
ATOM      5  C   UNL     1       2.226   7.818  18.311  0.00  0.00    -0.057 A 
ATOM      6  C   UNL     1       1.804   9.153  18.369  0.00  0.00    -0.040 A 
ATOM      7  H   UNL     1       0.776   9.200  21.604  0.00  0.00    +0.064 HD
ATOM      8  H   UNL     1       1.521   6.918  21.502  0.00  0.00    +0.062 HD
ATOM      9  H   UNL     1       2.612   7.438  17.367  0.00  0.00    +0.062 HD
ATOM     10  H   UNL     1       1.878   9.729  17.448  0.00  0.00    +0.064 HD
ENDROOT
BRANCH   1  20
ATOM     11  N   UNL     1      -1.228  11.241  22.989  0.00  0.00    -0.281 NA
ATOM     12  C   UNL     1      -0.935  12.380  22.467  0.00  0.00    +0.164 A 
ATOM     13  N   UNL     1      -1.135  13.446  23.312  0.00  0.00    -0.218 NA
ATOM     14  C   UNL     1      -0.675  14.586  22.926  0.00  0.00    +0.098 A 
ATOM     15  N   UNL     1      -0.035  14.805  21.751  0.00  0.00    -0.316 N 
ATOM     16  C   UNL     1       0.068  13.817  20.806  0.00  0.00    +0.210 A 
ATOM     17  C   UNL     1      -0.387  12.576  21.086  0.00  0.00    +0.140 A 
ATOM     18  C   UNL     1      -0.388  11.420  20.154  0.00  0.00    +0.260 C 
ATOM     19  O   UNL     1      -1.434  10.815  19.928  0.00  0.00    -0.269 OA
ATOM     20  N   UNL     1       0.846  11.085  19.592  0.00  0.00    -0.264 N 
ATOM     21  C   UNL     1       1.638  12.136  18.950  0.00  0.00    +0.054 C 
ATOM     22  C   UNL     1       0.810  13.362  18.562  0.00  0.00    +0.107 C 
ATOM     23  O   UNL     1       0.645  14.265  19.649  0.00  0.00    -0.475 OA
ATOM     24  H   UNL     1      -1.571  11.466  23.931  0.00  0.00    +0.188 HD
ATOM     25  H   UNL     1      -0.783  15.487  23.552  0.00  0.00    +0.103 HD
ATOM     26  H   UNL     1       0.237  15.733  21.456  0.00  0.00    +0.170 HD
ATOM     27  H   UNL     1       2.462  12.400  19.621  0.00  0.00    +0.050 HD
ATOM     28  H   UNL     1       2.038  11.742  18.011  0.00  0.00    +0.050 HD
ATOM     29  H   UNL     1      -0.164  13.106  18.127  0.00  0.00    +0.071 HD
ATOM     30  H   UNL     1       1.359  13.920  17.795  0.00  0.00    +0.071 HD
ENDBRANCH   1  20
BRANCH   4  31
ATOM     31  C   UNL     1       2.609   5.544  19.346  0.00  0.00    -0.016 C 
ATOM     32  C   UNL     1       1.949   4.773  18.183  0.00  0.00    -0.046 C 
ATOM     33  C   UNL     1       2.913   4.494  17.032  0.00  0.00    -0.049 C 
ATOM     34  C   UNL     1       4.157   3.698  17.476  0.00  0.00    -0.033 C 
ATOM     35  C   UNL     1       4.594   4.049  18.914  0.00  0.00    -0.049 C 
ATOM     36  C   UNL     1       4.146   5.448  19.327  0.00  0.00    -0.046 C 
ATOM     37  H   UNL     1       2.273   5.040  20.265  0.00  0.00    +0.035 HD
ATOM     38  H   UNL     1       1.061   5.296  17.806  0.00  0.00    +0.027 HD
ATOM     39  H   UNL     1       1.587   3.809  18.564  0.00  0.00    +0.027 HD
ATOM     40  H   UNL     1       3.241   5.449  16.603  0.00  0.00    +0.027 HD
ATOM     41  H   UNL     1       2.385   3.973  16.225  0.00  0.00    +0.027 HD
ATOM     42  H   UNL     1       4.972   3.984  16.795  0.00  0.00    +0.031 HD
ATOM     43  H   UNL     1       4.185   3.324  19.630  0.00  0.00    +0.027 HD
ATOM     44  H   UNL     1       5.685   3.980  18.993  0.00  0.00    +0.027 HD
ATOM     45  H   UNL     1       4.589   6.180  18.639  0.00  0.00    +0.027 HD
ATOM     46  H   UNL     1       4.541   5.686  20.321  0.00  0.00    +0.027 HD
BRANCH  34  47
ATOM     47  C   UNL     1       3.924   2.183  17.326  0.00  0.00    +0.027 C 
ATOM     48  H   UNL     1       4.844   1.700  16.975  0.00  0.00    +0.036 HD
ATOM     49  H   UNL     1       3.143   1.989  16.581  0.00  0.00    +0.036 HD
BRANCH  47  50
ATOM     50  C   UNL     1       3.548   1.498  18.626  0.00  0.00    +0.211 C 
ATOM     51  N   UNL     1       4.516   0.671  19.119  0.00  0.00    -0.329 N 
ATOM     52  O   UNL     1       2.499   1.667  19.233  0.00  0.00    -0.276 OA
ATOM     53  H   UNL     1       4.293   0.151  19.957  0.00  0.00    +0.145 HD
ATOM     54  H   UNL     1       5.323   0.394  18.579  0.00  0.00    +0.145 HD
ENDBRANCH  47  50
ENDBRANCH  34  47
ENDBRANCH   4  31
TORSDOF 4
ENDMDL
MODEL 11
REMARK VINA RESULT:    -8.447      2.694      3.282
REMARK INTER + INTRA:         -10.291
REMARK INTER:                  -9.628
REMARK INTRA:                  -0.663
REMARK UNBOUND:                 0.131
REMARK  Name = 
REMARK  4 active torsions:
REMARK  status: ('A' for Active; 'I' for Inactive)
REMARK    1  A    between atoms: N_10  and  C_11
REMARK    2  A    between atoms: C_14  and  C_15
REMARK    3  A    between atoms: C_18  and  C_19
REMARK    4  A    between atoms: C_19  and  C_20
REMARK                            x       y       z     vdW  Elec       q    Type
REMARK                         _______ _______ _______ _____ _____    ______ ____
ROOT
ATOM      1  C   UNL     1       0.937  10.589  19.534  0.00  0.00    +0.037 A 
ATOM      2  C   UNL     1       1.499  10.437  18.256  0.00  0.00    -0.040 A 
ATOM      3  C   UNL     1       2.027   9.211  17.825  0.00  0.00    -0.057 A 
ATOM      4  C   UNL     1       2.029   8.094  18.664  0.00  0.00    -0.044 A 
ATOM      5  C   UNL     1       1.498   8.241  19.948  0.00  0.00    -0.057 A 
ATOM      6  C   UNL     1       0.969   9.467  20.375  0.00  0.00    -0.040 A 
ATOM      7  H   UNL     1       1.563  11.261  17.554  0.00  0.00    +0.064 HD
ATOM      8  H   UNL     1       2.447   9.149  16.824  0.00  0.00    +0.062 HD
ATOM      9  H   UNL     1       1.491   7.405  20.645  0.00  0.00    +0.062 HD
ATOM     10  H   UNL     1       0.593   9.508  21.396  0.00  0.00    +0.064 HD
ENDROOT
BRANCH   1  20
ATOM     11  N   UNL     1      -3.442  11.638  19.014  0.00  0.00    -0.281 NA
ATOM     12  C   UNL     1      -3.130  12.581  19.831  0.00  0.00    +0.164 A 
ATOM     13  N   UNL     1      -4.213  13.165  20.443  0.00  0.00    -0.218 NA
ATOM     14  C   UNL     1      -3.963  13.973  21.416  0.00  0.00    +0.098 A 
ATOM     15  N   UNL     1      -2.722  14.296  21.854  0.00  0.00    -0.316 N 
ATOM     16  C   UNL     1      -1.602  13.860  21.193  0.00  0.00    +0.210 A 
ATOM     17  C   UNL     1      -1.731  13.014  20.148  0.00  0.00    +0.140 A 
ATOM     18  C   UNL     1      -0.622  12.494  19.309  0.00  0.00    +0.260 C 
ATOM     19  O   UNL     1      -0.659  12.634  18.088  0.00  0.00    -0.269 OA
ATOM     20  N   UNL     1       0.414  11.853  19.991  0.00  0.00    -0.264 N 
ATOM     21  C   UNL     1       1.037  12.530  21.129  0.00  0.00    +0.054 C 
ATOM     22  C   UNL     1       0.797  14.041  21.135  0.00  0.00    +0.107 C 
ATOM     23  O   UNL     1      -0.454  14.385  21.720  0.00  0.00    -0.475 OA
ATOM     24  H   UNL     1      -4.469  11.603  19.033  0.00  0.00    +0.188 HD
ATOM     25  H   UNL     1      -4.777  14.471  21.968  0.00  0.00    +0.103 HD
ATOM     26  H   UNL     1      -2.573  14.997  22.568  0.00  0.00    +0.170 HD
ATOM     27  H   UNL     1       0.671  12.059  22.048  0.00  0.00    +0.050 HD
ATOM     28  H   UNL     1       2.121  12.404  21.056  0.00  0.00    +0.050 HD
ATOM     29  H   UNL     1       0.893  14.498  20.143  0.00  0.00    +0.071 HD
ATOM     30  H   UNL     1       1.559  14.508  21.770  0.00  0.00    +0.071 HD
ENDBRANCH   1  20
BRANCH   4  31
ATOM     31  C   UNL     1       2.596   6.754  18.225  0.00  0.00    -0.016 C 
ATOM     32  C   UNL     1       3.731   6.897  17.189  0.00  0.00    -0.046 C 
ATOM     33  C   UNL     1       5.108   6.579  17.769  0.00  0.00    -0.049 C 
ATOM     34  C   UNL     1       5.191   5.158  18.363  0.00  0.00    -0.033 C 
ATOM     35  C   UNL     1       3.855   4.708  18.991  0.00  0.00    -0.049 C 
ATOM     36  C   UNL     1       2.999   5.890  19.434  0.00  0.00    -0.046 C 
ATOM     37  H   UNL     1       1.788   6.215  17.706  0.00  0.00    +0.035 HD
ATOM     38  H   UNL     1       3.740   7.896  16.736  0.00  0.00    +0.027 HD
ATOM     39  H   UNL     1       3.542   6.198  16.363  0.00  0.00    +0.027 HD
ATOM     40  H   UNL     1       5.338   7.304  18.558  0.00  0.00    +0.027 HD
ATOM     41  H   UNL     1       5.876   6.724  17.000  0.00  0.00    +0.027 HD
ATOM     42  H   UNL     1       5.945   5.196  19.162  0.00  0.00    +0.031 HD
ATOM     43  H   UNL     1       3.277   4.104  18.278  0.00  0.00    +0.027 HD
ATOM     44  H   UNL     1       4.054   4.061  19.852  0.00  0.00    +0.027 HD
ATOM     45  H   UNL     1       3.555   6.471  20.179  0.00  0.00    +0.027 HD
ATOM     46  H   UNL     1       2.098   5.527  19.942  0.00  0.00    +0.027 HD
BRANCH  34  47
ATOM     47  C   UNL     1       5.671   4.146  17.306  0.00  0.00    +0.027 C 
ATOM     48  H   UNL     1       5.001   4.172  16.438  0.00  0.00    +0.036 HD
ATOM     49  H   UNL     1       5.647   3.129  17.714  0.00  0.00    +0.036 HD
BRANCH  47  50
ATOM     50  C   UNL     1       7.065   4.436  16.782  0.00  0.00    +0.211 C 
ATOM     51  N   UNL     1       8.058   4.218  17.692  0.00  0.00    -0.329 N 
ATOM     52  O   UNL     1       7.326   4.800  15.643  0.00  0.00    -0.276 OA
ATOM     53  H   UNL     1       9.002   4.446  17.407  0.00  0.00    +0.145 HD
ATOM     54  H   UNL     1       7.875   4.063  18.673  0.00  0.00    +0.145 HD
ENDBRANCH  47  50
ENDBRANCH  34  47
ENDBRANCH   4  31
TORSDOF 4
ENDMDL
MODEL 12
REMARK VINA RESULT:    -8.399      2.224      9.681
REMARK INTER + INTRA:         -10.232
REMARK INTER:                  -9.754
REMARK INTRA:                  -0.478
REMARK UNBOUND:                 0.131
REMARK  Name = 
REMARK  4 active torsions:
REMARK  status: ('A' for Active; 'I' for Inactive)
REMARK    1  A    between atoms: N_10  and  C_11
REMARK    2  A    between atoms: C_14  and  C_15
REMARK    3  A    between atoms: C_18  and  C_19
REMARK    4  A    between atoms: C_19  and  C_20
REMARK                            x       y       z     vdW  Elec       q    Type
REMARK                         _______ _______ _______ _____ _____    ______ ____
ROOT
ATOM      1  C   UNL     1       2.232   7.540  19.236  0.00  0.00    +0.037 A 
ATOM      2  C   UNL     1       1.598   8.034  20.386  0.00  0.00    -0.040 A 
ATOM      3  C   UNL     1       0.790   9.181  20.346  0.00  0.00    -0.057 A 
ATOM      4  C   UNL     1       0.600   9.886  19.155  0.00  0.00    -0.044 A 
ATOM      5  C   UNL     1       1.249   9.418  18.009  0.00  0.00    -0.057 A 
ATOM      6  C   UNL     1       2.054   8.271  18.053  0.00  0.00    -0.040 A 
ATOM      7  H   UNL     1       1.716   7.565  21.357  0.00  0.00    +0.064 HD
ATOM      8  H   UNL     1       0.320   9.518  21.267  0.00  0.00    +0.062 HD
ATOM      9  H   UNL     1       1.146   9.941  17.061  0.00  0.00    +0.062 HD
ATOM     10  H   UNL     1       2.544   7.983  17.124  0.00  0.00    +0.064 HD
ENDROOT
BRANCH   1  20
ATOM     11  N   UNL     1       0.498   3.388  19.779  0.00  0.00    -0.281 NA
ATOM     12  C   UNL     1       1.686   3.039  19.429  0.00  0.00    +0.164 A 
ATOM     13  N   UNL     1       1.781   1.732  19.014  0.00  0.00    -0.218 NA
ATOM     14  C   UNL     1       2.891   1.378  18.463  0.00  0.00    +0.098 A 
ATOM     15  N   UNL     1       3.962   2.189  18.289  0.00  0.00    -0.316 N 
ATOM     16  C   UNL     1       3.981   3.458  18.810  0.00  0.00    +0.210 A 
ATOM     17  C   UNL     1       2.880   3.945  19.421  0.00  0.00    +0.140 A 
ATOM     18  C   UNL     1       2.762   5.274  20.072  0.00  0.00    +0.260 C 
ATOM     19  O   UNL     1       2.392   5.355  21.241  0.00  0.00    -0.269 OA
ATOM     20  N   UNL     1       3.083   6.376  19.276  0.00  0.00    -0.264 N 
ATOM     21  C   UNL     1       4.355   6.378  18.552  0.00  0.00    +0.054 C 
ATOM     22  C   UNL     1       5.376   5.393  19.125  0.00  0.00    +0.107 C 
ATOM     23  O   UNL     1       5.189   4.074  18.626  0.00  0.00    -0.475 OA
ATOM     24  H   UNL     1      -0.068   2.538  19.666  0.00  0.00    +0.188 HD
ATOM     25  H   UNL     1       3.041   0.351  18.091  0.00  0.00    +0.103 HD
ATOM     26  H   UNL     1       4.840   1.844  17.924  0.00  0.00    +0.170 HD
ATOM     27  H   UNL     1       4.147   6.176  17.496  0.00  0.00    +0.050 HD
ATOM     28  H   UNL     1       4.810   7.368  18.655  0.00  0.00    +0.050 HD
ATOM     29  H   UNL     1       5.402   5.387  20.221  0.00  0.00    +0.071 HD
ATOM     30  H   UNL     1       6.374   5.698  18.789  0.00  0.00    +0.071 HD
ENDBRANCH   1  20
BRANCH   4  31
ATOM     31  C   UNL     1      -0.268  11.130  19.082  0.00  0.00    -0.016 C 
ATOM     32  C   UNL     1      -1.203  11.278  20.302  0.00  0.00    -0.046 C 
ATOM     33  C   UNL     1      -0.773  12.398  21.247  0.00  0.00    -0.049 C 
ATOM     34  C   UNL     1      -0.692  13.770  20.549  0.00  0.00    -0.033 C 
ATOM     35  C   UNL     1      -0.244  13.652  19.076  0.00  0.00    -0.049 C 
ATOM     36  C   UNL     1       0.577  12.391  18.824  0.00  0.00    -0.046 C 
ATOM     37  H   UNL     1      -0.933  11.012  18.212  0.00  0.00    +0.035 HD
ATOM     38  H   UNL     1      -1.293  10.337  20.856  0.00  0.00    +0.027 HD
ATOM     39  H   UNL     1      -2.214  11.509  19.941  0.00  0.00    +0.027 HD
ATOM     40  H   UNL     1       0.213  12.155  21.661  0.00  0.00    +0.027 HD
ATOM     41  H   UNL     1      -1.453  12.438  22.106  0.00  0.00    +0.027 HD
ATOM     42  H   UNL     1       0.068  14.353  21.088  0.00  0.00    +0.031 HD
ATOM     43  H   UNL     1      -1.114  13.644  18.406  0.00  0.00    +0.027 HD
ATOM     44  H   UNL     1       0.348  14.532  18.802  0.00  0.00    +0.027 HD
ATOM     45  H   UNL     1       1.471  12.417  19.459  0.00  0.00    +0.027 HD
ATOM     46  H   UNL     1       0.938  12.385  17.789  0.00  0.00    +0.027 HD
BRANCH  34  47
ATOM     47  C   UNL     1      -2.031  14.523  20.658  0.00  0.00    +0.027 C 
ATOM     48  H   UNL     1      -2.809  13.976  20.111  0.00  0.00    +0.036 HD
ATOM     49  H   UNL     1      -1.946  15.519  20.205  0.00  0.00    +0.036 HD
BRANCH  47  50
ATOM     50  C   UNL     1      -2.529  14.668  22.083  0.00  0.00    +0.211 C 
ATOM     51  N   UNL     1      -3.740  14.081  22.312  0.00  0.00    -0.329 N 
ATOM     52  O   UNL     1      -1.919  15.222  22.988  0.00  0.00    -0.276 OA
ATOM     53  H   UNL     1      -4.139  14.195  23.235  0.00  0.00    +0.145 HD
ATOM     54  H   UNL     1      -4.335  13.749  21.567  0.00  0.00    +0.145 HD
ENDBRANCH  47  50
ENDBRANCH  34  47
ENDBRANCH   4  31
TORSDOF 4
ENDMDL
MODEL 13
REMARK VINA RESULT:    -8.379      3.246      9.541
REMARK INTER + INTRA:         -10.207
REMARK INTER:                  -9.826
REMARK INTRA:                  -0.381
REMARK UNBOUND:                 0.131
REMARK  Name = 
REMARK  4 active torsions:
REMARK  status: ('A' for Active; 'I' for Inactive)
REMARK    1  A    between atoms: N_10  and  C_11
REMARK    2  A    between atoms: C_14  and  C_15
REMARK    3  A    between atoms: C_18  and  C_19
REMARK    4  A    between atoms: C_19  and  C_20
REMARK                            x       y       z     vdW  Elec       q    Type
REMARK                         _______ _______ _______ _____ _____    ______ ____
ROOT
ATOM      1  C   UNL     1       2.342   7.723  18.701  0.00  0.00    +0.037 A 
ATOM      2  C   UNL     1       2.000   8.731  17.785  0.00  0.00    -0.040 A 
ATOM      3  C   UNL     1       1.293   9.876  18.181  0.00  0.00    -0.057 A 
ATOM      4  C   UNL     1       0.885  10.047  19.506  0.00  0.00    -0.044 A 
ATOM      5  C   UNL     1       1.196   9.037  20.421  0.00  0.00    -0.057 A 
ATOM      6  C   UNL     1       1.904   7.895  20.022  0.00  0.00    -0.040 A 
ATOM      7  H   UNL     1       2.253   8.663  16.733  0.00  0.00    +0.064 HD
ATOM      8  H   UNL     1       1.057  10.627  17.431  0.00  0.00    +0.062 HD
ATOM      9  H   UNL     1       0.886   9.115  21.461  0.00  0.00    +0.062 HD
ATOM     10  H   UNL     1       2.089   7.143  20.787  0.00  0.00    +0.064 HD
ENDROOT
BRANCH   1  20
ATOM     11  N   UNL     1       6.746   7.861  17.637  0.00  0.00    -0.281 NA
ATOM     12  C   UNL     1       6.623   6.583  17.715  0.00  0.00    +0.164 A 
ATOM     13  N   UNL     1       7.819   5.917  17.844  0.00  0.00    -0.218 NA
ATOM     14  C   UNL     1       7.755   4.661  18.127  0.00  0.00    +0.098 A 
ATOM     15  N   UNL     1       6.606   3.960  18.282  0.00  0.00    -0.316 N 
ATOM     16  C   UNL     1       5.387   4.533  18.025  0.00  0.00    +0.210 A 
ATOM     17  C   UNL     1       5.319   5.844  17.708  0.00  0.00    +0.140 A 
ATOM     18  C   UNL     1       4.085   6.592  17.360  0.00  0.00    +0.260 C 
ATOM     19  O   UNL     1       4.024   7.220  16.305  0.00  0.00    -0.269 OA
ATOM     20  N   UNL     1       3.049   6.533  18.295  0.00  0.00    -0.264 N 
ATOM     21  C   UNL     1       2.617   5.225  18.790  0.00  0.00    +0.054 C 
ATOM     22  C   UNL     1       3.030   4.069  17.877  0.00  0.00    +0.107 C 
ATOM     23  O   UNL     1       4.361   3.634  18.129  0.00  0.00    -0.475 OA
ATOM     24  H   UNL     1       7.759   8.029  17.671  0.00  0.00    +0.188 HD
ATOM     25  H   UNL     1       8.669   4.059  18.260  0.00  0.00    +0.103 HD
ATOM     26  H   UNL     1       6.607   2.959  18.425  0.00  0.00    +0.170 HD
ATOM     27  H   UNL     1       3.009   5.098  19.805  0.00  0.00    +0.050 HD
ATOM     28  H   UNL     1       1.523   5.207  18.811  0.00  0.00    +0.050 HD
ATOM     29  H   UNL     1       2.897   4.291  16.811  0.00  0.00    +0.071 HD
ATOM     30  H   UNL     1       2.390   3.208  18.100  0.00  0.00    +0.071 HD
ENDBRANCH   1  20
BRANCH   4  31
ATOM     31  C   UNL     1       0.116  11.276  19.963  0.00  0.00    -0.016 C 
ATOM     32  C   UNL     1      -1.263  10.929  20.564  0.00  0.00    -0.046 C 
ATOM     33  C   UNL     1      -1.312  11.109  22.080  0.00  0.00    -0.049 C 
ATOM     34  C   UNL     1      -0.954  12.542  22.523  0.00  0.00    -0.033 C 
ATOM     35  C   UNL     1       0.099  13.193  21.601  0.00  0.00    -0.049 C 
ATOM     36  C   UNL     1       0.968  12.156  20.897  0.00  0.00    -0.046 C 
ATOM     37  H   UNL     1      -0.094  11.878  19.066  0.00  0.00    +0.035 HD
ATOM     38  H   UNL     1      -1.572   9.910  20.300  0.00  0.00    +0.027 HD
ATOM     39  H   UNL     1      -2.015  11.594  20.120  0.00  0.00    +0.027 HD
ATOM     40  H   UNL     1      -0.605  10.410  22.544  0.00  0.00    +0.027 HD
ATOM     41  H   UNL     1      -2.301  10.821  22.455  0.00  0.00    +0.027 HD
ATOM     42  H   UNL     1      -0.519  12.460  23.529  0.00  0.00    +0.031 HD
ATOM     43  H   UNL     1      -0.387  13.819  20.841  0.00  0.00    +0.027 HD
ATOM     44  H   UNL     1       0.737  13.862  22.189  0.00  0.00    +0.027 HD
ATOM     45  H   UNL     1       1.490  11.557  21.653  0.00  0.00    +0.027 HD
ATOM     46  H   UNL     1       1.749  12.659  20.315  0.00  0.00    +0.027 HD
BRANCH  34  47
ATOM     47  C   UNL     1      -2.217  13.419  22.622  0.00  0.00    +0.027 C 
ATOM     48  H   UNL     1      -2.478  13.804  21.629  0.00  0.00    +0.036 HD
ATOM     49  H   UNL     1      -2.031  14.280  23.274  0.00  0.00    +0.036 HD
BRANCH  47  50
ATOM     50  C   UNL     1      -3.435  12.669  23.126  0.00  0.00    +0.211 C 
ATOM     51  N   UNL     1      -4.425  12.528  22.198  0.00  0.00    -0.329 N 
ATOM     52  O   UNL     1      -3.551  12.187  24.245  0.00  0.00    -0.276 OA
ATOM     53  H   UNL     1      -5.280  12.081  22.501  0.00  0.00    +0.145 HD
ATOM     54  H   UNL     1      -4.430  13.034  21.324  0.00  0.00    +0.145 HD
ENDBRANCH  47  50
ENDBRANCH  34  47
ENDBRANCH   4  31
TORSDOF 4
ENDMDL
MODEL 14
REMARK VINA RESULT:    -8.363      2.187      9.706
REMARK INTER + INTRA:         -10.187
REMARK INTER:                  -9.737
REMARK INTRA:                  -0.450
REMARK UNBOUND:                 0.131
REMARK  Name = 
REMARK  4 active torsions:
REMARK  status: ('A' for Active; 'I' for Inactive)
REMARK    1  A    between atoms: N_10  and  C_11
REMARK    2  A    between atoms: C_14  and  C_15
REMARK    3  A    between atoms: C_18  and  C_19
REMARK    4  A    between atoms: C_19  and  C_20
REMARK                            x       y       z     vdW  Elec       q    Type
REMARK                         _______ _______ _______ _____ _____    ______ ____
ROOT
ATOM      1  C   UNL     1       2.337   7.553  19.200  0.00  0.00    +0.037 A 
ATOM      2  C   UNL     1       2.140   8.252  17.999  0.00  0.00    -0.040 A 
ATOM      3  C   UNL     1       1.313   9.385  17.935  0.00  0.00    -0.057 A 
ATOM      4  C   UNL     1       0.638   9.848  19.067  0.00  0.00    -0.044 A 
ATOM      5  C   UNL     1       0.806   9.143  20.261  0.00  0.00    -0.057 A 
ATOM      6  C   UNL     1       1.634   8.014  20.323  0.00  0.00    -0.040 A 
ATOM      7  H   UNL     1       2.602   7.942  17.069  0.00  0.00    +0.064 HD
ATOM      8  H   UNL     1       1.198   9.890  16.978  0.00  0.00    +0.062 HD
ATOM      9  H   UNL     1       0.289   9.454  21.166  0.00  0.00    +0.062 HD
ATOM     10  H   UNL     1       1.696   7.506  21.283  0.00  0.00    +0.064 HD
ENDROOT
BRANCH   1  20
ATOM     11  N   UNL     1       0.523   3.436  19.756  0.00  0.00    -0.281 NA
ATOM     12  C   UNL     1       1.711   3.064  19.431  0.00  0.00    +0.164 A 
ATOM     13  N   UNL     1       1.790   1.751  19.031  0.00  0.00    -0.218 NA
ATOM     14  C   UNL     1       2.904   1.372  18.504  0.00  0.00    +0.098 A 
ATOM     15  N   UNL     1       3.991   2.164  18.340  0.00  0.00    -0.316 N 
ATOM     16  C   UNL     1       4.023   3.437  18.848  0.00  0.00    +0.210 A 
ATOM     17  C   UNL     1       2.920   3.950  19.435  0.00  0.00    +0.140 A 
ATOM     18  C   UNL     1       2.813   5.287  20.069  0.00  0.00    +0.260 C 
ATOM     19  O   UNL     1       2.424   5.387  21.231  0.00  0.00    -0.269 OA
ATOM     20  N   UNL     1       3.167   6.375  19.268  0.00  0.00    -0.264 N 
ATOM     21  C   UNL     1       4.451   6.348  18.566  0.00  0.00    +0.054 C 
ATOM     22  C   UNL     1       5.445   5.353  19.167  0.00  0.00    +0.107 C 
ATOM     23  O   UNL     1       5.244   4.031  18.680  0.00  0.00    -0.475 OA
ATOM     24  H   UNL     1      -0.056   2.595  19.642  0.00  0.00    +0.188 HD
ATOM     25  H   UNL     1       3.043   0.339  18.145  0.00  0.00    +0.103 HD
ATOM     26  H   UNL     1       4.870   1.800  17.995  0.00  0.00    +0.170 HD
ATOM     27  H   UNL     1       4.258   6.138  17.509  0.00  0.00    +0.050 HD
ATOM     28  H   UNL     1       4.921   7.331  18.667  0.00  0.00    +0.050 HD
ATOM     29  H   UNL     1       5.452   5.357  20.264  0.00  0.00    +0.071 HD
ATOM     30  H   UNL     1       6.454   5.636  18.846  0.00  0.00    +0.071 HD
ENDBRANCH   1  20
BRANCH   4  31
ATOM     31  C   UNL     1      -0.264  11.070  19.025  0.00  0.00    -0.016 C 
ATOM     32  C   UNL     1      -1.196  11.167  20.252  0.00  0.00    -0.046 C 
ATOM     33  C   UNL     1      -0.791  12.277  21.219  0.00  0.00    -0.049 C 
ATOM     34  C   UNL     1      -0.751  13.665  20.551  0.00  0.00    -0.033 C 
ATOM     35  C   UNL     1      -0.307  13.591  19.074  0.00  0.00    -0.049 C 
ATOM     36  C   UNL     1       0.546  12.359  18.790  0.00  0.00    -0.046 C 
ATOM     37  H   UNL     1      -0.929  10.953  18.156  0.00  0.00    +0.035 HD
ATOM     38  H   UNL     1      -1.258  10.211  20.787  0.00  0.00    +0.027 HD
ATOM     39  H   UNL     1      -2.215  11.378  19.901  0.00  0.00    +0.027 HD
ATOM     40  H   UNL     1       0.203  12.051  21.623  0.00  0.00    +0.027 HD
ATOM     41  H   UNL     1      -1.467  12.280  22.083  0.00  0.00    +0.027 HD
ATOM     42  H   UNL     1      -0.003  14.256  21.099  0.00  0.00    +0.031 HD
ATOM     43  H   UNL     1      -1.181  13.575  18.409  0.00  0.00    +0.027 HD
ATOM     44  H   UNL     1       0.260  14.493  18.816  0.00  0.00    +0.027 HD
ATOM     45  H   UNL     1       1.442  12.394  19.422  0.00  0.00    +0.027 HD
ATOM     46  H   UNL     1       0.902  12.384  17.754  0.00  0.00    +0.027 HD
BRANCH  34  47
ATOM     47  C   UNL     1      -2.109  14.380  20.683  0.00  0.00    +0.027 C 
ATOM     48  H   UNL     1      -2.871  13.832  20.115  0.00  0.00    +0.036 HD
ATOM     49  H   UNL     1      -2.049  15.392  20.266  0.00  0.00    +0.036 HD
BRANCH  47  50
ATOM     50  C   UNL     1      -2.613  14.461  22.111  0.00  0.00    +0.211 C 
ATOM     51  N   UNL     1      -1.863  15.266  22.920  0.00  0.00    -0.329 N 
ATOM     52  O   UNL     1      -3.615  13.902  22.536  0.00  0.00    -0.276 OA
ATOM     53  H   UNL     1      -2.129  15.312  23.895  0.00  0.00    +0.145 HD
ATOM     54  H   UNL     1      -0.958  15.620  22.649  0.00  0.00    +0.145 HD
ENDBRANCH  47  50
ENDBRANCH  34  47
ENDBRANCH   4  31
TORSDOF 4
ENDMDL
MODEL 15
REMARK VINA RESULT:    -8.272      2.583      9.657
REMARK INTER + INTRA:         -10.075
REMARK INTER:                  -9.691
REMARK INTRA:                  -0.384
REMARK UNBOUND:                 0.131
REMARK  Name = 
REMARK  4 active torsions:
REMARK  status: ('A' for Active; 'I' for Inactive)
REMARK    1  A    between atoms: N_10  and  C_11
REMARK    2  A    between atoms: C_14  and  C_15
REMARK    3  A    between atoms: C_18  and  C_19
REMARK    4  A    between atoms: C_19  and  C_20
REMARK                            x       y       z     vdW  Elec       q    Type
REMARK                         _______ _______ _______ _____ _____    ______ ____
ROOT
ATOM      1  C   UNL     1       1.998   7.913  19.283  0.00  0.00    +0.037 A 
ATOM      2  C   UNL     1       1.601   8.151  20.608  0.00  0.00    -0.040 A 
ATOM      3  C   UNL     1       0.859   9.288  20.962  0.00  0.00    -0.057 A 
ATOM      4  C   UNL     1       0.502  10.241  20.004  0.00  0.00    -0.044 A 
ATOM      5  C   UNL     1       0.916  10.028  18.686  0.00  0.00    -0.057 A 
ATOM      6  C   UNL     1       1.655   8.890  18.337  0.00  0.00    -0.040 A 
ATOM      7  H   UNL     1       1.860   7.477  21.417  0.00  0.00    +0.064 HD
ATOM      8  H   UNL     1       0.575   9.421  22.003  0.00  0.00    +0.062 HD
ATOM      9  H   UNL     1       0.678  10.749  17.907  0.00  0.00    +0.062 HD
ATOM     10  H   UNL     1       1.960   8.807  17.295  0.00  0.00    +0.064 HD
ENDROOT
BRANCH   1  20
ATOM     11  N   UNL     1       0.509   3.715  20.121  0.00  0.00    -0.281 NA
ATOM     12  C   UNL     1       1.475   3.406  19.330  0.00  0.00    +0.164 A 
ATOM     13  N   UNL     1       1.384   2.135  18.813  0.00  0.00    -0.218 NA
ATOM     14  C   UNL     1       2.203   1.835  17.865  0.00  0.00    +0.098 A 
ATOM     15  N   UNL     1       3.148   2.668  17.367  0.00  0.00    -0.316 N 
ATOM     16  C   UNL     1       3.385   3.893  17.936  0.00  0.00    +0.210 A 
ATOM     17  C   UNL     1       2.598   4.321  18.947  0.00  0.00    +0.140 A 
ATOM     18  C   UNL     1       2.756   5.596  19.692  0.00  0.00    +0.260 C 
ATOM     19  O   UNL     1       2.847   5.584  20.918  0.00  0.00    -0.269 OA
ATOM     20  N   UNL     1       2.780   6.758  18.918  0.00  0.00    -0.264 N 
ATOM     21  C   UNL     1       3.692   6.828  17.775  0.00  0.00    +0.054 C 
ATOM     22  C   UNL     1       4.834   5.812  17.853  0.00  0.00    +0.107 C 
ATOM     23  O   UNL     1       4.450   4.533  17.363  0.00  0.00    -0.475 OA
ATOM     24  H   UNL     1      -0.076   2.871  20.164  0.00  0.00    +0.188 HD
ATOM     25  H   UNL     1       2.185   0.841  17.388  0.00  0.00    +0.103 HD
ATOM     26  H   UNL     1       3.822   2.360  16.677  0.00  0.00    +0.170 HD
ATOM     27  H   UNL     1       3.104   6.705  16.860  0.00  0.00    +0.050 HD
ATOM     28  H   UNL     1       4.173   7.811  17.776  0.00  0.00    +0.050 HD
ATOM     29  H   UNL     1       5.265   5.723  18.858  0.00  0.00    +0.071 HD
ATOM     30  H   UNL     1       5.642   6.151  17.195  0.00  0.00    +0.071 HD
ENDBRANCH   1  20
BRANCH   4  31
ATOM     31  C   UNL     1      -0.299  11.482  20.359  0.00  0.00    -0.016 C 
ATOM     32  C   UNL     1      -1.409  11.201  21.394  0.00  0.00    -0.046 C 
ATOM     33  C   UNL     1      -1.094  11.777  22.773  0.00  0.00    -0.049 C 
ATOM     34  C   UNL     1      -0.855  13.300  22.744  0.00  0.00    -0.033 C 
ATOM     35  C   UNL     1      -0.184  13.761  21.432  0.00  0.00    -0.049 C 
ATOM     36  C   UNL     1       0.621  12.646  20.773  0.00  0.00    -0.046 C 
ATOM     37  H   UNL     1      -0.821  11.803  19.444  0.00  0.00    +0.035 HD
ATOM     38  H   UNL     1      -1.619  10.128  21.478  0.00  0.00    +0.027 HD
ATOM     39  H   UNL     1      -2.341  11.660  21.041  0.00  0.00    +0.027 HD
ATOM     40  H   UNL     1      -0.194  11.287  23.166  0.00  0.00    +0.027 HD
ATOM     41  H   UNL     1      -1.899  11.523  23.473  0.00  0.00    +0.027 HD
ATOM     42  H   UNL     1      -0.169  13.526  23.572  0.00  0.00    +0.031 HD
ATOM     43  H   UNL     1      -0.937  14.120  20.718  0.00  0.00    +0.027 HD
ATOM     44  H   UNL     1       0.475  14.612  21.637  0.00  0.00    +0.027 HD
ATOM     45  H   UNL     1       1.404  12.315  21.467  0.00  0.00    +0.027 HD
ATOM     46  H   UNL     1       1.141  13.035  19.890  0.00  0.00    +0.027 HD
BRANCH  34  47
ATOM     47  C   UNL     1      -2.166  14.068  22.991  0.00  0.00    +0.027 C 
ATOM     48  H   UNL     1      -3.022  13.428  22.742  0.00  0.00    +0.036 HD
ATOM     49  H   UNL     1      -2.216  14.954  22.347  0.00  0.00    +0.036 HD
BRANCH  47  50
ATOM     50  C   UNL     1      -2.354  14.494  24.435  0.00  0.00    +0.211 C 
ATOM     51  N   UNL     1      -3.572  14.170  24.957  0.00  0.00    -0.329 N 
ATOM     52  O   UNL     1      -1.505  15.051  25.120  0.00  0.00    -0.276 OA
ATOM     53  H   UNL     1      -3.765  14.479  25.901  0.00  0.00    +0.145 HD
ATOM     54  H   UNL     1      -4.342  13.850  24.388  0.00  0.00    +0.145 HD
ENDBRANCH  47  50
ENDBRANCH  34  47
ENDBRANCH   4  31
TORSDOF 4
ENDMDL
MODEL 16
REMARK VINA RESULT:    -8.179      2.637      9.475
REMARK INTER + INTRA:          -9.961
REMARK INTER:                  -9.727
REMARK INTRA:                  -0.234
REMARK UNBOUND:                 0.131
REMARK  Name = 
REMARK  4 active torsions:
REMARK  status: ('A' for Active; 'I' for Inactive)
REMARK    1  A    between atoms: N_10  and  C_11
REMARK    2  A    between atoms: C_14  and  C_15
REMARK    3  A    between atoms: C_18  and  C_19
REMARK    4  A    between atoms: C_19  and  C_20
REMARK                            x       y       z     vdW  Elec       q    Type
REMARK                         _______ _______ _______ _____ _____    ______ ____
ROOT
ATOM      1  C   UNL     1       2.168   7.892  19.168  0.00  0.00    +0.037 A 
ATOM      2  C   UNL     1       1.906   8.903  18.230  0.00  0.00    -0.040 A 
ATOM      3  C   UNL     1       1.169  10.049  18.569  0.00  0.00    -0.057 A 
ATOM      4  C   UNL     1       0.652  10.217  19.855  0.00  0.00    -0.044 A 
ATOM      5  C   UNL     1       0.884   9.204  20.790  0.00  0.00    -0.057 A 
ATOM      6  C   UNL     1       1.622   8.062  20.448  0.00  0.00    -0.040 A 
ATOM      7  H   UNL     1       2.245   8.837  17.202  0.00  0.00    +0.064 HD
ATOM      8  H   UNL     1       0.998  10.801  17.803  0.00  0.00    +0.062 HD
ATOM      9  H   UNL     1       0.489   9.280  21.800  0.00  0.00    +0.062 HD
ATOM     10  H   UNL     1       1.741   7.308  21.224  0.00  0.00    +0.064 HD
ENDROOT
BRANCH   1  20
ATOM     11  N   UNL     1       0.535   3.769  20.102  0.00  0.00    -0.281 NA
ATOM     12  C   UNL     1       1.482   3.408  19.309  0.00  0.00    +0.164 A 
ATOM     13  N   UNL     1       1.339   2.132  18.818  0.00  0.00    -0.218 NA
ATOM     14  C   UNL     1       2.138   1.784  17.870  0.00  0.00    +0.098 A 
ATOM     15  N   UNL     1       3.109   2.571  17.347  0.00  0.00    -0.316 N 
ATOM     16  C   UNL     1       3.395   3.798  17.889  0.00  0.00    +0.210 A 
ATOM     17  C   UNL     1       2.634   4.275  18.898  0.00  0.00    +0.140 A 
ATOM     18  C   UNL     1       2.845   5.557  19.616  0.00  0.00    +0.260 C 
ATOM     19  O   UNL     1       2.947   5.565  20.841  0.00  0.00    -0.269 OA
ATOM     20  N   UNL     1       2.904   6.702  18.819  0.00  0.00    -0.264 N 
ATOM     21  C   UNL     1       3.808   6.716  17.668  0.00  0.00    +0.054 C 
ATOM     22  C   UNL     1       4.912   5.661  17.756  0.00  0.00    +0.107 C 
ATOM     23  O   UNL     1       4.477   4.387  17.295  0.00  0.00    -0.475 OA
ATOM     24  H   UNL     1      -0.080   2.948  20.166  0.00  0.00    +0.188 HD
ATOM     25  H   UNL     1       2.080   0.781  17.413  0.00  0.00    +0.103 HD
ATOM     26  H   UNL     1       3.764   2.225  16.658  0.00  0.00    +0.170 HD
ATOM     27  H   UNL     1       3.207   6.596  16.760  0.00  0.00    +0.050 HD
ATOM     28  H   UNL     1       4.324   7.681  17.644  0.00  0.00    +0.050 HD
ATOM     29  H   UNL     1       5.349   5.575  18.759  0.00  0.00    +0.071 HD
ATOM     30  H   UNL     1       5.726   5.957  17.084  0.00  0.00    +0.071 HD
ENDBRANCH   1  20
BRANCH   4  31
ATOM     31  C   UNL     1      -0.150  11.446  20.249  0.00  0.00    -0.016 C 
ATOM     32  C   UNL     1      -1.470  11.093  20.967  0.00  0.00    -0.046 C 
ATOM     33  C   UNL     1      -1.437  11.409  22.461  0.00  0.00    -0.049 C 
ATOM     34  C   UNL     1      -1.128  12.892  22.750  0.00  0.00    -0.033 C 
ATOM     35  C   UNL     1      -0.167  13.503  21.708  0.00  0.00    -0.049 C 
ATOM     36  C   UNL     1       0.710  12.447  21.044  0.00  0.00    -0.046 C 
ATOM     37  H   UNL     1      -0.445  11.953  19.318  0.00  0.00    +0.035 HD
ATOM     38  H   UNL     1      -1.742  10.041  20.815  0.00  0.00    +0.027 HD
ATOM     39  H   UNL     1      -2.281  11.679  20.514  0.00  0.00    +0.027 HD
ATOM     40  H   UNL     1      -0.669  10.790  22.939  0.00  0.00    +0.027 HD
ATOM     41  H   UNL     1      -2.386  11.112  22.923  0.00  0.00    +0.027 HD
ATOM     42  H   UNL     1      -0.629  12.923  23.729  0.00  0.00    +0.031 HD
ATOM     43  H   UNL     1      -0.729  14.033  20.928  0.00  0.00    +0.027 HD
ATOM     44  H   UNL     1       0.470  14.252  22.192  0.00  0.00    +0.027 HD
ATOM     45  H   UNL     1       1.307  11.944  21.815  0.00  0.00    +0.027 HD
ATOM     46  H   UNL     1       1.428  12.929  20.370  0.00  0.00    +0.027 HD
BRANCH  34  47
ATOM     47  C   UNL     1      -2.425  13.715  22.852  0.00  0.00    +0.027 C 
ATOM     48  H   UNL     1      -2.727  14.055  21.853  0.00  0.00    +0.036 HD
ATOM     49  H   UNL     1      -2.263  14.606  23.470  0.00  0.00    +0.036 HD
BRANCH  47  50
ATOM     50  C   UNL     1      -3.597  12.931  23.412  0.00  0.00    +0.211 C 
ATOM     51  N   UNL     1      -4.508  12.545  22.472  0.00  0.00    -0.329 N 
ATOM     52  O   UNL     1      -3.737  12.619  24.587  0.00  0.00    -0.276 OA
ATOM     53  H   UNL     1      -5.334  12.063  22.802  0.00  0.00    +0.145 HD
ATOM     54  H   UNL     1      -4.505  12.905  21.528  0.00  0.00    +0.145 HD
ENDBRANCH  47  50
ENDBRANCH  34  47
ENDBRANCH   4  31
TORSDOF 4
ENDMDL
MODEL 17
REMARK VINA RESULT:    -8.036      1.497      1.889
REMARK INTER + INTRA:          -9.784
REMARK INTER:                  -8.998
REMARK INTRA:                  -0.785
REMARK UNBOUND:                 0.131
REMARK  Name = 
REMARK  4 active torsions:
REMARK  status: ('A' for Active; 'I' for Inactive)
REMARK    1  A    between atoms: N_10  and  C_11
REMARK    2  A    between atoms: C_14  and  C_15
REMARK    3  A    between atoms: C_18  and  C_19
REMARK    4  A    between atoms: C_19  and  C_20
REMARK                            x       y       z     vdW  Elec       q    Type
REMARK                         _______ _______ _______ _____ _____    ______ ____
ROOT
ATOM      1  C   UNL     1       1.335  10.275  18.924  0.00  0.00    +0.037 A 
ATOM      2  C   UNL     1       1.945   9.591  17.860  0.00  0.00    -0.040 A 
ATOM      3  C   UNL     1       2.420   8.279  18.005  0.00  0.00    -0.057 A 
ATOM      4  C   UNL     1       2.320   7.608  19.227  0.00  0.00    -0.044 A 
ATOM      5  C   UNL     1       1.740   8.290  20.300  0.00  0.00    -0.057 A 
ATOM      6  C   UNL     1       1.264   9.599  20.151  0.00  0.00    -0.040 A 
ATOM      7  H   UNL     1       2.089  10.049  16.888  0.00  0.00    +0.064 HD
ATOM      8  H   UNL     1       2.882   7.796  17.147  0.00  0.00    +0.062 HD
ATOM      9  H   UNL     1       1.653   7.817  21.275  0.00  0.00    +0.062 HD
ATOM     10  H   UNL     1       0.845  10.071  21.038  0.00  0.00    +0.064 HD
ENDROOT
BRANCH   1  20
ATOM     11  N   UNL     1      -2.577  11.600  20.790  0.00  0.00    -0.281 NA
ATOM     12  C   UNL     1      -2.113  12.766  20.507  0.00  0.00    +0.164 A 
ATOM     13  N   UNL     1      -2.729  13.789  21.187  0.00  0.00    -0.218 NA
ATOM     14  C   UNL     1      -2.183  14.953  21.102  0.00  0.00    +0.098 A 
ATOM     15  N   UNL     1      -1.071  15.235  20.381  0.00  0.00    -0.316 N 
ATOM     16  C   UNL     1      -0.495  14.292  19.569  0.00  0.00    +0.210 A 
ATOM     17  C   UNL     1      -0.982  13.033  19.560  0.00  0.00    +0.140 A 
ATOM     18  C   UNL     1      -0.498  11.919  18.705  0.00  0.00    +0.260 C 
ATOM     19  O   UNL     1      -1.288  11.307  17.989  0.00  0.00    -0.269 OA
ATOM     20  N   UNL     1       0.866  11.632  18.787  0.00  0.00    -0.264 N 
ATOM     21  C   UNL     1       1.829  12.723  18.633  0.00  0.00    +0.054 C 
ATOM     22  C   UNL     1       1.240  13.952  17.936  0.00  0.00    +0.107 C 
ATOM     23  O   UNL     1       0.545  14.802  18.841  0.00  0.00    -0.475 OA
ATOM     24  H   UNL     1      -3.334  11.776  21.463  0.00  0.00    +0.188 HD
ATOM     25  H   UNL     1      -2.608  15.823  21.629  0.00  0.00    +0.103 HD
ATOM     26  H   UNL     1      -0.725  16.181  20.281  0.00  0.00    +0.170 HD
ATOM     27  H   UNL     1       2.225  12.972  19.623  0.00  0.00    +0.050 HD
ATOM     28  H   UNL     1       2.641  12.379  17.986  0.00  0.00    +0.050 HD
ATOM     29  H   UNL     1       0.599  13.699  17.082  0.00  0.00    +0.071 HD
ATOM     30  H   UNL     1       2.066  14.553  17.540  0.00  0.00    +0.071 HD
ENDBRANCH   1  20
BRANCH   4  31
ATOM     31  C   UNL     1       2.828   6.188  19.413  0.00  0.00    -0.016 C 
ATOM     32  C   UNL     1       1.758   5.124  19.087  0.00  0.00    -0.046 C 
ATOM     33  C   UNL     1       2.036   4.383  17.781  0.00  0.00    -0.049 C 
ATOM     34  C   UNL     1       3.410   3.684  17.772  0.00  0.00    -0.033 C 
ATOM     35  C   UNL     1       4.471   4.470  18.572  0.00  0.00    -0.049 C 
ATOM     36  C   UNL     1       4.146   5.958  18.651  0.00  0.00    -0.046 C 
ATOM     37  H   UNL     1       3.055   6.062  20.482  0.00  0.00    +0.035 HD
ATOM     38  H   UNL     1       0.751   5.560  19.061  0.00  0.00    +0.027 HD
ATOM     39  H   UNL     1       1.741   4.385  19.899  0.00  0.00    +0.027 HD
ATOM     40  H   UNL     1       2.000   5.099  16.951  0.00  0.00    +0.027 HD
ATOM     41  H   UNL     1       1.232   3.663  17.585  0.00  0.00    +0.027 HD
ATOM     42  H   UNL     1       3.736   3.646  16.723  0.00  0.00    +0.031 HD
ATOM     43  H   UNL     1       4.558   4.075  19.592  0.00  0.00    +0.027 HD
ATOM     44  H   UNL     1       5.454   4.337  18.105  0.00  0.00    +0.027 HD
ATOM     45  H   UNL     1       4.103   6.367  17.634  0.00  0.00    +0.027 HD
ATOM     46  H   UNL     1       4.960   6.489  19.159  0.00  0.00    +0.027 HD
BRANCH  34  47
ATOM     47  C   UNL     1       3.295   2.236  18.286  0.00  0.00    +0.027 C 
ATOM     48  H   UNL     1       3.915   1.575  17.668  0.00  0.00    +0.036 HD
ATOM     49  H   UNL     1       2.259   1.886  18.210  0.00  0.00    +0.036 HD
BRANCH  47  50
ATOM     50  C   UNL     1       3.773   2.062  19.715  0.00  0.00    +0.211 C 
ATOM     51  N   UNL     1       4.995   1.466  19.824  0.00  0.00    -0.329 N 
ATOM     52  O   UNL     1       3.167   2.438  20.710  0.00  0.00    -0.276 OA
ATOM     53  H   UNL     1       5.335   1.280  20.759  0.00  0.00    +0.145 HD
ATOM     54  H   UNL     1       5.453   1.013  19.046  0.00  0.00    +0.145 HD
ENDBRANCH  47  50
ENDBRANCH  34  47
ENDBRANCH   4  31
TORSDOF 4
ENDMDL
MODEL 18
REMARK VINA RESULT:    -7.944      3.219      9.788
REMARK INTER + INTRA:          -9.670
REMARK INTER:                  -9.421
REMARK INTRA:                  -0.249
REMARK UNBOUND:                 0.131
REMARK  Name = 
REMARK  4 active torsions:
REMARK  status: ('A' for Active; 'I' for Inactive)
REMARK    1  A    between atoms: N_10  and  C_11
REMARK    2  A    between atoms: C_14  and  C_15
REMARK    3  A    between atoms: C_18  and  C_19
REMARK    4  A    between atoms: C_19  and  C_20
REMARK                            x       y       z     vdW  Elec       q    Type
REMARK                         _______ _______ _______ _____ _____    ______ ____
ROOT
ATOM      1  C   UNL     1       2.372   7.536  18.674  0.00  0.00    +0.037 A 
ATOM      2  C   UNL     1       1.972   8.520  17.756  0.00  0.00    -0.040 A 
ATOM      3  C   UNL     1       1.218   9.635  18.153  0.00  0.00    -0.057 A 
ATOM      4  C   UNL     1       0.819   9.797  19.482  0.00  0.00    -0.044 A 
ATOM      5  C   UNL     1       1.187   8.809  20.399  0.00  0.00    -0.057 A 
ATOM      6  C   UNL     1       1.943   7.698  19.999  0.00  0.00    -0.040 A 
ATOM      7  H   UNL     1       2.215   8.457  16.701  0.00  0.00    +0.064 HD
ATOM      8  H   UNL     1       0.938  10.368  17.400  0.00  0.00    +0.062 HD
ATOM      9  H   UNL     1       0.887   8.881  21.442  0.00  0.00    +0.062 HD
ATOM     10  H   UNL     1       2.172   6.961  20.767  0.00  0.00    +0.064 HD
ENDROOT
BRANCH   1  20
ATOM     11  N   UNL     1       6.794   7.836  17.727  0.00  0.00    -0.281 NA
ATOM     12  C   UNL     1       6.711   6.554  17.781  0.00  0.00    +0.164 A 
ATOM     13  N   UNL     1       7.925   5.925  17.929  0.00  0.00    -0.218 NA
ATOM     14  C   UNL     1       7.896   4.663  18.191  0.00  0.00    +0.098 A 
ATOM     15  N   UNL     1       6.767   3.923  18.305  0.00  0.00    -0.316 N 
ATOM     16  C   UNL     1       5.536   4.459  18.026  0.00  0.00    +0.210 A 
ATOM     17  C   UNL     1       5.433   5.772  17.728  0.00  0.00    +0.140 A 
ATOM     18  C   UNL     1       4.184   6.486  17.360  0.00  0.00    +0.260 C 
ATOM     19  O   UNL     1       4.129   7.130  16.314  0.00  0.00    -0.269 OA
ATOM     20  N   UNL     1       3.127   6.377  18.267  0.00  0.00    -0.264 N 
ATOM     21  C   UNL     1       2.727   5.048  18.730  0.00  0.00    +0.054 C 
ATOM     22  C   UNL     1       3.200   3.921  17.809  0.00  0.00    +0.107 C 
ATOM     23  O   UNL     1       4.538   3.525  18.089  0.00  0.00    -0.475 OA
ATOM     24  H   UNL     1       7.800   8.037  17.789  0.00  0.00    +0.188 HD
ATOM     25  H   UNL     1       8.826   4.089  18.337  0.00  0.00    +0.103 HD
ATOM     26  H   UNL     1       6.797   2.919  18.431  0.00  0.00    +0.170 HD
ATOM     27  H   UNL     1       3.097   4.916  19.753  0.00  0.00    +0.050 HD
ATOM     28  H   UNL     1       1.634   4.994  18.723  0.00  0.00    +0.050 HD
ATOM     29  H   UNL     1       3.087   4.157  16.744  0.00  0.00    +0.071 HD
ATOM     30  H   UNL     1       2.584   3.036  18.002  0.00  0.00    +0.071 HD
ENDBRANCH   1  20
BRANCH   4  31
ATOM     31  C   UNL     1       0.000  10.992  19.940  0.00  0.00    -0.016 C 
ATOM     32  C   UNL     1       0.878  12.188  20.367  0.00  0.00    -0.046 C 
ATOM     33  C   UNL     1       0.839  13.341  19.366  0.00  0.00    -0.049 C 
ATOM     34  C   UNL     1      -0.588  13.870  19.120  0.00  0.00    -0.033 C 
ATOM     35  C   UNL     1      -1.649  12.752  19.205  0.00  0.00    -0.049 C 
ATOM     36  C   UNL     1      -1.064  11.378  18.896  0.00  0.00    -0.046 C 
ATOM     37  H   UNL     1      -0.544  10.685  20.846  0.00  0.00    +0.035 HD
ATOM     38  H   UNL     1       1.916  11.883  20.544  0.00  0.00    +0.027 HD
ATOM     39  H   UNL     1       0.510  12.565  21.331  0.00  0.00    +0.027 HD
ATOM     40  H   UNL     1       1.256  12.997  18.412  0.00  0.00    +0.027 HD
ATOM     41  H   UNL     1       1.501  14.147  19.704  0.00  0.00    +0.027 HD
ATOM     42  H   UNL     1      -0.601  14.273  18.098  0.00  0.00    +0.031 HD
ATOM     43  H   UNL     1      -2.103  12.724  20.204  0.00  0.00    +0.027 HD
ATOM     44  H   UNL     1      -2.463  12.966  18.503  0.00  0.00    +0.027 HD
ATOM     45  H   UNL     1      -0.649  11.389  17.880  0.00  0.00    +0.027 HD
ATOM     46  H   UNL     1      -1.862  10.627  18.891  0.00  0.00    +0.027 HD
BRANCH  34  47
ATOM     47  C   UNL     1      -0.923  15.021  20.088  0.00  0.00    +0.027 C 
ATOM     48  H   UNL     1      -1.175  15.923  19.516  0.00  0.00    +0.036 HD
ATOM     49  H   UNL     1      -0.054  15.258  20.713  0.00  0.00    +0.036 HD
BRANCH  47  50
ATOM     50  C   UNL     1      -2.113  14.731  20.982  0.00  0.00    +0.211 C 
ATOM     51  N   UNL     1      -3.287  15.266  20.537  0.00  0.00    -0.329 N 
ATOM     52  O   UNL     1      -2.078  14.056  22.002  0.00  0.00    -0.276 OA
ATOM     53  H   UNL     1      -4.100  15.145  21.126  0.00  0.00    +0.145 HD
ATOM     54  H   UNL     1      -3.329  15.945  19.791  0.00  0.00    +0.145 HD
ENDBRANCH  47  50
ENDBRANCH  34  47
ENDBRANCH   4  31
TORSDOF 4
ENDMDL
MODEL 19
REMARK VINA RESULT:    -7.929      1.418      2.062
REMARK INTER + INTRA:          -9.652
REMARK INTER:                  -8.896
REMARK INTRA:                  -0.757
REMARK UNBOUND:                 0.131
REMARK  Name = 
REMARK  4 active torsions:
REMARK  status: ('A' for Active; 'I' for Inactive)
REMARK    1  A    between atoms: N_10  and  C_11
REMARK    2  A    between atoms: C_14  and  C_15
REMARK    3  A    between atoms: C_18  and  C_19
REMARK    4  A    between atoms: C_19  and  C_20
REMARK                            x       y       z     vdW  Elec       q    Type
REMARK                         _______ _______ _______ _____ _____    ______ ____
ROOT
ATOM      1  C   UNL     1       0.967  10.709  20.182  0.00  0.00    +0.037 A 
ATOM      2  C   UNL     1       1.295  10.304  18.878  0.00  0.00    -0.040 A 
ATOM      3  C   UNL     1       1.574   8.962  18.574  0.00  0.00    -0.057 A 
ATOM      4  C   UNL     1       1.555   7.980  19.566  0.00  0.00    -0.044 A 
ATOM      5  C   UNL     1       1.257   8.377  20.872  0.00  0.00    -0.057 A 
ATOM      6  C   UNL     1       0.976   9.717  21.173  0.00  0.00    -0.040 A 
ATOM      7  H   UNL     1       1.361  11.006  18.056  0.00  0.00    +0.064 HD
ATOM      8  H   UNL     1       1.820   8.704  17.546  0.00  0.00    +0.062 HD
ATOM      9  H   UNL     1       1.245   7.653  21.684  0.00  0.00    +0.062 HD
ATOM     10  H   UNL     1       0.775   9.951  22.217  0.00  0.00    +0.064 HD
ENDROOT
BRANCH   1  20
ATOM     11  N   UNL     1      -2.370  11.847  23.031  0.00  0.00    -0.281 NA
ATOM     12  C   UNL     1      -1.775  12.987  22.990  0.00  0.00    +0.164 A 
ATOM     13  N   UNL     1      -2.117  13.827  24.023  0.00  0.00    -0.218 NA
ATOM     14  C   UNL     1      -1.413  14.899  24.155  0.00  0.00    +0.098 A 
ATOM     15  N   UNL     1      -0.390  15.257  23.343  0.00  0.00    -0.316 N 
ATOM     16  C   UNL     1      -0.095  14.536  22.214  0.00  0.00    +0.210 A 
ATOM     17  C   UNL     1      -0.769  13.395  21.957  0.00  0.00    +0.140 A 
ATOM     18  C   UNL     1      -0.598  12.534  20.759  0.00  0.00    +0.260 C 
ATOM     19  O   UNL     1      -1.572  12.247  20.065  0.00  0.00    -0.269 OA
ATOM     20  N   UNL     1       0.701  12.089  20.506  0.00  0.00    -0.264 N 
ATOM     21  C   UNL     1       1.790  13.067  20.474  0.00  0.00    +0.054 C 
ATOM     22  C   UNL     1       1.304  14.502  20.256  0.00  0.00    +0.107 C 
ATOM     23  O   UNL     1       0.893  15.121  21.469  0.00  0.00    -0.475 OA
ATOM     24  H   UNL     1      -2.982  11.900  23.854  0.00  0.00    +0.188 HD
ATOM     25  H   UNL     1      -1.614  15.618  24.966  0.00  0.00    +0.103 HD
ATOM     26  H   UNL     1       0.082  16.148  23.438  0.00  0.00    +0.170 HD
ATOM     27  H   UNL     1       2.362  12.971  21.403  0.00  0.00    +0.050 HD
ATOM     28  H   UNL     1       2.433  12.841  19.619  0.00  0.00    +0.050 HD
ATOM     29  H   UNL     1       0.513  14.580  19.501  0.00  0.00    +0.071 HD
ATOM     30  H   UNL     1       2.147  15.099  19.890  0.00  0.00    +0.071 HD
ENDBRANCH   1  20
BRANCH   4  31
ATOM     31  C   UNL     1       1.855   6.521  19.265  0.00  0.00    -0.016 C 
ATOM     32  C   UNL     1       2.998   6.345  18.242  0.00  0.00    -0.046 C 
ATOM     33  C   UNL     1       4.288   5.828  18.876  0.00  0.00    -0.049 C 
ATOM     34  C   UNL     1       4.097   4.482  19.602  0.00  0.00    -0.033 C 
ATOM     35  C   UNL     1       2.699   4.355  20.244  0.00  0.00    -0.049 C 
ATOM     36  C   UNL     1       2.085   5.716  20.558  0.00  0.00    -0.046 C 
ATOM     37  H   UNL     1       0.960   6.098  18.784  0.00  0.00    +0.035 HD
ATOM     38  H   UNL     1       3.198   7.277  17.698  0.00  0.00    +0.027 HD
ATOM     39  H   UNL     1       2.679   5.620  17.483  0.00  0.00    +0.027 HD
ATOM     40  H   UNL     1       4.652   6.569  19.598  0.00  0.00    +0.027 HD
ATOM     41  H   UNL     1       5.071   5.751  18.112  0.00  0.00    +0.027 HD
ATOM     42  H   UNL     1       4.844   4.451  20.409  0.00  0.00    +0.031 HD
ATOM     43  H   UNL     1       2.017   3.807  19.580  0.00  0.00    +0.027 HD
ATOM     44  H   UNL     1       2.770   3.768  21.166  0.00  0.00    +0.027 HD
ATOM     45  H   UNL     1       2.741   6.249  21.256  0.00  0.00    +0.027 HD
ATOM     46  H   UNL     1       1.130   5.581  21.080  0.00  0.00    +0.027 HD
BRANCH  34  47
ATOM     47  C   UNL     1       4.376   3.300  18.654  0.00  0.00    +0.027 C 
ATOM     48  H   UNL     1       4.859   2.486  19.210  0.00  0.00    +0.036 HD
ATOM     49  H   UNL     1       5.061   3.607  17.854  0.00  0.00    +0.036 HD
BRANCH  47  50
ATOM     50  C   UNL     1       3.123   2.713  18.035  0.00  0.00    +0.211 C 
ATOM     51  N   UNL     1       2.836   1.446  18.453  0.00  0.00    -0.329 N 
ATOM     52  O   UNL     1       2.385   3.298  17.252  0.00  0.00    -0.276 OA
ATOM     53  H   UNL     1       2.038   0.992  18.030  0.00  0.00    +0.145 HD
ATOM     54  H   UNL     1       3.491   0.883  18.975  0.00  0.00    +0.145 HD
ENDBRANCH  47  50
ENDBRANCH  34  47
ENDBRANCH   4  31
TORSDOF 4
ENDMDL
MODEL 20
REMARK VINA RESULT:    -7.590      1.647      2.718
REMARK INTER + INTRA:          -9.233
REMARK INTER:                  -8.736
REMARK INTRA:                  -0.497
REMARK UNBOUND:                 0.131
REMARK  Name = 
REMARK  4 active torsions:
REMARK  status: ('A' for Active; 'I' for Inactive)
REMARK    1  A    between atoms: N_10  and  C_11
REMARK    2  A    between atoms: C_14  and  C_15
REMARK    3  A    between atoms: C_18  and  C_19
REMARK    4  A    between atoms: C_19  and  C_20
REMARK                            x       y       z     vdW  Elec       q    Type
REMARK                         _______ _______ _______ _____ _____    ______ ____
ROOT
ATOM      1  C   UNL     1       0.922   9.506  20.571  0.00  0.00    +0.037 A 
ATOM      2  C   UNL     1       0.916   8.465  21.513  0.00  0.00    -0.040 A 
ATOM      3  C   UNL     1       1.444   7.200  21.215  0.00  0.00    -0.057 A 
ATOM      4  C   UNL     1       1.982   6.923  19.955  0.00  0.00    -0.044 A 
ATOM      5  C   UNL     1       1.968   7.944  19.001  0.00  0.00    -0.057 A 
ATOM      6  C   UNL     1       1.441   9.207  19.303  0.00  0.00    -0.040 A 
ATOM      7  H   UNL     1       0.492   8.587  22.503  0.00  0.00    +0.064 HD
ATOM      8  H   UNL     1       1.416   6.431  21.983  0.00  0.00    +0.062 HD
ATOM      9  H   UNL     1       2.360   7.773  18.001  0.00  0.00    +0.062 HD
ATOM     10  H   UNL     1       1.446   9.943  18.500  0.00  0.00    +0.064 HD
ENDROOT
BRANCH   1  20
ATOM     11  N   UNL     1       2.114  13.172  18.187  0.00  0.00    -0.281 NA
ATOM     12  C   UNL     1       1.095  13.676  18.788  0.00  0.00    +0.164 A 
ATOM     13  N   UNL     1       0.618  14.825  18.203  0.00  0.00    -0.218 NA
ATOM     14  C   UNL     1      -0.515  15.266  18.632  0.00  0.00    +0.098 A 
ATOM     15  N   UNL     1      -1.244  14.695  19.620  0.00  0.00    -0.316 N 
ATOM     16  C   UNL     1      -0.755  13.634  20.339  0.00  0.00    +0.210 A 
ATOM     17  C   UNL     1       0.430  13.084  19.994  0.00  0.00    +0.140 A 
ATOM     18  C   UNL     1       1.109  11.968  20.699  0.00  0.00    +0.260 C 
ATOM     19  O   UNL     1       2.267  12.103  21.090  0.00  0.00    -0.269 OA
ATOM     20  N   UNL     1       0.359  10.802  20.864  0.00  0.00    -0.264 N 
ATOM     21  C   UNL     1      -0.984  10.899  21.437  0.00  0.00    +0.054 C 
ATOM     22  C   UNL     1      -1.214  12.197  22.214  0.00  0.00    +0.107 C 
ATOM     23  O   UNL     1      -1.588  13.274  21.363  0.00  0.00    -0.475 OA
ATOM     24  H   UNL     1       2.308  13.819  17.412  0.00  0.00    +0.188 HD
ATOM     25  H   UNL     1      -0.972  16.174  18.205  0.00  0.00    +0.103 HD
ATOM     26  H   UNL     1      -2.088  15.123  19.978  0.00  0.00    +0.170 HD
ATOM     27  H   UNL     1      -1.711  10.780  20.626  0.00  0.00    +0.050 HD
ATOM     28  H   UNL     1      -1.109  10.093  22.166  0.00  0.00    +0.050 HD
ATOM     29  H   UNL     1      -0.360  12.483  22.839  0.00  0.00    +0.071 HD
ATOM     30  H   UNL     1      -2.062  12.047  22.891  0.00  0.00    +0.071 HD
ENDBRANCH   1  20
BRANCH   4  31
ATOM     31  C   UNL     1       2.559   5.562  19.605  0.00  0.00    -0.016 C 
ATOM     32  C   UNL     1       1.470   4.515  19.287  0.00  0.00    -0.046 C 
ATOM     33  C   UNL     1       1.395   4.167  17.802  0.00  0.00    -0.049 C 
ATOM     34  C   UNL     1       2.732   3.637  17.245  0.00  0.00    -0.033 C 
ATOM     35  C   UNL     1       3.951   4.294  17.927  0.00  0.00    -0.049 C 
ATOM     36  C   UNL     1       3.621   5.671  18.494  0.00  0.00    -0.046 C 
ATOM     37  H   UNL     1       3.077   5.189  20.501  0.00  0.00    +0.035 HD
ATOM     38  H   UNL     1       0.484   4.839  19.644  0.00  0.00    +0.027 HD
ATOM     39  H   UNL     1       1.699   3.594  19.839  0.00  0.00    +0.027 HD
ATOM     40  H   UNL     1       1.111   5.066  17.240  0.00  0.00    +0.027 HD
ATOM     41  H   UNL     1       0.588   3.445  17.631  0.00  0.00    +0.027 HD
ATOM     42  H   UNL     1       2.755   3.904  16.179  0.00  0.00    +0.031 HD
ATOM     43  H   UNL     1       4.328   3.660  18.741  0.00  0.00    +0.027 HD
ATOM     44  H   UNL     1       4.769   4.386  17.204  0.00  0.00    +0.027 HD
ATOM     45  H   UNL     1       3.287   6.321  17.677  0.00  0.00    +0.027 HD
ATOM     46  H   UNL     1       4.529   6.133  18.900  0.00  0.00    +0.027 HD
BRANCH  34  47
ATOM     47  C   UNL     1       2.802   2.102  17.352  0.00  0.00    +0.027 C 
ATOM     48  H   UNL     1       3.425   1.704  16.541  0.00  0.00    +0.036 HD
ATOM     49  H   UNL     1       1.802   1.666  17.246  0.00  0.00    +0.036 HD
BRANCH  47  50
ATOM     50  C   UNL     1       3.421   1.614  18.648  0.00  0.00    +0.211 C 
ATOM     51  N   UNL     1       4.430   0.711  18.477  0.00  0.00    -0.329 N 
ATOM     52  O   UNL     1       3.101   1.994  19.767  0.00  0.00    -0.276 OA
ATOM     53  H   UNL     1       4.840   0.316  19.314  0.00  0.00    +0.145 HD
ATOM     54  H   UNL     1       4.620   0.266  17.591  0.00  0.00    +0.145 HD
ENDBRANCH  47  50
ENDBRANCH  34  47
ENDBRANCH   4  31
TORSDOF 4
ENDMDL
MODEL 21
REMARK VINA RESULT:    -6.883      2.575      3.273
REMARK INTER + INTRA:          -8.362
REMARK INTER:                  -8.225
REMARK INTRA:                  -0.137
REMARK UNBOUND:                 0.131
REMARK  Name = 
REMARK  4 active torsions:
REMARK  status: ('A' for Active; 'I' for Inactive)
REMARK    1  A    between atoms: N_10  and  C_11
REMARK    2  A    between atoms: C_14  and  C_15
REMARK    3  A    between atoms: C_18  and  C_19
REMARK    4  A    between atoms: C_19  and  C_20
REMARK                            x       y       z     vdW  Elec       q    Type
REMARK                         _______ _______ _______ _____ _____    ______ ____
ROOT
ATOM      1  C   UNL     1       0.110   9.755  19.139  0.00  0.00    +0.037 A 
ATOM      2  C   UNL     1       0.696   9.751  17.864  0.00  0.00    -0.040 A 
ATOM      3  C   UNL     1       1.826   8.969  17.576  0.00  0.00    -0.057 A 
ATOM      4  C   UNL     1       2.422   8.176  18.559  0.00  0.00    -0.044 A 
ATOM      5  C   UNL     1       1.862   8.194  19.840  0.00  0.00    -0.057 A 
ATOM      6  C   UNL     1       0.733   8.974  20.124  0.00  0.00    -0.040 A 
ATOM      7  H   UNL     1       0.315  10.360  17.052  0.00  0.00    +0.064 HD
ATOM      8  H   UNL     1       2.237   9.002  16.570  0.00  0.00    +0.062 HD
ATOM      9  H   UNL     1       2.299   7.606  20.644  0.00  0.00    +0.062 HD
ATOM     10  H   UNL     1       0.370   8.952  21.149  0.00  0.00    +0.064 HD
ENDROOT
BRANCH   1  20
ATOM     11  N   UNL     1       0.462  13.337  21.894  0.00  0.00    -0.281 NA
ATOM     12  C   UNL     1      -0.706  13.593  21.420  0.00  0.00    +0.164 A 
ATOM     13  N   UNL     1      -1.109  14.894  21.608  0.00  0.00    -0.218 NA
ATOM     14  C   UNL     1      -2.174  15.267  20.986  0.00  0.00    +0.098 A 
ATOM     15  N   UNL     1      -2.923  14.469  20.187  0.00  0.00    -0.316 N 
ATOM     16  C   UNL     1      -2.656  13.128  20.074  0.00  0.00    +0.210 A 
ATOM     17  C   UNL     1      -1.570  12.611  20.689  0.00  0.00    +0.140 A 
ATOM     18  C   UNL     1      -1.176  11.179  20.699  0.00  0.00    +0.260 C 
ATOM     19  O   UNL     1      -0.986  10.602  21.767  0.00  0.00    -0.269 OA
ATOM     20  N   UNL     1      -1.036  10.574  19.448  0.00  0.00    -0.264 N 
ATOM     21  C   UNL     1      -2.124  10.700  18.476  0.00  0.00    +0.054 C 
ATOM     22  C   UNL     1      -3.463  11.074  19.115  0.00  0.00    +0.107 C 
ATOM     23  O   UNL     1      -3.589  12.477  19.316  0.00  0.00    -0.475 OA
ATOM     24  H   UNL     1       0.769  14.219  22.324  0.00  0.00    +0.188 HD
ATOM     25  H   UNL     1      -2.555  16.298  21.074  0.00  0.00    +0.103 HD
ATOM     26  H   UNL     1      -3.795  14.785  19.784  0.00  0.00    +0.170 HD
ATOM     27  H   UNL     1      -1.821  11.429  17.717  0.00  0.00    +0.050 HD
ATOM     28  H   UNL     1      -2.284   9.725  18.007  0.00  0.00    +0.050 HD
ATOM     29  H   UNL     1      -3.660  10.536  20.050  0.00  0.00    +0.071 HD
ATOM     30  H   UNL     1      -4.265  10.801  18.420  0.00  0.00    +0.071 HD
ENDBRANCH   1  20
BRANCH   4  31
ATOM     31  C   UNL     1       3.645   7.321  18.276  0.00  0.00    -0.016 C 
ATOM     32  C   UNL     1       3.495   5.873  18.790  0.00  0.00    -0.046 C 
ATOM     33  C   UNL     1       3.302   4.860  17.664  0.00  0.00    -0.049 C 
ATOM     34  C   UNL     1       4.457   4.877  16.643  0.00  0.00    -0.033 C 
ATOM     35  C   UNL     1       5.050   6.289  16.453  0.00  0.00    -0.049 C 
ATOM     36  C   UNL     1       4.044   7.386  16.789  0.00  0.00    -0.046 C 
ATOM     37  H   UNL     1       4.482   7.753  18.846  0.00  0.00    +0.035 HD
ATOM     38  H   UNL     1       2.674   5.786  19.513  0.00  0.00    +0.027 HD
ATOM     39  H   UNL     1       4.406   5.601  19.339  0.00  0.00    +0.027 HD
ATOM     40  H   UNL     1       2.366   5.084  17.139  0.00  0.00    +0.027 HD
ATOM     41  H   UNL     1       3.172   3.857  18.087  0.00  0.00    +0.027 HD
ATOM     42  H   UNL     1       4.031   4.557  15.681  0.00  0.00    +0.031 HD
ATOM     43  H   UNL     1       5.939   6.424  17.082  0.00  0.00    +0.027 HD
ATOM     44  H   UNL     1       5.385   6.411  15.416  0.00  0.00    +0.027 HD
ATOM     45  H   UNL     1       3.172   7.282  16.132  0.00  0.00    +0.027 HD
ATOM     46  H   UNL     1       4.477   8.368  16.569  0.00  0.00    +0.027 HD
BRANCH  34  47
ATOM     47  C   UNL     1       5.554   3.868  17.034  0.00  0.00    +0.027 C 
ATOM     48  H   UNL     1       5.363   2.906  16.543  0.00  0.00    +0.036 HD
ATOM     49  H   UNL     1       5.544   3.696  18.117  0.00  0.00    +0.036 HD
BRANCH  47  50
ATOM     50  C   UNL     1       6.947   4.297  16.614  0.00  0.00    +0.211 C 
ATOM     51  N   UNL     1       7.840   4.371  17.643  0.00  0.00    -0.329 N 
ATOM     52  O   UNL     1       7.293   4.532  15.463  0.00  0.00    -0.276 OA
ATOM     53  H   UNL     1       8.770   4.703  17.421  0.00  0.00    +0.145 HD
ATOM     54  H   UNL     1       7.561   4.332  18.612  0.00  0.00    +0.145 HD
ENDBRANCH  47  50
ENDBRANCH  34  47
ENDBRANCH   4  31
TORSDOF 4
ENDMDL
MODEL 22
REMARK VINA RESULT:    -6.681      6.218     10.143
REMARK INTER + INTRA:          -8.112
REMARK INTER:                  -7.543
REMARK INTRA:                  -0.569
REMARK UNBOUND:                 0.131
REMARK  Name = 
REMARK  4 active torsions:
REMARK  status: ('A' for Active; 'I' for Inactive)
REMARK    1  A    between atoms: N_10  and  C_11
REMARK    2  A    between atoms: C_14  and  C_15
REMARK    3  A    between atoms: C_18  and  C_19
REMARK    4  A    between atoms: C_19  and  C_20
REMARK                            x       y       z     vdW  Elec       q    Type
REMARK                         _______ _______ _______ _____ _____    ______ ____
ROOT
ATOM      1  C   UNL     1       5.952   5.551  17.988  0.00  0.00    +0.037 A 
ATOM      2  C   UNL     1       5.705   6.740  17.284  0.00  0.00    -0.040 A 
ATOM      3  C   UNL     1       6.612   7.811  17.307  0.00  0.00    -0.057 A 
ATOM      4  C   UNL     1       7.792   7.739  18.052  0.00  0.00    -0.044 A 
ATOM      5  C   UNL     1       8.034   6.571  18.779  0.00  0.00    -0.057 A 
ATOM      6  C   UNL     1       7.128   5.502  18.752  0.00  0.00    -0.040 A 
ATOM      7  H   UNL     1       4.801   6.890  16.705  0.00  0.00    +0.064 HD
ATOM      8  H   UNL     1       6.371   8.708  16.741  0.00  0.00    +0.062 HD
ATOM      9  H   UNL     1       8.931   6.472  19.387  0.00  0.00    +0.062 HD
ATOM     10  H   UNL     1       7.377   4.635  19.361  0.00  0.00    +0.064 HD
ENDROOT
BRANCH   1  20
ATOM     11  N   UNL     1       2.607   5.328  21.038  0.00  0.00    -0.281 NA
ATOM     12  C   UNL     1       2.179   4.416  20.239  0.00  0.00    +0.164 A 
ATOM     13  N   UNL     1       0.850   4.106  20.410  0.00  0.00    -0.218 NA
ATOM     14  C   UNL     1       0.311   3.352  19.516  0.00  0.00    +0.098 A 
ATOM     15  N   UNL     1       0.961   2.833  18.446  0.00  0.00    -0.316 N 
ATOM     16  C   UNL     1       2.315   2.986  18.298  0.00  0.00    +0.210 A 
ATOM     17  C   UNL     1       3.001   3.748  19.177  0.00  0.00    +0.140 A 
ATOM     18  C   UNL     1       4.469   3.971  19.177  0.00  0.00    +0.260 C 
ATOM     19  O   UNL     1       5.126   3.737  20.190  0.00  0.00    -0.269 OA
ATOM     20  N   UNL     1       5.014   4.456  17.987  0.00  0.00    -0.264 N 
ATOM     21  C   UNL     1       4.696   3.771  16.733  0.00  0.00    +0.054 C 
ATOM     22  C   UNL     1       4.193   2.341  16.938  0.00  0.00    +0.107 C 
ATOM     23  O   UNL     1       2.799   2.297  17.220  0.00  0.00    -0.475 OA
ATOM     24  H   UNL     1       1.798   5.562  21.626  0.00  0.00    +0.188 HD
ATOM     25  H   UNL     1      -0.754   3.069  19.574  0.00  0.00    +0.103 HD
ATOM     26  H   UNL     1       0.514   2.181  17.814  0.00  0.00    +0.170 HD
ATOM     27  H   UNL     1       3.969   4.380  16.185  0.00  0.00    +0.050 HD
ATOM     28  H   UNL     1       5.615   3.678  16.147  0.00  0.00    +0.050 HD
ATOM     29  H   UNL     1       4.755   1.791  17.703  0.00  0.00    +0.071 HD
ATOM     30  H   UNL     1       4.323   1.792  15.999  0.00  0.00    +0.071 HD
ENDBRANCH   1  20
BRANCH   4  31
ATOM     31  C   UNL     1       8.790   8.884  18.096  0.00  0.00    -0.016 C 
ATOM     32  C   UNL     1       8.412  10.043  17.149  0.00  0.00    -0.046 C 
ATOM     33  C   UNL     1       7.914  11.280  17.893  0.00  0.00    -0.049 C 
ATOM     34  C   UNL     1       8.940  11.820  18.908  0.00  0.00    -0.033 C 
ATOM     35  C   UNL     1       9.775  10.692  19.553  0.00  0.00    -0.049 C 
ATOM     36  C   UNL     1       9.041   9.354  19.541  0.00  0.00    -0.046 C 
ATOM     37  H   UNL     1       9.748   8.494  17.720  0.00  0.00    +0.035 HD
ATOM     38  H   UNL     1       7.668   9.730  16.407  0.00  0.00    +0.027 HD
ATOM     39  H   UNL     1       9.304  10.329  16.575  0.00  0.00    +0.027 HD
ATOM     40  H   UNL     1       6.990  11.025  18.428  0.00  0.00    +0.027 HD
ATOM     41  H   UNL     1       7.633  12.057  17.172  0.00  0.00    +0.027 HD
ATOM     42  H   UNL     1       8.365  12.312  19.705  0.00  0.00    +0.031 HD
ATOM     43  H   UNL     1      10.732  10.572  19.029  0.00  0.00    +0.027 HD
ATOM     44  H   UNL     1      10.020  10.962  20.586  0.00  0.00    +0.027 HD
ATOM     45  H   UNL     1       8.104   9.458  20.102  0.00  0.00    +0.027 HD
ATOM     46  H   UNL     1       9.634   8.601  20.074  0.00  0.00    +0.027 HD
BRANCH  34  47
ATOM     47  C   UNL     1       9.853  12.877  18.260  0.00  0.00    +0.027 C 
ATOM     48  H   UNL     1       9.927  12.690  17.181  0.00  0.00    +0.036 HD
ATOM     49  H   UNL     1      10.865  12.816  18.677  0.00  0.00    +0.036 HD
BRANCH  47  50
ATOM     50  C   UNL     1       9.339  14.296  18.415  0.00  0.00    +0.211 C 
ATOM     51  N   UNL     1       9.643  15.115  17.367  0.00  0.00    -0.329 N 
ATOM     52  O   UNL     1       8.678  14.705  19.361  0.00  0.00    -0.276 OA
ATOM     53  H   UNL     1       9.367  16.086  17.447  0.00  0.00    +0.145 HD
ATOM     54  H   UNL     1      10.305  14.860  16.648  0.00  0.00    +0.145 HD
ENDBRANCH  47  50
ENDBRANCH  34  47
ENDBRANCH   4  31
TORSDOF 4
ENDMDL
