MODEL 1
REMARK VINA RESULT:    -8.602      0.000      0.000
REMARK INTER + INTRA:         -13.533
REMARK INTER:                 -12.749
REMARK INTRA:                  -0.784
REMARK UNBOUND:                -0.909
REMARK  Name = 
REMARK  9 active torsions:
REMARK  status: ('A' for Active; 'I' for Inactive)
REMARK    1  A    between atoms: C_1  and  C_2
REMARK    2  A    between atoms: C_2  and  C_3
REMARK    3  A    between atoms: C_2  and  C_10
REMARK    4  A    between atoms: C_3  and  C_4
REMARK    5  A    between atoms: N_8  and  C_9
REMARK    6  A    between atoms: C_14  and  N_15
REMARK    7  A    between atoms: C_16  and  C_18
REMARK    8  A    between atoms: C_20  and  C_21
REMARK    9  A    between atoms: C_26  and  C_27
REMARK                            x       y       z     vdW  Elec       q    Type
REMARK                         _______ _______ _______ _____ _____    ______ ____
ROOT
ATOM      1  C   UNL     1      -0.308  10.875  19.797  0.00  0.00    -0.042 A 
ATOM      2  C   UNL     1      -0.446  11.258  21.137  0.00  0.00    -0.058 A 
ATOM      3  C   UNL     1       0.098  10.478  22.155  0.00  0.00    -0.060 A 
ATOM      4  C   UNL     1       0.790   9.302  21.851  0.00  0.00    -0.040 A 
ATOM      5  C   UNL     1       0.945   8.901  20.526  0.00  0.00    +0.034 A 
ATOM      6  C   UNL     1       0.395   9.692  19.506  0.00  0.00    -0.037 A 
ATOM      7  H   UNL     1      -0.975  12.172  21.404  0.00  0.00    +0.062 HD
ATOM      8  H   UNL     1      -0.011  10.783  23.193  0.00  0.00    +0.062 HD
ATOM      9  H   UNL     1       1.200   8.725  22.673  0.00  0.00    +0.064 HD
ATOM     10  H   UNL     1       0.517   9.390  18.469  0.00  0.00    +0.064 HD
ENDROOT
BRANCH   5  11
ATOM     11  N   UNL     1       1.629   7.737  20.136  0.00  0.00    -0.280 N 
ATOM     12  C   UNL     1       2.400   7.531  19.008  0.00  0.00    +0.267 C 
ATOM     13  O   UNL     1       2.648   8.334  18.117  0.00  0.00    -0.268 OA
ATOM     14  H   UNL     1       1.558   6.924  20.744  0.00  0.00    +0.155 HD
BRANCH  12  15
ATOM     15  C   UNL     1       2.969   6.143  18.939  0.00  0.00    +0.127 A 
ATOM     16  C   UNL     1       3.839   5.797  17.912  0.00  0.00    -0.026 A 
ATOM     17  C   UNL     1       4.373   4.500  17.849  0.00  0.00    -0.015 A 
ATOM     18  C   UNL     1       3.965   3.618  18.868  0.00  0.00    -0.026 A 
ATOM     19  C   UNL     1       3.085   4.024  19.878  0.00  0.00    +0.145 A 
ATOM     20  N   UNL     1       2.580   5.287  19.923  0.00  0.00    -0.238 NA
ATOM     21  H   UNL     1       4.104   6.533  17.157  0.00  0.00    +0.064 HD
ATOM     22  H   UNL     1       4.347   2.596  18.867  0.00  0.00    +0.064 HD
BRANCH  17  23
ATOM     23  C   UNL     1       5.364   4.065  16.695  0.00  0.00    +0.086 C 
ATOM     24  C   UNL     1       5.441   4.929  15.426  0.00  0.00    +0.001 C 
ATOM     25  C   UNL     1       6.949   4.873  15.642  0.00  0.00    +0.051 C 
ATOM     26  O   UNL     1       6.772   4.332  16.973  0.00  0.00    -0.372 OA
ATOM     27  H   UNL     1       5.245   2.997  16.464  0.00  0.00    +0.065 HD
ATOM     28  H   UNL     1       5.015   5.933  15.514  0.00  0.00    +0.032 HD
ATOM     29  H   UNL     1       5.080   4.452  14.511  0.00  0.00    +0.032 HD
ATOM     30  H   UNL     1       7.492   4.173  14.999  0.00  0.00    +0.056 HD
ATOM     31  H   UNL     1       7.456   5.840  15.658  0.00  0.00    +0.056 HD
ENDBRANCH  17  23
BRANCH  19  32
ATOM     32  C   UNL     1       2.690   3.017  20.952  0.00  0.00    +0.434 C 
ATOM     33  F   UNL     1       1.673   2.189  20.579  0.00  0.00    -0.164 F 
ATOM     34  F   UNL     1       2.275   3.617  22.105  0.00  0.00    -0.164 F 
ATOM     35  F   UNL     1       3.722   2.201  21.311  0.00  0.00    -0.164 F 
ENDBRANCH  19  32
ENDBRANCH  12  15
ENDBRANCH   5  11
BRANCH   1  36
ATOM     36  C   UNL     1      -0.900  11.703  18.665  0.00  0.00    -0.012 C 
ATOM     37  H   UNL     1      -0.424  11.384  17.727  0.00  0.00    +0.035 HD
BRANCH  36  38
ATOM     38  C   UNL     1      -0.564  13.188  18.850  0.00  0.00    -0.058 C 
ATOM     39  H   UNL     1       0.348  13.310  19.445  0.00  0.00    +0.024 HD
ATOM     40  H   UNL     1      -1.369  13.728  19.362  0.00  0.00    +0.024 HD
ATOM     41  H   UNL     1      -0.395  13.678  17.886  0.00  0.00    +0.024 HD
ENDBRANCH  36  38
BRANCH  36  42
ATOM     42  C   UNL     1      -2.419  11.456  18.547  0.00  0.00    +0.014 C 
ATOM     43  H   UNL     1      -2.973  12.386  18.726  0.00  0.00    +0.035 HD
ATOM     44  H   UNL     1      -2.750  10.755  19.323  0.00  0.00    +0.035 HD
BRANCH  42  45
ATOM     45  C   UNL     1      -2.803  10.922  17.209  0.00  0.00    +0.134 A 
ATOM     46  N   UNL     1      -2.069  10.140  16.441  0.00  0.00    -0.135 NA
ATOM     47  N   UNL     1      -2.783   9.870  15.298  0.00  0.00    -0.138 NA
ATOM     48  C   UNL     1      -3.931  10.496  15.389  0.00  0.00    +0.120 A 
ATOM     49  N   UNL     1      -3.988  11.170  16.569  0.00  0.00    -0.320 N 
ATOM     50  H   UNL     1      -4.720  10.490  14.650  0.00  0.00    +0.105 HD
BRANCH  49  51
ATOM     51  C   UNL     1      -5.083  11.979  17.032  0.00  0.00    +0.014 C 
ATOM     52  H   UNL     1      -6.003  11.621  16.563  0.00  0.00    +0.046 HD
ATOM     53  H   UNL     1      -5.167  11.895  18.119  0.00  0.00    +0.046 HD
ATOM     54  H   UNL     1      -4.892  13.019  16.760  0.00  0.00    +0.046 HD
ENDBRANCH  49  51
ENDBRANCH  42  45
ENDBRANCH  36  42
ENDBRANCH   1  36
TORSDOF 9
ENDMDL
MODEL 2
REMARK VINA RESULT:    -8.467      1.753      2.171
REMARK INTER + INTRA:         -13.336
REMARK INTER:                 -12.318
REMARK INTRA:                  -1.017
REMARK UNBOUND:                -0.909
REMARK  Name = 
REMARK  9 active torsions:
REMARK  status: ('A' for Active; 'I' for Inactive)
REMARK    1  A    between atoms: C_1  and  C_2
REMARK    2  A    between atoms: C_2  and  C_3
REMARK    3  A    between atoms: C_2  and  C_10
REMARK    4  A    between atoms: C_3  and  C_4
REMARK    5  A    between atoms: N_8  and  C_9
REMARK    6  A    between atoms: C_14  and  N_15
REMARK    7  A    between atoms: C_16  and  C_18
REMARK    8  A    between atoms: C_20  and  C_21
REMARK    9  A    between atoms: C_26  and  C_27
REMARK                            x       y       z     vdW  Elec       q    Type
REMARK                         _______ _______ _______ _____ _____    ______ ____
ROOT
ATOM      1  C   UNL     1      -0.383  11.498  18.540  0.00  0.00    -0.042 A 
ATOM      2  C   UNL     1       0.426  12.642  18.560  0.00  0.00    -0.058 A 
ATOM      3  C   UNL     1       1.804  12.535  18.382  0.00  0.00    -0.060 A 
ATOM      4  C   UNL     1       2.396  11.286  18.181  0.00  0.00    -0.040 A 
ATOM      5  C   UNL     1       1.613  10.134  18.153  0.00  0.00    +0.034 A 
ATOM      6  C   UNL     1       0.227  10.249  18.332  0.00  0.00    -0.037 A 
ATOM      7  H   UNL     1      -0.008  13.629  18.709  0.00  0.00    +0.062 HD
ATOM      8  H   UNL     1       2.425  13.428  18.396  0.00  0.00    +0.062 HD
ATOM      9  H   UNL     1       3.472  11.248  18.044  0.00  0.00    +0.064 HD
ATOM     10  H   UNL     1      -0.392   9.355  18.305  0.00  0.00    +0.064 HD
ENDROOT
BRANCH   5  11
ATOM     11  N   UNL     1       2.129   8.842  17.952  0.00  0.00    -0.280 N 
ATOM     12  C   UNL     1       2.275   7.822  18.872  0.00  0.00    +0.267 C 
ATOM     13  O   UNL     1       1.973   7.840  20.059  0.00  0.00    -0.268 OA
ATOM     14  H   UNL     1       2.451   8.605  17.015  0.00  0.00    +0.155 HD
BRANCH  12  15
ATOM     15  C   UNL     1       2.874   6.581  18.275  0.00  0.00    +0.127 A 
ATOM     16  C   UNL     1       4.019   6.667  17.493  0.00  0.00    -0.026 A 
ATOM     17  C   UNL     1       4.581   5.507  16.937  0.00  0.00    -0.015 A 
ATOM     18  C   UNL     1       3.910   4.303  17.224  0.00  0.00    -0.026 A 
ATOM     19  C   UNL     1       2.759   4.278  18.021  0.00  0.00    +0.145 A 
ATOM     20  N   UNL     1       2.232   5.414  18.552  0.00  0.00    -0.238 NA
ATOM     21  H   UNL     1       4.477   7.637  17.311  0.00  0.00    +0.064 HD
ATOM     22  H   UNL     1       4.301   3.370  16.816  0.00  0.00    +0.064 HD
BRANCH  17  23
ATOM     23  C   UNL     1       5.881   5.562  16.038  0.00  0.00    +0.086 C 
ATOM     24  C   UNL     1       6.882   4.397  16.119  0.00  0.00    +0.001 C 
ATOM     25  C   UNL     1       6.805   4.404  14.597  0.00  0.00    +0.051 C 
ATOM     26  O   UNL     1       5.652   5.280  14.624  0.00  0.00    -0.372 OA
ATOM     27  H   UNL     1       6.374   6.541  16.128  0.00  0.00    +0.065 HD
ATOM     28  H   UNL     1       6.501   3.482  16.581  0.00  0.00    +0.032 HD
ATOM     29  H   UNL     1       7.859   4.648  16.540  0.00  0.00    +0.032 HD
ATOM     30  H   UNL     1       7.648   4.875  14.083  0.00  0.00    +0.056 HD
ATOM     31  H   UNL     1       6.575   3.440  14.136  0.00  0.00    +0.056 HD
ENDBRANCH  17  23
BRANCH  19  32
ATOM     32  C   UNL     1       2.088   2.937  18.294  0.00  0.00    +0.434 C 
ATOM     33  F   UNL     1       0.731   3.015  18.406  0.00  0.00    -0.164 F 
ATOM     34  F   UNL     1       2.522   2.361  19.453  0.00  0.00    -0.164 F 
ATOM     35  F   UNL     1       2.328   2.020  17.312  0.00  0.00    -0.164 F 
ENDBRANCH  19  32
ENDBRANCH  12  15
ENDBRANCH   5  11
BRANCH   1  36
ATOM     36  C   UNL     1      -1.890  11.583  18.741  0.00  0.00    -0.012 C 
ATOM     37  H   UNL     1      -2.268  12.406  18.119  0.00  0.00    +0.035 HD
BRANCH  36  38
ATOM     38  C   UNL     1      -2.221  11.938  20.196  0.00  0.00    -0.058 C 
ATOM     39  H   UNL     1      -2.691  11.090  20.707  0.00  0.00    +0.024 HD
ATOM     40  H   UNL     1      -2.910  12.788  20.262  0.00  0.00    +0.024 HD
ATOM     41  H   UNL     1      -1.316  12.198  20.755  0.00  0.00    +0.024 HD
ENDBRANCH  36  38
BRANCH  36  42
ATOM     42  C   UNL     1      -2.574  10.277  18.286  0.00  0.00    +0.014 C 
ATOM     43  H   UNL     1      -3.485  10.098  18.871  0.00  0.00    +0.035 HD
ATOM     44  H   UNL     1      -1.919   9.418  18.480  0.00  0.00    +0.035 HD
BRANCH  42  45
ATOM     45  C   UNL     1      -2.932  10.300  16.838  0.00  0.00    +0.134 A 
ATOM     46  N   UNL     1      -2.271   9.712  15.862  0.00  0.00    -0.135 NA
ATOM     47  N   UNL     1      -2.928   9.971  14.683  0.00  0.00    -0.138 NA
ATOM     48  C   UNL     1      -3.970  10.716  14.963  0.00  0.00    +0.120 A 
ATOM     49  N   UNL     1      -4.013  10.950  16.302  0.00  0.00    -0.320 N 
ATOM     50  H   UNL     1      -4.691  11.095  14.253  0.00  0.00    +0.105 HD
BRANCH  49  51
ATOM     51  C   UNL     1      -5.002  11.729  16.996  0.00  0.00    +0.014 C 
ATOM     52  H   UNL     1      -5.714  11.046  17.466  0.00  0.00    +0.046 HD
ATOM     53  H   UNL     1      -4.516  12.338  17.763  0.00  0.00    +0.046 HD
ATOM     54  H   UNL     1      -5.507  12.378  16.278  0.00  0.00    +0.046 HD
ENDBRANCH  49  51
ENDBRANCH  42  45
ENDBRANCH  36  42
ENDBRANCH   1  36
TORSDOF 9
ENDMDL
MODEL 3
REMARK VINA RESULT:    -8.281      2.607      3.514
REMARK INTER + INTRA:         -13.063
REMARK INTER:                 -12.009
REMARK INTRA:                  -1.054
REMARK UNBOUND:                -0.909
REMARK  Name = 
REMARK  9 active torsions:
REMARK  status: ('A' for Active; 'I' for Inactive)
REMARK    1  A    between atoms: C_1  and  C_2
REMARK    2  A    between atoms: C_2  and  C_3
REMARK    3  A    between atoms: C_2  and  C_10
REMARK    4  A    between atoms: C_3  and  C_4
REMARK    5  A    between atoms: N_8  and  C_9
REMARK    6  A    between atoms: C_14  and  N_15
REMARK    7  A    between atoms: C_16  and  C_18
REMARK    8  A    between atoms: C_20  and  C_21
REMARK    9  A    between atoms: C_26  and  C_27
REMARK                            x       y       z     vdW  Elec       q    Type
REMARK                         _______ _______ _______ _____ _____    ______ ____
ROOT
ATOM      1  C   UNL     1      -0.401  11.346  18.723  0.00  0.00    -0.042 A 
ATOM      2  C   UNL     1       0.378  12.508  18.657  0.00  0.00    -0.058 A 
ATOM      3  C   UNL     1       1.739  12.431  18.370  0.00  0.00    -0.060 A 
ATOM      4  C   UNL     1       2.345  11.191  18.144  0.00  0.00    -0.040 A 
ATOM      5  C   UNL     1       1.591  10.021  18.200  0.00  0.00    +0.034 A 
ATOM      6  C   UNL     1       0.221  10.107  18.488  0.00  0.00    -0.037 A 
ATOM      7  H   UNL     1      -0.067  13.487  18.823  0.00  0.00    +0.062 HD
ATOM      8  H   UNL     1       2.338  13.337  18.318  0.00  0.00    +0.062 HD
ATOM      9  H   UNL     1       3.406  11.176  17.922  0.00  0.00    +0.064 HD
ATOM     10  H   UNL     1      -0.376   9.199  18.527  0.00  0.00    +0.064 HD
ENDROOT
BRANCH   5  11
ATOM     11  N   UNL     1       2.121   8.738  17.981  0.00  0.00    -0.280 N 
ATOM     12  C   UNL     1       2.287   7.710  18.889  0.00  0.00    +0.267 C 
ATOM     13  O   UNL     1       1.995   7.712  20.078  0.00  0.00    -0.268 OA
ATOM     14  H   UNL     1       2.437   8.515  17.039  0.00  0.00    +0.155 HD
BRANCH  12  15
ATOM     15  C   UNL     1       2.896   6.484  18.273  0.00  0.00    +0.127 A 
ATOM     16  C   UNL     1       4.026   6.594  17.472  0.00  0.00    -0.026 A 
ATOM     17  C   UNL     1       4.597   5.447  16.899  0.00  0.00    -0.015 A 
ATOM     18  C   UNL     1       3.952   4.229  17.190  0.00  0.00    -0.026 A 
ATOM     19  C   UNL     1       2.816   4.180  18.006  0.00  0.00    +0.145 A 
ATOM     20  N   UNL     1       2.279   5.304  18.554  0.00  0.00    -0.238 NA
ATOM     21  H   UNL     1       4.465   7.572  17.288  0.00  0.00    +0.064 HD
ATOM     22  H   UNL     1       4.351   3.306  16.769  0.00  0.00    +0.064 HD
BRANCH  17  23
ATOM     23  C   UNL     1       5.881   5.529  15.978  0.00  0.00    +0.086 C 
ATOM     24  C   UNL     1       6.920   4.399  16.061  0.00  0.00    +0.001 C 
ATOM     25  C   UNL     1       6.819   4.377  14.540  0.00  0.00    +0.051 C 
ATOM     26  O   UNL     1       5.639   5.216  14.573  0.00  0.00    -0.372 OA
ATOM     27  H   UNL     1       6.342   6.525  16.044  0.00  0.00    +0.065 HD
ATOM     28  H   UNL     1       6.577   3.480  16.544  0.00  0.00    +0.032 HD
ATOM     29  H   UNL     1       7.895   4.688  16.462  0.00  0.00    +0.032 HD
ATOM     30  H   UNL     1       7.638   4.868  14.005  0.00  0.00    +0.056 HD
ATOM     31  H   UNL     1       6.614   3.399  14.099  0.00  0.00    +0.056 HD
ENDBRANCH  17  23
BRANCH  19  32
ATOM     32  C   UNL     1       2.172   2.826  18.283  0.00  0.00    +0.434 C 
ATOM     33  F   UNL     1       2.569   1.845  17.422  0.00  0.00    -0.164 F 
ATOM     34  F   UNL     1       0.811   2.866  18.196  0.00  0.00    -0.164 F 
ATOM     35  F   UNL     1       2.451   2.358  19.533  0.00  0.00    -0.164 F 
ENDBRANCH  19  32
ENDBRANCH  12  15
ENDBRANCH   5  11
BRANCH   1  36
ATOM     36  C   UNL     1      -1.889  11.399  19.043  0.00  0.00    -0.012 C 
ATOM     37  H   UNL     1      -2.132  10.529  19.669  0.00  0.00    +0.035 HD
BRANCH  36  38
ATOM     38  C   UNL     1      -2.722  11.269  17.762  0.00  0.00    -0.058 C 
ATOM     39  H   UNL     1      -3.605  10.644  17.932  0.00  0.00    +0.024 HD
ATOM     40  H   UNL     1      -2.146  10.816  16.946  0.00  0.00    +0.024 HD
ATOM     41  H   UNL     1      -3.073  12.247  17.419  0.00  0.00    +0.024 HD
ENDBRANCH  36  38
BRANCH  36  42
ATOM     42  C   UNL     1      -2.229  12.678  19.836  0.00  0.00    +0.014 C 
ATOM     43  H   UNL     1      -3.150  13.134  19.451  0.00  0.00    +0.035 HD
ATOM     44  H   UNL     1      -1.441  13.430  19.699  0.00  0.00    +0.035 HD
BRANCH  42  45
ATOM     45  C   UNL     1      -2.401  12.411  21.294  0.00  0.00    +0.134 A 
ATOM     46  N   UNL     1      -1.492  11.913  22.108  0.00  0.00    -0.135 NA
ATOM     47  N   UNL     1      -2.043  11.827  23.364  0.00  0.00    -0.138 NA
ATOM     48  C   UNL     1      -3.275  12.268  23.289  0.00  0.00    +0.120 A 
ATOM     49  N   UNL     1      -3.545  12.644  22.010  0.00  0.00    -0.320 N 
ATOM     50  H   UNL     1      -3.981  12.329  24.106  0.00  0.00    +0.105 HD
BRANCH  49  51
ATOM     51  C   UNL     1      -4.791  13.175  21.526  0.00  0.00    +0.014 C 
ATOM     52  H   UNL     1      -5.062  12.643  20.611  0.00  0.00    +0.046 HD
ATOM     53  H   UNL     1      -5.569  13.030  22.281  0.00  0.00    +0.046 HD
ATOM     54  H   UNL     1      -4.667  14.242  21.330  0.00  0.00    +0.046 HD
ENDBRANCH  49  51
ENDBRANCH  42  45
ENDBRANCH  36  42
ENDBRANCH   1  36
TORSDOF 9
ENDMDL
MODEL 4
REMARK VINA RESULT:    -8.252      1.623      1.871
REMARK INTER + INTRA:         -13.020
REMARK INTER:                 -12.067
REMARK INTRA:                  -0.953
REMARK UNBOUND:                -0.909
REMARK  Name = 
REMARK  9 active torsions:
REMARK  status: ('A' for Active; 'I' for Inactive)
REMARK    1  A    between atoms: C_1  and  C_2
REMARK    2  A    between atoms: C_2  and  C_3
REMARK    3  A    between atoms: C_2  and  C_10
REMARK    4  A    between atoms: C_3  and  C_4
REMARK    5  A    between atoms: N_8  and  C_9
REMARK    6  A    between atoms: C_14  and  N_15
REMARK    7  A    between atoms: C_16  and  C_18
REMARK    8  A    between atoms: C_20  and  C_21
REMARK    9  A    between atoms: C_26  and  C_27
REMARK                            x       y       z     vdW  Elec       q    Type
REMARK                         _______ _______ _______ _____ _____    ______ ____
ROOT
ATOM      1  C   UNL     1      -0.159  10.744  19.571  0.00  0.00    -0.042 A 
ATOM      2  C   UNL     1      -0.266  11.059  20.931  0.00  0.00    -0.058 A 
ATOM      3  C   UNL     1       0.365  10.270  21.891  0.00  0.00    -0.060 A 
ATOM      4  C   UNL     1       1.114   9.154  21.507  0.00  0.00    -0.040 A 
ATOM      5  C   UNL     1       1.240   8.822  20.160  0.00  0.00    +0.034 A 
ATOM      6  C   UNL     1       0.602   9.621  19.200  0.00  0.00    -0.037 A 
ATOM      7  H   UNL     1      -0.838  11.925  21.259  0.00  0.00    +0.062 HD
ATOM      8  H   UNL     1       0.280  10.522  22.945  0.00  0.00    +0.062 HD
ATOM      9  H   UNL     1       1.591   8.569  22.286  0.00  0.00    +0.064 HD
ATOM     10  H   UNL     1       0.700   9.372  18.146  0.00  0.00    +0.064 HD
ENDROOT
BRANCH   5  11
ATOM     11  N   UNL     1       1.977   7.721  19.692  0.00  0.00    -0.280 N 
ATOM     12  C   UNL     1       1.996   6.429  20.181  0.00  0.00    +0.267 C 
ATOM     13  O   UNL     1       1.361   5.981  21.128  0.00  0.00    -0.268 OA
ATOM     14  H   UNL     1       2.589   7.871  18.892  0.00  0.00    +0.155 HD
BRANCH  12  15
ATOM     15  C   UNL     1       2.919   5.529  19.411  0.00  0.00    +0.127 A 
ATOM     16  C   UNL     1       4.118   6.024  18.913  0.00  0.00    -0.026 A 
ATOM     17  C   UNL     1       4.983   5.182  18.196  0.00  0.00    -0.015 A 
ATOM     18  C   UNL     1       4.548   3.854  18.028  0.00  0.00    -0.026 A 
ATOM     19  C   UNL     1       3.328   3.412  18.554  0.00  0.00    +0.145 A 
ATOM     20  N   UNL     1       2.504   4.244  19.249  0.00  0.00    -0.238 NA
ATOM     21  H   UNL     1       4.384   7.065  19.079  0.00  0.00    +0.064 HD
ATOM     22  H   UNL     1       5.179   3.157  17.476  0.00  0.00    +0.064 HD
BRANCH  17  23
ATOM     23  C   UNL     1       6.356   5.707  17.609  0.00  0.00    +0.086 C 
ATOM     24  C   UNL     1       6.502   7.208  17.307  0.00  0.00    +0.001 C 
ATOM     25  C   UNL     1       7.803   7.101  18.093  0.00  0.00    +0.051 C 
ATOM     26  O   UNL     1       7.439   5.789  18.584  0.00  0.00    -0.372 OA
ATOM     27  H   UNL     1       6.683   5.079  16.768  0.00  0.00    +0.065 HD
ATOM     28  H   UNL     1       5.752   7.855  17.770  0.00  0.00    +0.032 HD
ATOM     29  H   UNL     1       6.612   7.464  16.250  0.00  0.00    +0.032 HD
ATOM     30  H   UNL     1       8.716   7.060  17.491  0.00  0.00    +0.056 HD
ATOM     31  H   UNL     1       7.920   7.823  18.904  0.00  0.00    +0.056 HD
ENDBRANCH  17  23
BRANCH  19  32
ATOM     32  C   UNL     1       2.922   1.958  18.339  0.00  0.00    +0.434 C 
ATOM     33  F   UNL     1       1.991   1.512  19.229  0.00  0.00    -0.164 F 
ATOM     34  F   UNL     1       3.977   1.099  18.444  0.00  0.00    -0.164 F 
ATOM     35  F   UNL     1       2.389   1.741  17.102  0.00  0.00    -0.164 F 
ENDBRANCH  19  32
ENDBRANCH  12  15
ENDBRANCH   5  11
BRANCH   1  36
ATOM     36  C   UNL     1      -0.845  11.582  18.500  0.00  0.00    -0.012 C 
ATOM     37  H   UNL     1      -0.402  11.320  17.529  0.00  0.00    +0.035 HD
BRANCH  36  38
ATOM     38  C   UNL     1      -0.569  13.074  18.725  0.00  0.00    -0.058 C 
ATOM     39  H   UNL     1      -0.276  13.562  17.789  0.00  0.00    +0.024 HD
ATOM     40  H   UNL     1       0.237  13.235  19.450  0.00  0.00    +0.024 HD
ATOM     41  H   UNL     1      -1.461  13.588  19.098  0.00  0.00    +0.024 HD
ENDBRANCH  36  38
BRANCH  36  42
ATOM     42  C   UNL     1      -2.355  11.266  18.447  0.00  0.00    +0.014 C 
ATOM     43  H   UNL     1      -2.941  12.155  18.711  0.00  0.00    +0.035 HD
ATOM     44  H   UNL     1      -2.609  10.505  19.195  0.00  0.00    +0.035 HD
BRANCH  42  45
ATOM     45  C   UNL     1      -2.785  10.791  17.100  0.00  0.00    +0.134 A 
ATOM     46  N   UNL     1      -2.098  10.010  16.292  0.00  0.00    -0.135 NA
ATOM     47  N   UNL     1      -2.844   9.805  15.156  0.00  0.00    -0.138 NA
ATOM     48  C   UNL     1      -3.966  10.470  15.292  0.00  0.00    +0.120 A 
ATOM     49  N   UNL     1      -3.974  11.105  16.495  0.00  0.00    -0.320 N 
ATOM     50  H   UNL     1      -4.770  10.517  14.571  0.00  0.00    +0.105 HD
BRANCH  49  51
ATOM     51  C   UNL     1      -5.028  11.937  17.009  0.00  0.00    +0.014 C 
ATOM     52  H   UNL     1      -4.751  12.983  16.854  0.00  0.00    +0.046 HD
ATOM     53  H   UNL     1      -5.959  11.720  16.477  0.00  0.00    +0.046 HD
ATOM     54  H   UNL     1      -5.157  11.726  18.072  0.00  0.00    +0.046 HD
ENDBRANCH  49  51
ENDBRANCH  42  45
ENDBRANCH  36  42
ENDBRANCH   1  36
TORSDOF 9
ENDMDL
MODEL 5
REMARK VINA RESULT:    -8.251      2.541      3.430
REMARK INTER + INTRA:         -13.018
REMARK INTER:                 -12.299
REMARK INTRA:                  -0.719
REMARK UNBOUND:                -0.909
REMARK  Name = 
REMARK  9 active torsions:
REMARK  status: ('A' for Active; 'I' for Inactive)
REMARK    1  A    between atoms: C_1  and  C_2
REMARK    2  A    between atoms: C_2  and  C_3
REMARK    3  A    between atoms: C_2  and  C_10
REMARK    4  A    between atoms: C_3  and  C_4
REMARK    5  A    between atoms: N_8  and  C_9
REMARK    6  A    between atoms: C_14  and  N_15
REMARK    7  A    between atoms: C_16  and  C_18
REMARK    8  A    between atoms: C_20  and  C_21
REMARK    9  A    between atoms: C_26  and  C_27
REMARK                            x       y       z     vdW  Elec       q    Type
REMARK                         _______ _______ _______ _____ _____    ______ ____
ROOT
ATOM      1  C   UNL     1      -0.231  10.688  19.557  0.00  0.00    -0.042 A 
ATOM      2  C   UNL     1      -0.417  10.888  20.931  0.00  0.00    -0.058 A 
ATOM      3  C   UNL     1       0.216  10.059  21.856  0.00  0.00    -0.060 A 
ATOM      4  C   UNL     1       1.043   9.019  21.424  0.00  0.00    -0.040 A 
ATOM      5  C   UNL     1       1.247   8.803  20.063  0.00  0.00    +0.034 A 
ATOM      6  C   UNL     1       0.608   9.642  19.138  0.00  0.00    -0.037 A 
ATOM      7  H   UNL     1      -1.051  11.693  21.297  0.00  0.00    +0.062 HD
ATOM      8  H   UNL     1       0.069  10.221  22.922  0.00  0.00    +0.062 HD
ATOM      9  H   UNL     1       1.518   8.400  22.178  0.00  0.00    +0.064 HD
ATOM     10  H   UNL     1       0.767   9.484  18.074  0.00  0.00    +0.064 HD
ENDROOT
BRANCH   5  11
ATOM     11  N   UNL     1       2.066   7.785  19.547  0.00  0.00    -0.280 N 
ATOM     12  C   UNL     1       2.742   7.753  18.342  0.00  0.00    +0.267 C 
ATOM     13  O   UNL     1       2.765   8.620  17.477  0.00  0.00    -0.268 OA
ATOM     14  H   UNL     1       2.189   6.948  20.114  0.00  0.00    +0.155 HD
BRANCH  12  15
ATOM     15  C   UNL     1       3.516   6.482  18.143  0.00  0.00    +0.127 A 
ATOM     16  C   UNL     1       2.963   5.263  18.519  0.00  0.00    -0.026 A 
ATOM     17  C   UNL     1       3.685   4.075  18.330  0.00  0.00    -0.015 A 
ATOM     18  C   UNL     1       4.963   4.217  17.756  0.00  0.00    -0.026 A 
ATOM     19  C   UNL     1       5.467   5.473  17.397  0.00  0.00    +0.145 A 
ATOM     20  N   UNL     1       4.750   6.614  17.586  0.00  0.00    -0.238 NA
ATOM     21  H   UNL     1       1.970   5.234  18.962  0.00  0.00    +0.064 HD
ATOM     22  H   UNL     1       5.570   3.327  17.590  0.00  0.00    +0.064 HD
BRANCH  17  23
ATOM     23  C   UNL     1       3.094   2.668  18.748  0.00  0.00    +0.086 C 
ATOM     24  C   UNL     1       2.128   2.601  19.944  0.00  0.00    +0.001 C 
ATOM     25  C   UNL     1       1.238   1.794  19.006  0.00  0.00    +0.051 C 
ATOM     26  O   UNL     1       2.047   2.164  17.864  0.00  0.00    -0.372 OA
ATOM     27  H   UNL     1       3.893   1.916  18.815  0.00  0.00    +0.065 HD
ATOM     28  H   UNL     1       1.699   3.557  20.255  0.00  0.00    +0.032 HD
ATOM     29  H   UNL     1       2.502   2.059  20.817  0.00  0.00    +0.032 HD
ATOM     30  H   UNL     1       1.245   0.711  19.162  0.00  0.00    +0.056 HD
ATOM     31  H   UNL     1       0.210   2.154  18.912  0.00  0.00    +0.056 HD
ENDBRANCH  17  23
BRANCH  19  32
ATOM     32  C   UNL     1       6.857   5.552  16.775  0.00  0.00    +0.434 C 
ATOM     33  F   UNL     1       7.677   4.522  17.134  0.00  0.00    -0.164 F 
ATOM     34  F   UNL     1       7.522   6.692  17.122  0.00  0.00    -0.164 F 
ATOM     35  F   UNL     1       6.824   5.542  15.412  0.00  0.00    -0.164 F 
ENDBRANCH  19  32
ENDBRANCH  12  15
ENDBRANCH   5  11
BRANCH   1  36
ATOM     36  C   UNL     1      -0.917  11.572  18.523  0.00  0.00    -0.012 C 
ATOM     37  H   UNL     1      -0.452  11.374  17.547  0.00  0.00    +0.035 HD
BRANCH  36  38
ATOM     38  C   UNL     1      -0.676  13.055  18.836  0.00  0.00    -0.058 C 
ATOM     39  H   UNL     1      -1.158  13.694  18.088  0.00  0.00    +0.024 HD
ATOM     40  H   UNL     1       0.392  13.301  18.845  0.00  0.00    +0.024 HD
ATOM     41  H   UNL     1      -1.088  13.324  19.813  0.00  0.00    +0.024 HD
ENDBRANCH  36  38
BRANCH  36  42
ATOM     42  C   UNL     1      -2.418  11.230  18.425  0.00  0.00    +0.014 C 
ATOM     43  H   UNL     1      -3.028  12.104  18.688  0.00  0.00    +0.035 HD
ATOM     44  H   UNL     1      -2.679  10.452  19.154  0.00  0.00    +0.035 HD
BRANCH  42  45
ATOM     45  C   UNL     1      -2.805  10.770  17.060  0.00  0.00    +0.134 A 
ATOM     46  N   UNL     1      -2.087  10.006  16.262  0.00  0.00    -0.135 NA
ATOM     47  N   UNL     1      -2.798   9.810  15.102  0.00  0.00    -0.138 NA
ATOM     48  C   UNL     1      -3.930  10.462  15.214  0.00  0.00    +0.120 A 
ATOM     49  N   UNL     1      -3.979  11.081  16.424  0.00  0.00    -0.320 N 
ATOM     50  H   UNL     1      -4.712  10.512  14.470  0.00  0.00    +0.105 HD
BRANCH  49  51
ATOM     51  C   UNL     1      -5.055  11.897  16.918  0.00  0.00    +0.014 C 
ATOM     52  H   UNL     1      -5.446  12.493  16.089  0.00  0.00    +0.046 HD
ATOM     53  H   UNL     1      -5.846  11.258  17.318  0.00  0.00    +0.046 HD
ATOM     54  H   UNL     1      -4.672  12.544  17.710  0.00  0.00    +0.046 HD
ENDBRANCH  49  51
ENDBRANCH  42  45
ENDBRANCH  36  42
ENDBRANCH   1  36
TORSDOF 9
ENDMDL
MODEL 6
REMARK VINA RESULT:    -8.146      2.833      3.888
REMARK INTER + INTRA:         -12.865
REMARK INTER:                 -11.897
REMARK INTRA:                  -0.968
REMARK UNBOUND:                -0.909
REMARK  Name = 
REMARK  9 active torsions:
REMARK  status: ('A' for Active; 'I' for Inactive)
REMARK    1  A    between atoms: C_1  and  C_2
REMARK    2  A    between atoms: C_2  and  C_3
REMARK    3  A    between atoms: C_2  and  C_10
REMARK    4  A    between atoms: C_3  and  C_4
REMARK    5  A    between atoms: N_8  and  C_9
REMARK    6  A    between atoms: C_14  and  N_15
REMARK    7  A    between atoms: C_16  and  C_18
REMARK    8  A    between atoms: C_20  and  C_21
REMARK    9  A    between atoms: C_26  and  C_27
REMARK                            x       y       z     vdW  Elec       q    Type
REMARK                         _______ _______ _______ _____ _____    ______ ____
ROOT
ATOM      1  C   UNL     1      -0.432  11.898  18.539  0.00  0.00    -0.042 A 
ATOM      2  C   UNL     1       0.401  13.018  18.416  0.00  0.00    -0.058 A 
ATOM      3  C   UNL     1       1.773  12.860  18.232  0.00  0.00    -0.060 A 
ATOM      4  C   UNL     1       2.335  11.582  18.168  0.00  0.00    -0.040 A 
ATOM      5  C   UNL     1       1.528  10.453  18.283  0.00  0.00    +0.034 A 
ATOM      6  C   UNL     1       0.147  10.619  18.467  0.00  0.00    -0.037 A 
ATOM      7  H   UNL     1      -0.010  14.025  18.457  0.00  0.00    +0.062 HD
ATOM      8  H   UNL     1       2.414  13.734  18.135  0.00  0.00    +0.062 HD
ATOM      9  H   UNL     1       3.408  11.505  18.021  0.00  0.00    +0.064 HD
ATOM     10  H   UNL     1      -0.491   9.743  18.552  0.00  0.00    +0.064 HD
ENDROOT
BRANCH   5  11
ATOM     11  N   UNL     1       2.013   9.135  18.225  0.00  0.00    -0.280 N 
ATOM     12  C   UNL     1       2.035   8.182  19.225  0.00  0.00    +0.267 C 
ATOM     13  O   UNL     1       1.624   8.297  20.373  0.00  0.00    -0.268 OA
ATOM     14  H   UNL     1       2.412   8.820  17.343  0.00  0.00    +0.155 HD
BRANCH  12  15
ATOM     15  C   UNL     1       2.641   6.883  18.777  0.00  0.00    +0.127 A 
ATOM     16  C   UNL     1       2.274   5.694  19.395  0.00  0.00    -0.026 A 
ATOM     17  C   UNL     1       2.838   4.480  18.974  0.00  0.00    -0.015 A 
ATOM     18  C   UNL     1       3.770   4.567  17.922  0.00  0.00    -0.026 A 
ATOM     19  C   UNL     1       4.101   5.796  17.338  0.00  0.00    +0.145 A 
ATOM     20  N   UNL     1       3.540   6.963  17.759  0.00  0.00    -0.238 NA
ATOM     21  H   UNL     1       1.549   5.707  20.205  0.00  0.00    +0.064 HD
ATOM     22  H   UNL     1       4.243   3.655  17.557  0.00  0.00    +0.064 HD
BRANCH  17  23
ATOM     23  C   UNL     1       2.450   3.104  19.653  0.00  0.00    +0.086 C 
ATOM     24  C   UNL     1       2.995   2.796  21.057  0.00  0.00    +0.001 C 
ATOM     25  C   UNL     1       1.551   2.447  21.394  0.00  0.00    +0.051 C 
ATOM     26  O   UNL     1       1.083   3.043  20.160  0.00  0.00    -0.372 OA
ATOM     27  H   UNL     1       2.605   2.269  18.954  0.00  0.00    +0.065 HD
ATOM     28  H   UNL     1       3.387   3.656  21.608  0.00  0.00    +0.032 HD
ATOM     29  H   UNL     1       3.703   1.965  21.112  0.00  0.00    +0.032 HD
ATOM     30  H   UNL     1       1.319   1.378  21.430  0.00  0.00    +0.056 HD
ATOM     31  H   UNL     1       1.140   2.951  22.273  0.00  0.00    +0.056 HD
ENDBRANCH  17  23
BRANCH  19  32
ATOM     32  C   UNL     1       5.115   5.815  16.200  0.00  0.00    +0.434 C 
ATOM     33  F   UNL     1       4.906   6.815  15.297  0.00  0.00    -0.164 F 
ATOM     34  F   UNL     1       5.114   4.658  15.478  0.00  0.00    -0.164 F 
ATOM     35  F   UNL     1       6.395   5.975  16.642  0.00  0.00    -0.164 F 
ENDBRANCH  19  32
ENDBRANCH  12  15
ENDBRANCH   5  11
BRANCH   1  36
ATOM     36  C   UNL     1      -1.933  12.040  18.750  0.00  0.00    -0.012 C 
ATOM     37  H   UNL     1      -2.301  12.814  18.062  0.00  0.00    +0.035 HD
BRANCH  36  38
ATOM     38  C   UNL     1      -2.234  12.533  20.172  0.00  0.00    -0.058 C 
ATOM     39  H   UNL     1      -1.492  13.272  20.493  0.00  0.00    +0.024 HD
ATOM     40  H   UNL     1      -2.222  11.713  20.898  0.00  0.00    +0.024 HD
ATOM     41  H   UNL     1      -3.217  13.010  20.224  0.00  0.00    +0.024 HD
ENDBRANCH  36  38
BRANCH  36  42
ATOM     42  C   UNL     1      -2.656  10.716  18.424  0.00  0.00    +0.014 C 
ATOM     43  H   UNL     1      -3.586  10.636  19.001  0.00  0.00    +0.035 HD
ATOM     44  H   UNL     1      -2.039   9.862  18.729  0.00  0.00    +0.035 HD
BRANCH  42  45
ATOM     45  C   UNL     1      -2.980  10.592  16.973  0.00  0.00    +0.134 A 
ATOM     46  N   UNL     1      -2.260   9.967  16.064  0.00  0.00    -0.135 NA
ATOM     47  N   UNL     1      -2.904  10.080  14.855  0.00  0.00    -0.138 NA
ATOM     48  C   UNL     1      -3.998  10.776  15.050  0.00  0.00    +0.120 A 
ATOM     49  N   UNL     1      -4.088  11.120  16.363  0.00  0.00    -0.320 N 
ATOM     50  H   UNL     1      -4.725  11.044  14.297  0.00  0.00    +0.105 HD
BRANCH  49  51
ATOM     51  C   UNL     1      -5.141  11.889  16.969  0.00  0.00    +0.014 C 
ATOM     52  H   UNL     1      -5.174  12.871  16.491  0.00  0.00    +0.046 HD
ATOM     53  H   UNL     1      -6.097  11.378  16.826  0.00  0.00    +0.046 HD
ATOM     54  H   UNL     1      -4.936  11.987  18.037  0.00  0.00    +0.046 HD
ENDBRANCH  49  51
ENDBRANCH  42  45
ENDBRANCH  36  42
ENDBRANCH   1  36
TORSDOF 9
ENDMDL
MODEL 7
REMARK VINA RESULT:    -8.127      2.990      4.124
REMARK INTER + INTRA:         -12.836
REMARK INTER:                 -12.042
REMARK INTRA:                  -0.795
REMARK UNBOUND:                -0.909
REMARK  Name = 
REMARK  9 active torsions:
REMARK  status: ('A' for Active; 'I' for Inactive)
REMARK    1  A    between atoms: C_1  and  C_2
REMARK    2  A    between atoms: C_2  and  C_3
REMARK    3  A    between atoms: C_2  and  C_10
REMARK    4  A    between atoms: C_3  and  C_4
REMARK    5  A    between atoms: N_8  and  C_9
REMARK    6  A    between atoms: C_14  and  N_15
REMARK    7  A    between atoms: C_16  and  C_18
REMARK    8  A    between atoms: C_20  and  C_21
REMARK    9  A    between atoms: C_26  and  C_27
REMARK                            x       y       z     vdW  Elec       q    Type
REMARK                         _______ _______ _______ _____ _____    ______ ____
ROOT
ATOM      1  C   UNL     1      -0.141  10.820  21.150  0.00  0.00    -0.042 A 
ATOM      2  C   UNL     1      -0.328  11.774  20.141  0.00  0.00    -0.058 A 
ATOM      3  C   UNL     1       0.110  11.524  18.842  0.00  0.00    -0.060 A 
ATOM      4  C   UNL     1       0.742  10.318  18.530  0.00  0.00    -0.040 A 
ATOM      5  C   UNL     1       0.936   9.351  19.513  0.00  0.00    +0.034 A 
ATOM      6  C   UNL     1       0.492   9.609  20.819  0.00  0.00    -0.037 A 
ATOM      7  H   UNL     1      -0.822  12.720  20.355  0.00  0.00    +0.062 HD
ATOM      8  H   UNL     1      -0.041  12.269  18.064  0.00  0.00    +0.062 HD
ATOM      9  H   UNL     1       1.065  10.163  17.506  0.00  0.00    +0.064 HD
ATOM     10  H   UNL     1       0.635   8.857  21.591  0.00  0.00    +0.064 HD
ENDROOT
BRANCH   5  11
ATOM     11  N   UNL     1       1.558   8.112  19.280  0.00  0.00    -0.280 N 
ATOM     12  C   UNL     1       2.476   7.782  18.303  0.00  0.00    +0.267 C 
ATOM     13  O   UNL     1       2.941   8.515  17.439  0.00  0.00    -0.268 OA
ATOM     14  H   UNL     1       1.310   7.339  19.895  0.00  0.00    +0.155 HD
BRANCH  12  15
ATOM     15  C   UNL     1       2.910   6.346  18.374  0.00  0.00    +0.127 A 
ATOM     16  C   UNL     1       3.887   5.870  17.508  0.00  0.00    -0.026 A 
ATOM     17  C   UNL     1       4.295   4.529  17.576  0.00  0.00    -0.015 A 
ATOM     18  C   UNL     1       3.654   3.741  18.552  0.00  0.00    -0.026 A 
ATOM     19  C   UNL     1       2.676   4.278  19.398  0.00  0.00    +0.145 A 
ATOM     20  N   UNL     1       2.296   5.582  19.317  0.00  0.00    -0.238 NA
ATOM     21  H   UNL     1       4.333   6.539  16.776  0.00  0.00    +0.064 HD
ATOM     22  H   UNL     1       3.930   2.691  18.648  0.00  0.00    +0.064 HD
BRANCH  17  23
ATOM     23  C   UNL     1       5.401   3.946  16.606  0.00  0.00    +0.086 C 
ATOM     24  C   UNL     1       5.566   4.577  15.214  0.00  0.00    +0.001 C 
ATOM     25  C   UNL     1       7.048   4.633  15.562  0.00  0.00    +0.051 C 
ATOM     26  O   UNL     1       6.769   4.326  16.950  0.00  0.00    -0.372 OA
ATOM     27  H   UNL     1       5.339   2.850  16.562  0.00  0.00    +0.065 HD
ATOM     28  H   UNL     1       5.100   5.558  15.084  0.00  0.00    +0.032 HD
ATOM     29  H   UNL     1       5.306   3.929  14.373  0.00  0.00    +0.032 HD
ATOM     30  H   UNL     1       7.671   3.859  15.104  0.00  0.00    +0.056 HD
ATOM     31  H   UNL     1       7.519   5.612  15.447  0.00  0.00    +0.056 HD
ENDBRANCH  17  23
BRANCH  19  32
ATOM     32  C   UNL     1       2.028   3.367  20.435  0.00  0.00    +0.434 C 
ATOM     33  F   UNL     1       0.717   3.656  20.674  0.00  0.00    -0.164 F 
ATOM     34  F   UNL     1       2.648   3.431  21.648  0.00  0.00    -0.164 F 
ATOM     35  F   UNL     1       2.058   2.053  20.071  0.00  0.00    -0.164 F 
ENDBRANCH  19  32
ENDBRANCH  12  15
ENDBRANCH   5  11
BRANCH   1  36
ATOM     36  C   UNL     1      -0.601  11.070  22.580  0.00  0.00    -0.012 C 
ATOM     37  H   UNL     1       0.108  11.768  23.047  0.00  0.00    +0.035 HD
BRANCH  36  38
ATOM     38  C   UNL     1      -0.548   9.772  23.397  0.00  0.00    -0.058 C 
ATOM     39  H   UNL     1      -0.612   8.896  22.743  0.00  0.00    +0.024 HD
ATOM     40  H   UNL     1      -1.373   9.710  24.116  0.00  0.00    +0.024 HD
ATOM     41  H   UNL     1       0.389   9.696  23.957  0.00  0.00    +0.024 HD
ENDBRANCH  36  38
BRANCH  36  42
ATOM     42  C   UNL     1      -2.001  11.716  22.596  0.00  0.00    +0.014 C 
ATOM     43  H   UNL     1      -2.736  11.027  23.031  0.00  0.00    +0.035 HD
ATOM     44  H   UNL     1      -2.342  11.910  21.571  0.00  0.00    +0.035 HD
BRANCH  42  45
ATOM     45  C   UNL     1      -2.026  12.992  23.368  0.00  0.00    +0.134 A 
ATOM     46  N   UNL     1      -1.058  13.883  23.433  0.00  0.00    -0.135 NA
ATOM     47  N   UNL     1      -1.476  14.913  24.242  0.00  0.00    -0.138 NA
ATOM     48  C   UNL     1      -2.686  14.626  24.658  0.00  0.00    +0.120 A 
ATOM     49  N   UNL     1      -3.072  13.430  24.137  0.00  0.00    -0.320 N 
ATOM     50  H   UNL     1      -3.295  15.232  25.313  0.00  0.00    +0.105 HD
BRANCH  49  51
ATOM     51  C   UNL     1      -4.331  12.773  24.363  0.00  0.00    +0.014 C 
ATOM     52  H   UNL     1      -4.602  12.895  25.415  0.00  0.00    +0.046 HD
ATOM     53  H   UNL     1      -5.099  13.224  23.730  0.00  0.00    +0.046 HD
ATOM     54  H   UNL     1      -4.226  11.715  24.114  0.00  0.00    +0.046 HD
ENDBRANCH  49  51
ENDBRANCH  42  45
ENDBRANCH  36  42
ENDBRANCH   1  36
TORSDOF 9
ENDMDL
MODEL 8
REMARK VINA RESULT:    -7.947      2.676      3.690
REMARK INTER + INTRA:         -12.572
REMARK INTER:                 -11.888
REMARK INTRA:                  -0.684
REMARK UNBOUND:                -0.909
REMARK  Name = 
REMARK  9 active torsions:
REMARK  status: ('A' for Active; 'I' for Inactive)
REMARK    1  A    between atoms: C_1  and  C_2
REMARK    2  A    between atoms: C_2  and  C_3
REMARK    3  A    between atoms: C_2  and  C_10
REMARK    4  A    between atoms: C_3  and  C_4
REMARK    5  A    between atoms: N_8  and  C_9
REMARK    6  A    between atoms: C_14  and  N_15
REMARK    7  A    between atoms: C_16  and  C_18
REMARK    8  A    between atoms: C_20  and  C_21
REMARK    9  A    between atoms: C_26  and  C_27
REMARK                            x       y       z     vdW  Elec       q    Type
REMARK                         _______ _______ _______ _____ _____    ______ ____
ROOT
ATOM      1  C   UNL     1      -0.428  11.364  20.937  0.00  0.00    -0.042 A 
ATOM      2  C   UNL     1      -0.798  11.225  22.281  0.00  0.00    -0.058 A 
ATOM      3  C   UNL     1      -0.462  10.073  22.989  0.00  0.00    -0.060 A 
ATOM      4  C   UNL     1       0.250   9.043  22.368  0.00  0.00    -0.040 A 
ATOM      5  C   UNL     1       0.634   9.160  21.034  0.00  0.00    +0.034 A 
ATOM      6  C   UNL     1       0.292  10.323  20.327  0.00  0.00    -0.037 A 
ATOM      7  H   UNL     1      -1.348  12.012  22.792  0.00  0.00    +0.062 HD
ATOM      8  H   UNL     1      -0.750   9.972  24.033  0.00  0.00    +0.062 HD
ATOM      9  H   UNL     1       0.493   8.165  22.957  0.00  0.00    +0.064 HD
ATOM     10  H   UNL     1       0.593  10.424  19.287  0.00  0.00    +0.064 HD
ENDROOT
BRANCH   5  11
ATOM     11  N   UNL     1       1.354   8.174  20.338  0.00  0.00    -0.280 N 
ATOM     12  C   UNL     1       1.947   8.261  19.093  0.00  0.00    +0.267 C 
ATOM     13  O   UNL     1       1.968   9.230  18.343  0.00  0.00    -0.268 OA
ATOM     14  H   UNL     1       1.461   7.266  20.786  0.00  0.00    +0.155 HD
BRANCH  12  15
ATOM     15  C   UNL     1       2.627   6.987  18.683  0.00  0.00    +0.127 A 
ATOM     16  C   UNL     1       2.258   5.781  19.266  0.00  0.00    -0.026 A 
ATOM     17  C   UNL     1       2.891   4.589  18.881  0.00  0.00    -0.015 A 
ATOM     18  C   UNL     1       3.892   4.716  17.898  0.00  0.00    -0.026 A 
ATOM     19  C   UNL     1       4.221   5.960  17.345  0.00  0.00    +0.145 A 
ATOM     20  N   UNL     1       3.593   7.104  17.732  0.00  0.00    -0.238 NA
ATOM     21  H   UNL     1       1.478   5.764  20.024  0.00  0.00    +0.064 HD
ATOM     22  H   UNL     1       4.419   3.822  17.563  0.00  0.00    +0.064 HD
BRANCH  17  23
ATOM     23  C   UNL     1       2.502   3.197  19.523  0.00  0.00    +0.086 C 
ATOM     24  C   UNL     1       3.009   2.872  20.938  0.00  0.00    +0.001 C 
ATOM     25  C   UNL     1       1.559   2.496  21.224  0.00  0.00    +0.051 C 
ATOM     26  O   UNL     1       1.121   3.108  19.987  0.00  0.00    -0.372 OA
ATOM     27  H   UNL     1       2.691   2.377  18.815  0.00  0.00    +0.065 HD
ATOM     28  H   UNL     1       3.371   3.727  21.516  0.00  0.00    +0.032 HD
ATOM     29  H   UNL     1       3.727   2.050  21.001  0.00  0.00    +0.032 HD
ATOM     30  H   UNL     1       1.342   1.424  21.234  0.00  0.00    +0.056 HD
ATOM     31  H   UNL     1       1.115   2.978  22.098  0.00  0.00    +0.056 HD
ENDBRANCH  17  23
BRANCH  19  32
ATOM     32  C   UNL     1       5.312   6.021  16.283  0.00  0.00    +0.434 C 
ATOM     33  F   UNL     1       6.455   6.631  16.706  0.00  0.00    -0.164 F 
ATOM     34  F   UNL     1       4.919   6.704  15.168  0.00  0.00    -0.164 F 
ATOM     35  F   UNL     1       5.690   4.785  15.846  0.00  0.00    -0.164 F 
ENDBRANCH  19  32
ENDBRANCH  12  15
ENDBRANCH   5  11
BRANCH   1  36
ATOM     36  C   UNL     1      -0.790  12.608  20.135  0.00  0.00    -0.012 C 
ATOM     37  H   UNL     1      -0.256  12.559  19.176  0.00  0.00    +0.035 HD
BRANCH  36  38
ATOM     38  C   UNL     1      -0.300  13.873  20.851  0.00  0.00    -0.058 C 
ATOM     39  H   UNL     1      -0.481  14.763  20.238  0.00  0.00    +0.024 HD
ATOM     40  H   UNL     1       0.773  13.830  21.065  0.00  0.00    +0.024 HD
ATOM     41  H   UNL     1      -0.825  14.017  21.800  0.00  0.00    +0.024 HD
ENDBRANCH  36  38
BRANCH  36  42
ATOM     42  C   UNL     1      -2.305  12.647  19.846  0.00  0.00    +0.014 C 
ATOM     43  H   UNL     1      -2.655  13.684  19.778  0.00  0.00    +0.035 HD
ATOM     44  H   UNL     1      -2.861  12.196  20.677  0.00  0.00    +0.035 HD
BRANCH  42  45
ATOM     45  C   UNL     1      -2.657  11.939  18.581  0.00  0.00    +0.134 A 
ATOM     46  N   UNL     1      -1.821  11.582  17.627  0.00  0.00    -0.135 NA
ATOM     47  N   UNL     1      -2.540  10.953  16.639  0.00  0.00    -0.138 NA
ATOM     48  C   UNL     1      -3.798  10.945  17.007  0.00  0.00    +0.120 A 
ATOM     49  N   UNL     1      -3.921  11.553  18.217  0.00  0.00    -0.320 N 
ATOM     50  H   UNL     1      -4.623  10.526  16.447  0.00  0.00    +0.105 HD
BRANCH  49  51
ATOM     51  C   UNL     1      -5.143  11.747  18.950  0.00  0.00    +0.014 C 
ATOM     52  H   UNL     1      -5.939  11.986  18.241  0.00  0.00    +0.046 HD
ATOM     53  H   UNL     1      -5.395  10.830  19.490  0.00  0.00    +0.046 HD
ATOM     54  H   UNL     1      -5.002  12.563  19.661  0.00  0.00    +0.046 HD
ENDBRANCH  49  51
ENDBRANCH  42  45
ENDBRANCH  36  42
ENDBRANCH   1  36
TORSDOF 9
ENDMDL
MODEL 9
REMARK VINA RESULT:    -7.901      3.723      5.316
REMARK INTER + INTRA:         -12.505
REMARK INTER:                 -11.733
REMARK INTRA:                  -0.772
REMARK UNBOUND:                -0.909
REMARK  Name = 
REMARK  9 active torsions:
REMARK  status: ('A' for Active; 'I' for Inactive)
REMARK    1  A    between atoms: C_1  and  C_2
REMARK    2  A    between atoms: C_2  and  C_3
REMARK    3  A    between atoms: C_2  and  C_10
REMARK    4  A    between atoms: C_3  and  C_4
REMARK    5  A    between atoms: N_8  and  C_9
REMARK    6  A    between atoms: C_14  and  N_15
REMARK    7  A    between atoms: C_16  and  C_18
REMARK    8  A    between atoms: C_20  and  C_21
REMARK    9  A    between atoms: C_26  and  C_27
REMARK                            x       y       z     vdW  Elec       q    Type
REMARK                         _______ _______ _______ _____ _____    ______ ____
ROOT
ATOM      1  C   UNL     1      -0.151  10.618  21.083  0.00  0.00    -0.042 A 
ATOM      2  C   UNL     1      -0.653  11.354  20.003  0.00  0.00    -0.058 A 
ATOM      3  C   UNL     1      -0.310  11.014  18.696  0.00  0.00    -0.060 A 
ATOM      4  C   UNL     1       0.539   9.932  18.447  0.00  0.00    -0.040 A 
ATOM      5  C   UNL     1       1.049   9.181  19.505  0.00  0.00    +0.034 A 
ATOM      6  C   UNL     1       0.698   9.529  20.818  0.00  0.00    -0.037 A 
ATOM      7  H   UNL     1      -1.321  12.198  20.166  0.00  0.00    +0.062 HD
ATOM      8  H   UNL     1      -0.706  11.588  17.862  0.00  0.00    +0.062 HD
ATOM      9  H   UNL     1       0.779   9.700  17.415  0.00  0.00    +0.064 HD
ATOM     10  H   UNL     1       1.086   8.945  21.648  0.00  0.00    +0.064 HD
ENDROOT
BRANCH   5  11
ATOM     11  N   UNL     1       1.903   8.078  19.340  0.00  0.00    -0.280 N 
ATOM     12  C   UNL     1       2.690   7.756  18.251  0.00  0.00    +0.267 C 
ATOM     13  O   UNL     1       2.804   8.380  17.203  0.00  0.00    -0.268 OA
ATOM     14  H   UNL     1       1.963   7.411  20.107  0.00  0.00    +0.155 HD
BRANCH  12  15
ATOM     15  C   UNL     1       3.467   6.487  18.450  0.00  0.00    +0.127 A 
ATOM     16  C   UNL     1       2.951   5.472  19.246  0.00  0.00    -0.026 A 
ATOM     17  C   UNL     1       3.676   4.284  19.430  0.00  0.00    -0.015 A 
ATOM     18  C   UNL     1       4.919   4.215  18.771  0.00  0.00    -0.026 A 
ATOM     19  C   UNL     1       5.387   5.271  17.981  0.00  0.00    +0.145 A 
ATOM     20  N   UNL     1       4.667   6.414  17.813  0.00  0.00    -0.238 NA
ATOM     21  H   UNL     1       1.984   5.601  19.727  0.00  0.00    +0.064 HD
ATOM     22  H   UNL     1       5.526   3.316  18.882  0.00  0.00    +0.064 HD
BRANCH  17  23
ATOM     23  C   UNL     1       3.125   3.105  20.331  0.00  0.00    +0.086 C 
ATOM     24  C   UNL     1       2.389   3.457  21.634  0.00  0.00    +0.001 C 
ATOM     25  C   UNL     1       1.320   2.495  21.131  0.00  0.00    +0.051 C 
ATOM     26  O   UNL     1       1.922   2.460  19.815  0.00  0.00    -0.372 OA
ATOM     27  H   UNL     1       3.900   2.340  20.483  0.00  0.00    +0.065 HD
ATOM     28  H   UNL     1       2.053   4.495  21.719  0.00  0.00    +0.032 HD
ATOM     29  H   UNL     1       2.897   3.155  22.554  0.00  0.00    +0.032 HD
ATOM     30  H   UNL     1       1.321   1.503  21.594  0.00  0.00    +0.056 HD
ATOM     31  H   UNL     1       0.304   2.897  21.105  0.00  0.00    +0.056 HD
ENDBRANCH  17  23
BRANCH  19  32
ATOM     32  C   UNL     1       6.740   5.125  17.293  0.00  0.00    +0.434 C 
ATOM     33  F   UNL     1       7.428   6.298  17.184  0.00  0.00    -0.164 F 
ATOM     34  F   UNL     1       6.632   4.640  16.022  0.00  0.00    -0.164 F 
ATOM     35  F   UNL     1       7.572   4.266  17.948  0.00  0.00    -0.164 F 
ENDBRANCH  19  32
ENDBRANCH  12  15
ENDBRANCH   5  11
BRANCH   1  36
ATOM     36  C   UNL     1      -0.501  10.973  22.523  0.00  0.00    -0.012 C 
ATOM     37  H   UNL     1       0.216  11.729  22.869  0.00  0.00    +0.035 HD
BRANCH  36  38
ATOM     38  C   UNL     1      -0.333   9.751  23.435  0.00  0.00    -0.058 C 
ATOM     39  H   UNL     1      -0.417   8.821  22.862  0.00  0.00    +0.024 HD
ATOM     40  H   UNL     1      -1.092   9.725  24.225  0.00  0.00    +0.024 HD
ATOM     41  H   UNL     1       0.650   9.752  23.918  0.00  0.00    +0.024 HD
ENDBRANCH  36  38
BRANCH  36  42
ATOM     42  C   UNL     1      -1.920  11.574  22.605  0.00  0.00    +0.014 C 
ATOM     43  H   UNL     1      -2.591  10.900  23.152  0.00  0.00    +0.035 HD
ATOM     44  H   UNL     1      -2.348  11.674  21.599  0.00  0.00    +0.035 HD
BRANCH  42  45
ATOM     45  C   UNL     1      -1.931  12.907  23.275  0.00  0.00    +0.134 A 
ATOM     46  N   UNL     1      -0.968  13.807  23.237  0.00  0.00    -0.135 NA
ATOM     47  N   UNL     1      -1.369  14.894  23.976  0.00  0.00    -0.138 NA
ATOM     48  C   UNL     1      -2.562  14.633  24.454  0.00  0.00    +0.120 A 
ATOM     49  N   UNL     1      -2.955  13.397  24.042  0.00  0.00    -0.320 N 
ATOM     50  H   UNL     1      -3.154  15.285  25.080  0.00  0.00    +0.105 HD
BRANCH  49  51
ATOM     51  C   UNL     1      -4.199  12.752  24.361  0.00  0.00    +0.014 C 
ATOM     52  H   UNL     1      -4.437  12.955  25.408  0.00  0.00    +0.046 HD
ATOM     53  H   UNL     1      -4.992  13.146  23.720  0.00  0.00    +0.046 HD
ATOM     54  H   UNL     1      -4.093  11.678  24.192  0.00  0.00    +0.046 HD
ENDBRANCH  49  51
ENDBRANCH  42  45
ENDBRANCH  36  42
ENDBRANCH   1  36
TORSDOF 9
ENDMDL
MODEL 10
REMARK VINA RESULT:    -7.841      3.604      8.660
REMARK INTER + INTRA:         -12.416
REMARK INTER:                 -11.143
REMARK INTRA:                  -1.274
REMARK UNBOUND:                -0.909
REMARK  Name = 
REMARK  9 active torsions:
REMARK  status: ('A' for Active; 'I' for Inactive)
REMARK    1  A    between atoms: C_1  and  C_2
REMARK    2  A    between atoms: C_2  and  C_3
REMARK    3  A    between atoms: C_2  and  C_10
REMARK    4  A    between atoms: C_3  and  C_4
REMARK    5  A    between atoms: N_8  and  C_9
REMARK    6  A    between atoms: C_14  and  N_15
REMARK    7  A    between atoms: C_16  and  C_18
REMARK    8  A    between atoms: C_20  and  C_21
REMARK    9  A    between atoms: C_26  and  C_27
REMARK                            x       y       z     vdW  Elec       q    Type
REMARK                         _______ _______ _______ _____ _____    ______ ____
ROOT
ATOM      1  C   UNL     1       5.449   4.817  18.883  0.00  0.00    -0.042 A 
ATOM      2  C   UNL     1       4.856   3.548  18.856  0.00  0.00    -0.058 A 
ATOM      3  C   UNL     1       3.492   3.400  19.098  0.00  0.00    -0.060 A 
ATOM      4  C   UNL     1       2.698   4.518  19.370  0.00  0.00    -0.040 A 
ATOM      5  C   UNL     1       3.262   5.791  19.398  0.00  0.00    +0.034 A 
ATOM      6  C   UNL     1       4.636   5.932  19.152  0.00  0.00    -0.037 A 
ATOM      7  H   UNL     1       5.449   2.660  18.642  0.00  0.00    +0.062 HD
ATOM      8  H   UNL     1       3.038   2.412  19.074  0.00  0.00    +0.062 HD
ATOM      9  H   UNL     1       1.640   4.359  19.550  0.00  0.00    +0.064 HD
ATOM     10  H   UNL     1       5.083   6.923  19.166  0.00  0.00    +0.064 HD
ENDROOT
BRANCH   5  11
ATOM     11  N   UNL     1       2.533   6.964  19.658  0.00  0.00    -0.280 N 
ATOM     12  C   UNL     1       2.165   7.961  18.775  0.00  0.00    +0.267 C 
ATOM     13  O   UNL     1       2.399   8.016  17.573  0.00  0.00    -0.268 OA
ATOM     14  H   UNL     1       2.231   7.127  20.616  0.00  0.00    +0.155 HD
BRANCH  12  15
ATOM     15  C   UNL     1       1.390   9.065  19.434  0.00  0.00    +0.127 A 
ATOM     16  C   UNL     1       1.141  10.247  18.749  0.00  0.00    -0.026 A 
ATOM     17  C   UNL     1       0.414  11.278  19.364  0.00  0.00    -0.015 A 
ATOM     18  C   UNL     1      -0.019  11.023  20.679  0.00  0.00    -0.026 A 
ATOM     19  C   UNL     1       0.261   9.810  21.319  0.00  0.00    +0.145 A 
ATOM     20  N   UNL     1       0.966   8.822  20.704  0.00  0.00    -0.238 NA
ATOM     21  H   UNL     1       1.514  10.372  17.734  0.00  0.00    +0.064 HD
ATOM     22  H   UNL     1      -0.587  11.791  21.207  0.00  0.00    +0.064 HD
BRANCH  17  23
ATOM     23  C   UNL     1       0.112  12.641  18.619  0.00  0.00    +0.086 C 
ATOM     24  C   UNL     1      -0.677  13.729  19.367  0.00  0.00    +0.001 C 
ATOM     25  C   UNL     1       0.442  14.661  18.914  0.00  0.00    +0.051 C 
ATOM     26  O   UNL     1       1.260  13.537  18.508  0.00  0.00    -0.372 OA
ATOM     27  H   UNL     1      -0.288  12.453  17.613  0.00  0.00    +0.065 HD
ATOM     28  H   UNL     1      -0.740  13.602  20.451  0.00  0.00    +0.032 HD
ATOM     29  H   UNL     1      -1.666  13.953  18.960  0.00  0.00    +0.032 HD
ATOM     30  H   UNL     1       0.205  15.306  18.063  0.00  0.00    +0.056 HD
ATOM     31  H   UNL     1       0.915  15.244  19.708  0.00  0.00    +0.056 HD
ENDBRANCH  17  23
BRANCH  19  32
ATOM     32  C   UNL     1      -0.244   9.601  22.742  0.00  0.00    +0.434 C 
ATOM     33  F   UNL     1      -0.974  10.647  23.224  0.00  0.00    -0.164 F 
ATOM     34  F   UNL     1       0.771   9.415  23.636  0.00  0.00    -0.164 F 
ATOM     35  F   UNL     1      -1.045   8.503  22.859  0.00  0.00    -0.164 F 
ENDBRANCH  19  32
ENDBRANCH  12  15
ENDBRANCH   5  11
BRANCH   1  36
ATOM     36  C   UNL     1       6.939   5.007  18.632  0.00  0.00    -0.012 C 
ATOM     37  H   UNL     1       7.390   4.013  18.502  0.00  0.00    +0.035 HD
BRANCH  36  38
ATOM     38  C   UNL     1       7.615   5.645  19.852  0.00  0.00    -0.058 C 
ATOM     39  H   UNL     1       8.495   5.068  20.156  0.00  0.00    +0.024 HD
ATOM     40  H   UNL     1       6.938   5.695  20.712  0.00  0.00    +0.024 HD
ATOM     41  H   UNL     1       7.950   6.663  19.631  0.00  0.00    +0.024 HD
ENDBRANCH  36  38
BRANCH  36  42
ATOM     42  C   UNL     1       7.174   5.819  17.341  0.00  0.00    +0.014 C 
ATOM     43  H   UNL     1       8.245   6.006  17.196  0.00  0.00    +0.035 HD
ATOM     44  H   UNL     1       6.704   6.808  17.424  0.00  0.00    +0.035 HD
BRANCH  42  45
ATOM     45  C   UNL     1       6.641   5.126  16.132  0.00  0.00    +0.134 A 
ATOM     46  N   UNL     1       7.060   3.975  15.645  0.00  0.00    -0.135 NA
ATOM     47  N   UNL     1       6.311   3.683  14.530  0.00  0.00    -0.138 NA
ATOM     48  C   UNL     1       5.457   4.663  14.357  0.00  0.00    +0.120 A 
ATOM     49  N   UNL     1       5.628   5.592  15.336  0.00  0.00    -0.320 N 
ATOM     50  H   UNL     1       4.725   4.738  13.565  0.00  0.00    +0.105 HD
BRANCH  49  51
ATOM     51  C   UNL     1       4.885   6.814  15.487  0.00  0.00    +0.014 C 
ATOM     52  H   UNL     1       5.432   7.471  16.167  0.00  0.00    +0.046 HD
ATOM     53  H   UNL     1       4.777   7.299  14.513  0.00  0.00    +0.046 HD
ATOM     54  H   UNL     1       3.897   6.578  15.889  0.00  0.00    +0.046 HD
ENDBRANCH  49  51
ENDBRANCH  42  45
ENDBRANCH  36  42
ENDBRANCH   1  36
TORSDOF 9
ENDMDL
MODEL 11
REMARK VINA RESULT:    -7.833      3.727      9.064
REMARK INTER + INTRA:         -12.406
REMARK INTER:                 -11.443
REMARK INTRA:                  -0.963
REMARK UNBOUND:                -0.909
REMARK  Name = 
REMARK  9 active torsions:
REMARK  status: ('A' for Active; 'I' for Inactive)
REMARK    1  A    between atoms: C_1  and  C_2
REMARK    2  A    between atoms: C_2  and  C_3
REMARK    3  A    between atoms: C_2  and  C_10
REMARK    4  A    between atoms: C_3  and  C_4
REMARK    5  A    between atoms: N_8  and  C_9
REMARK    6  A    between atoms: C_14  and  N_15
REMARK    7  A    between atoms: C_16  and  C_18
REMARK    8  A    between atoms: C_20  and  C_21
REMARK    9  A    between atoms: C_26  and  C_27
REMARK                            x       y       z     vdW  Elec       q    Type
REMARK                         _______ _______ _______ _____ _____    ______ ____
ROOT
ATOM      1  C   UNL     1       4.232   5.160  17.144  0.00  0.00    -0.042 A 
ATOM      2  C   UNL     1       3.651   3.908  17.383  0.00  0.00    -0.058 A 
ATOM      3  C   UNL     1       2.536   3.793  18.210  0.00  0.00    -0.060 A 
ATOM      4  C   UNL     1       1.983   4.927  18.812  0.00  0.00    -0.040 A 
ATOM      5  C   UNL     1       2.539   6.184  18.587  0.00  0.00    +0.034 A 
ATOM      6  C   UNL     1       3.661   6.292  17.752  0.00  0.00    -0.037 A 
ATOM      7  H   UNL     1       4.057   3.009  16.923  0.00  0.00    +0.062 HD
ATOM      8  H   UNL     1       2.089   2.818  18.389  0.00  0.00    +0.062 HD
ATOM      9  H   UNL     1       1.113   4.793  19.447  0.00  0.00    +0.064 HD
ATOM     10  H   UNL     1       4.098   7.271  17.567  0.00  0.00    +0.064 HD
ENDROOT
BRANCH   5  11
ATOM     11  N   UNL     1       2.041   7.371  19.149  0.00  0.00    -0.280 N 
ATOM     12  C   UNL     1       1.811   8.585  18.530  0.00  0.00    +0.267 C 
ATOM     13  O   UNL     1       1.992   8.867  17.352  0.00  0.00    -0.268 OA
ATOM     14  H   UNL     1       1.819   7.364  20.143  0.00  0.00    +0.155 HD
BRANCH  12  15
ATOM     15  C   UNL     1       1.274   9.625  19.471  0.00  0.00    +0.127 A 
ATOM     16  C   UNL     1       1.297  10.967  19.112  0.00  0.00    -0.026 A 
ATOM     17  C   UNL     1       0.792  11.939  19.990  0.00  0.00    -0.015 A 
ATOM     18  C   UNL     1       0.287  11.458  21.214  0.00  0.00    -0.026 A 
ATOM     19  C   UNL     1       0.290  10.092  21.520  0.00  0.00    +0.145 A 
ATOM     20  N   UNL     1       0.782   9.165  20.653  0.00  0.00    -0.238 NA
ATOM     21  H   UNL     1       1.708  11.262  18.150  0.00  0.00    +0.064 HD
ATOM     22  H   UNL     1      -0.115  12.170  21.935  0.00  0.00    +0.064 HD
BRANCH  17  23
ATOM     23  C   UNL     1       0.803  13.478  19.621  0.00  0.00    +0.086 C 
ATOM     24  C   UNL     1      -0.209  13.993  18.584  0.00  0.00    +0.001 C 
ATOM     25  C   UNL     1      -0.518  15.068  19.619  0.00  0.00    +0.051 C 
ATOM     26  O   UNL     1       0.218  14.348  20.637  0.00  0.00    -0.372 OA
ATOM     27  H   UNL     1       1.826  13.819  19.410  0.00  0.00    +0.065 HD
ATOM     28  H   UNL     1      -1.047  13.324  18.372  0.00  0.00    +0.032 HD
ATOM     29  H   UNL     1       0.224  14.355  17.648  0.00  0.00    +0.032 HD
ATOM     30  H   UNL     1      -0.072  16.050  19.429  0.00  0.00    +0.056 HD
ATOM     31  H   UNL     1      -1.573  15.179  19.879  0.00  0.00    +0.056 HD
ENDBRANCH  17  23
BRANCH  19  32
ATOM     32  C   UNL     1      -0.277   9.643  22.861  0.00  0.00    +0.434 C 
ATOM     33  F   UNL     1       0.677   9.381  23.799  0.00  0.00    -0.164 F 
ATOM     34  F   UNL     1      -1.020   8.502  22.760  0.00  0.00    -0.164 F 
ATOM     35  F   UNL     1      -1.102  10.574  23.421  0.00  0.00    -0.164 F 
ENDBRANCH  19  32
ENDBRANCH  12  15
ENDBRANCH   5  11
BRANCH   1  36
ATOM     36  C   UNL     1       5.457   5.315  16.252  0.00  0.00    -0.012 C 
ATOM     37  H   UNL     1       5.463   6.342  15.862  0.00  0.00    +0.035 HD
BRANCH  36  38
ATOM     38  C   UNL     1       5.362   4.381  15.039  0.00  0.00    -0.058 C 
ATOM     39  H   UNL     1       4.359   4.412  14.600  0.00  0.00    +0.024 HD
ATOM     40  H   UNL     1       5.573   3.340  15.309  0.00  0.00    +0.024 HD
ATOM     41  H   UNL     1       6.071   4.674  14.259  0.00  0.00    +0.024 HD
ENDBRANCH  36  38
BRANCH  36  42
ATOM     42  C   UNL     1       6.751   5.095  17.062  0.00  0.00    +0.014 C 
ATOM     43  H   UNL     1       7.496   4.562  16.457  0.00  0.00    +0.035 HD
ATOM     44  H   UNL     1       6.552   4.451  17.928  0.00  0.00    +0.035 HD
BRANCH  42  45
ATOM     45  C   UNL     1       7.348   6.377  17.534  0.00  0.00    +0.134 A 
ATOM     46  N   UNL     1       7.362   7.520  16.878  0.00  0.00    -0.135 NA
ATOM     47  N   UNL     1       8.000   8.455  17.657  0.00  0.00    -0.138 NA
ATOM     48  C   UNL     1       8.369   7.863  18.767  0.00  0.00    +0.120 A 
ATOM     49  N   UNL     1       7.983   6.559  18.735  0.00  0.00    -0.320 N 
ATOM     50  H   UNL     1       8.898   8.323  19.589  0.00  0.00    +0.105 HD
BRANCH  49  51
ATOM     51  C   UNL     1       8.208   5.581  19.765  0.00  0.00    +0.014 C 
ATOM     52  H   UNL     1       8.851   4.795  19.362  0.00  0.00    +0.046 HD
ATOM     53  H   UNL     1       8.698   6.055  20.620  0.00  0.00    +0.046 HD
ATOM     54  H   UNL     1       7.246   5.170  20.077  0.00  0.00    +0.046 HD
ENDBRANCH  49  51
ENDBRANCH  42  45
ENDBRANCH  36  42
ENDBRANCH   1  36
TORSDOF 9
ENDMDL
MODEL 12
REMARK VINA RESULT:    -7.827      2.022      3.009
REMARK INTER + INTRA:         -12.396
REMARK INTER:                 -11.274
REMARK INTRA:                  -1.122
REMARK UNBOUND:                -0.909
REMARK  Name = 
REMARK  9 active torsions:
REMARK  status: ('A' for Active; 'I' for Inactive)
REMARK    1  A    between atoms: C_1  and  C_2
REMARK    2  A    between atoms: C_2  and  C_3
REMARK    3  A    between atoms: C_2  and  C_10
REMARK    4  A    between atoms: C_3  and  C_4
REMARK    5  A    between atoms: N_8  and  C_9
REMARK    6  A    between atoms: C_14  and  N_15
REMARK    7  A    between atoms: C_16  and  C_18
REMARK    8  A    between atoms: C_20  and  C_21
REMARK    9  A    between atoms: C_26  and  C_27
REMARK                            x       y       z     vdW  Elec       q    Type
REMARK                         _______ _______ _______ _____ _____    ______ ____
ROOT
ATOM      1  C   UNL     1      -0.671  10.820  19.877  0.00  0.00    -0.042 A 
ATOM      2  C   UNL     1      -0.486  11.307  21.177  0.00  0.00    -0.058 A 
ATOM      3  C   UNL     1       0.335  10.627  22.075  0.00  0.00    -0.060 A 
ATOM      4  C   UNL     1       0.983   9.451  21.689  0.00  0.00    -0.040 A 
ATOM      5  C   UNL     1       0.819   8.948  20.400  0.00  0.00    +0.034 A 
ATOM      6  C   UNL     1      -0.007   9.638  19.501  0.00  0.00    -0.037 A 
ATOM      7  H   UNL     1      -0.974  12.223  21.503  0.00  0.00    +0.062 HD
ATOM      8  H   UNL     1       0.476  11.012  23.083  0.00  0.00    +0.062 HD
ATOM      9  H   UNL     1       1.614   8.955  22.419  0.00  0.00    +0.064 HD
ATOM     10  H   UNL     1      -0.136   9.256  18.491  0.00  0.00    +0.064 HD
ENDROOT
BRANCH   5  11
ATOM     11  N   UNL     1       1.439   7.777  19.933  0.00  0.00    -0.280 N 
ATOM     12  C   UNL     1       2.304   7.630  18.866  0.00  0.00    +0.267 C 
ATOM     13  O   UNL     1       2.713   8.504  18.111  0.00  0.00    -0.268 OA
ATOM     14  H   UNL     1       1.234   6.909  20.424  0.00  0.00    +0.155 HD
BRANCH  12  15
ATOM     15  C   UNL     1       2.756   6.210  18.676  0.00  0.00    +0.127 A 
ATOM     16  C   UNL     1       3.694   5.903  17.698  0.00  0.00    -0.026 A 
ATOM     17  C   UNL     1       4.119   4.577  17.522  0.00  0.00    -0.015 A 
ATOM     18  C   UNL     1       3.534   3.626  18.381  0.00  0.00    -0.026 A 
ATOM     19  C   UNL     1       2.594   3.996  19.350  0.00  0.00    +0.145 A 
ATOM     20  N   UNL     1       2.197   5.288  19.506  0.00  0.00    -0.238 NA
ATOM     21  H   UNL     1       4.096   6.693  17.068  0.00  0.00    +0.064 HD
ATOM     22  H   UNL     1       3.825   2.579  18.287  0.00  0.00    +0.064 HD
BRANCH  17  23
ATOM     23  C   UNL     1       5.182   4.184  16.418  0.00  0.00    +0.086 C 
ATOM     24  C   UNL     1       5.396   5.137  15.230  0.00  0.00    +0.001 C 
ATOM     25  C   UNL     1       6.877   4.995  15.557  0.00  0.00    +0.051 C 
ATOM     26  O   UNL     1       6.572   4.364  16.825  0.00  0.00    -0.372 OA
ATOM     27  H   UNL     1       5.039   3.142  16.096  0.00  0.00    +0.065 HD
ATOM     28  H   UNL     1       5.004   6.149  15.363  0.00  0.00    +0.032 HD
ATOM     29  H   UNL     1       5.091   4.746  14.256  0.00  0.00    +0.032 HD
ATOM     30  H   UNL     1       7.443   4.321  14.906  0.00  0.00    +0.056 HD
ATOM     31  H   UNL     1       7.420   5.934  15.689  0.00  0.00    +0.056 HD
ENDBRANCH  17  23
BRANCH  19  32
ATOM     32  C   UNL     1       2.006   2.914  20.249  0.00  0.00    +0.434 C 
ATOM     33  F   UNL     1       1.692   1.764  19.588  0.00  0.00    -0.164 F 
ATOM     34  F   UNL     1       0.856   3.313  20.865  0.00  0.00    -0.164 F 
ATOM     35  F   UNL     1       2.855   2.546  21.251  0.00  0.00    -0.164 F 
ENDBRANCH  19  32
ENDBRANCH  12  15
ENDBRANCH   5  11
BRANCH   1  36
ATOM     36  C   UNL     1      -1.568  11.536  18.876  0.00  0.00    -0.012 C 
ATOM     37  H   UNL     1      -2.203  12.239  19.434  0.00  0.00    +0.035 HD
BRANCH  36  38
ATOM     38  C   UNL     1      -2.510  10.540  18.187  0.00  0.00    -0.058 C 
ATOM     39  H   UNL     1      -2.799   9.737  18.874  0.00  0.00    +0.024 HD
ATOM     40  H   UNL     1      -2.041  10.076  17.312  0.00  0.00    +0.024 HD
ATOM     41  H   UNL     1      -3.428  11.032  17.851  0.00  0.00    +0.024 HD
ENDBRANCH  36  38
BRANCH  36  42
ATOM     42  C   UNL     1      -0.724  12.341  17.866  0.00  0.00    +0.014 C 
ATOM     43  H   UNL     1      -1.372  12.816  17.119  0.00  0.00    +0.035 HD
ATOM     44  H   UNL     1      -0.061  11.669  17.306  0.00  0.00    +0.035 HD
BRANCH  42  45
ATOM     45  C   UNL     1       0.096  13.396  18.529  0.00  0.00    +0.134 A 
ATOM     46  N   UNL     1      -0.355  14.513  19.064  0.00  0.00    -0.135 NA
ATOM     47  N   UNL     1       0.717  15.208  19.572  0.00  0.00    -0.138 NA
ATOM     48  C   UNL     1       1.797  14.505  19.330  0.00  0.00    +0.120 A 
ATOM     49  N   UNL     1       1.458  13.362  18.676  0.00  0.00    -0.320 N 
ATOM     50  H   UNL     1       2.808  14.778  19.599  0.00  0.00    +0.105 HD
BRANCH  49  51
ATOM     51  C   UNL     1       2.363  12.336  18.234  0.00  0.00    +0.014 C 
ATOM     52  H   UNL     1       2.470  12.412  17.149  0.00  0.00    +0.046 HD
ATOM     53  H   UNL     1       3.337  12.477  18.710  0.00  0.00    +0.046 HD
ATOM     54  H   UNL     1       1.956  11.363  18.514  0.00  0.00    +0.046 HD
ENDBRANCH  49  51
ENDBRANCH  42  45
ENDBRANCH  36  42
ENDBRANCH   1  36
TORSDOF 9
ENDMDL
MODEL 13
REMARK VINA RESULT:    -7.821      2.788      4.092
REMARK INTER + INTRA:         -12.388
REMARK INTER:                 -11.247
REMARK INTRA:                  -1.141
REMARK UNBOUND:                -0.909
REMARK  Name = 
REMARK  9 active torsions:
REMARK  status: ('A' for Active; 'I' for Inactive)
REMARK    1  A    between atoms: C_1  and  C_2
REMARK    2  A    between atoms: C_2  and  C_3
REMARK    3  A    between atoms: C_2  and  C_10
REMARK    4  A    between atoms: C_3  and  C_4
REMARK    5  A    between atoms: N_8  and  C_9
REMARK    6  A    between atoms: C_14  and  N_15
REMARK    7  A    between atoms: C_16  and  C_18
REMARK    8  A    between atoms: C_20  and  C_21
REMARK    9  A    between atoms: C_26  and  C_27
REMARK                            x       y       z     vdW  Elec       q    Type
REMARK                         _______ _______ _______ _____ _____    ______ ____
ROOT
ATOM      1  C   UNL     1       0.650  12.057  18.778  0.00  0.00    -0.042 A 
ATOM      2  C   UNL     1      -0.718  12.127  18.486  0.00  0.00    -0.058 A 
ATOM      3  C   UNL     1      -1.396  11.007  18.008  0.00  0.00    -0.060 A 
ATOM      4  C   UNL     1      -0.719   9.800  17.815  0.00  0.00    -0.040 A 
ATOM      5  C   UNL     1       0.641   9.703  18.102  0.00  0.00    +0.034 A 
ATOM      6  C   UNL     1       1.317  10.834  18.584  0.00  0.00    -0.037 A 
ATOM      7  H   UNL     1      -1.272  13.052  18.631  0.00  0.00    +0.062 HD
ATOM      8  H   UNL     1      -2.459  11.068  17.785  0.00  0.00    +0.062 HD
ATOM      9  H   UNL     1      -1.286   8.953  17.443  0.00  0.00    +0.064 HD
ATOM     10  H   UNL     1       2.376  10.765  18.816  0.00  0.00    +0.064 HD
ENDROOT
BRANCH   5  11
ATOM     11  N   UNL     1       1.392   8.527  17.941  0.00  0.00    -0.280 N 
ATOM     12  C   UNL     1       1.991   7.749  18.913  0.00  0.00    +0.267 C 
ATOM     13  O   UNL     1       1.980   7.931  20.124  0.00  0.00    -0.268 OA
ATOM     14  H   UNL     1       1.533   8.186  16.992  0.00  0.00    +0.155 HD
BRANCH  12  15
ATOM     15  C   UNL     1       2.716   6.563  18.344  0.00  0.00    +0.127 A 
ATOM     16  C   UNL     1       3.890   6.744  17.624  0.00  0.00    -0.026 A 
ATOM     17  C   UNL     1       4.569   5.635  17.095  0.00  0.00    -0.015 A 
ATOM     18  C   UNL     1       3.981   4.380  17.343  0.00  0.00    -0.026 A 
ATOM     19  C   UNL     1       2.795   4.260  18.077  0.00  0.00    +0.145 A 
ATOM     20  N   UNL     1       2.153   5.348  18.584  0.00  0.00    -0.238 NA
ATOM     21  H   UNL     1       4.280   7.747  17.470  0.00  0.00    +0.064 HD
ATOM     22  H   UNL     1       4.464   3.484  16.952  0.00  0.00    +0.064 HD
BRANCH  17  23
ATOM     23  C   UNL     1       5.906   5.798  16.266  0.00  0.00    +0.086 C 
ATOM     24  C   UNL     1       6.983   4.706  16.383  0.00  0.00    +0.001 C 
ATOM     25  C   UNL     1       6.984   4.733  14.859  0.00  0.00    +0.051 C 
ATOM     26  O   UNL     1       5.771   5.524  14.838  0.00  0.00    -0.372 OA
ATOM     27  H   UNL     1       6.322   6.807  16.394  0.00  0.00    +0.065 HD
ATOM     28  H   UNL     1       6.646   3.758  16.813  0.00  0.00    +0.032 HD
ATOM     29  H   UNL     1       7.916   5.018  16.858  0.00  0.00    +0.032 HD
ATOM     30  H   UNL     1       7.816   5.272  14.396  0.00  0.00    +0.056 HD
ATOM     31  H   UNL     1       6.847   3.763  14.374  0.00  0.00    +0.056 HD
ENDBRANCH  17  23
BRANCH  19  32
ATOM     32  C   UNL     1       2.218   2.868  18.311  0.00  0.00    +0.434 C 
ATOM     33  F   UNL     1       2.753   2.227  19.389  0.00  0.00    -0.164 F 
ATOM     34  F   UNL     1       2.415   2.035  17.249  0.00  0.00    -0.164 F 
ATOM     35  F   UNL     1       0.870   2.888  18.522  0.00  0.00    -0.164 F 
ENDBRANCH  19  32
ENDBRANCH  12  15
ENDBRANCH   5  11
BRANCH   1  36
ATOM     36  C   UNL     1       1.419  13.266  19.293  0.00  0.00    -0.012 C 
ATOM     37  H   UNL     1       0.789  14.155  19.149  0.00  0.00    +0.035 HD
BRANCH  36  38
ATOM     38  C   UNL     1       2.693  13.487  18.466  0.00  0.00    -0.058 C 
ATOM     39  H   UNL     1       2.969  12.576  17.924  0.00  0.00    +0.024 HD
ATOM     40  H   UNL     1       3.544  13.769  19.097  0.00  0.00    +0.024 HD
ATOM     41  H   UNL     1       2.549  14.280  17.726  0.00  0.00    +0.024 HD
ENDBRANCH  36  38
BRANCH  36  42
ATOM     42  C   UNL     1       1.717  13.121  20.800  0.00  0.00    +0.014 C 
ATOM     43  H   UNL     1       2.572  13.747  21.084  0.00  0.00    +0.035 HD
ATOM     44  H   UNL     1       2.010  12.089  21.031  0.00  0.00    +0.035 HD
BRANCH  42  45
ATOM     45  C   UNL     1       0.547  13.497  21.646  0.00  0.00    +0.134 A 
ATOM     46  N   UNL     1       0.199  14.718  21.998  0.00  0.00    -0.135 NA
ATOM     47  N   UNL     1      -0.934  14.635  22.772  0.00  0.00    -0.138 NA
ATOM     48  C   UNL     1      -1.249  13.367  22.881  0.00  0.00    +0.120 A 
ATOM     49  N   UNL     1      -0.348  12.615  22.193  0.00  0.00    -0.320 N 
ATOM     50  H   UNL     1      -2.089  12.964  23.429  0.00  0.00    +0.105 HD
BRANCH  49  51
ATOM     51  C   UNL     1      -0.350  11.182  22.078  0.00  0.00    +0.014 C 
ATOM     52  H   UNL     1      -0.969  10.770  22.879  0.00  0.00    +0.046 HD
ATOM     53  H   UNL     1      -0.765  10.893  21.108  0.00  0.00    +0.046 HD
ATOM     54  H   UNL     1       0.677  10.820  22.159  0.00  0.00    +0.046 HD
ENDBRANCH  49  51
ENDBRANCH  42  45
ENDBRANCH  36  42
ENDBRANCH   1  36
TORSDOF 9
ENDMDL
MODEL 14
REMARK VINA RESULT:    -7.752      3.351      9.035
REMARK INTER + INTRA:         -12.286
REMARK INTER:                 -11.673
REMARK INTRA:                  -0.614
REMARK UNBOUND:                -0.909
REMARK  Name = 
REMARK  9 active torsions:
REMARK  status: ('A' for Active; 'I' for Inactive)
REMARK    1  A    between atoms: C_1  and  C_2
REMARK    2  A    between atoms: C_2  and  C_3
REMARK    3  A    between atoms: C_2  and  C_10
REMARK    4  A    between atoms: C_3  and  C_4
REMARK    5  A    between atoms: N_8  and  C_9
REMARK    6  A    between atoms: C_14  and  N_15
REMARK    7  A    between atoms: C_16  and  C_18
REMARK    8  A    between atoms: C_20  and  C_21
REMARK    9  A    between atoms: C_26  and  C_27
REMARK                            x       y       z     vdW  Elec       q    Type
REMARK                         _______ _______ _______ _____ _____    ______ ____
ROOT
ATOM      1  C   UNL     1       4.607   4.608  16.823  0.00  0.00    -0.042 A 
ATOM      2  C   UNL     1       4.175   3.294  17.043  0.00  0.00    -0.058 A 
ATOM      3  C   UNL     1       3.001   3.047  17.752  0.00  0.00    -0.060 A 
ATOM      4  C   UNL     1       2.240   4.108  18.252  0.00  0.00    -0.040 A 
ATOM      5  C   UNL     1       2.647   5.424  18.042  0.00  0.00    +0.034 A 
ATOM      6  C   UNL     1       3.829   5.665  17.326  0.00  0.00    -0.037 A 
ATOM      7  H   UNL     1       4.744   2.449  16.661  0.00  0.00    +0.062 HD
ATOM      8  H   UNL     1       2.670   2.024  17.918  0.00  0.00    +0.062 HD
ATOM      9  H   UNL     1       1.332   3.871  18.796  0.00  0.00    +0.064 HD
ATOM     10  H   UNL     1       4.150   6.689  17.153  0.00  0.00    +0.064 HD
ENDROOT
BRANCH   5  11
ATOM     11  N   UNL     1       1.938   6.544  18.506  0.00  0.00    -0.280 N 
ATOM     12  C   UNL     1       2.244   7.882  18.345  0.00  0.00    +0.267 C 
ATOM     13  O   UNL     1       3.203   8.361  17.753  0.00  0.00    -0.268 OA
ATOM     14  H   UNL     1       1.087   6.375  19.039  0.00  0.00    +0.155 HD
BRANCH  12  15
ATOM     15  C   UNL     1       1.239   8.790  18.993  0.00  0.00    +0.127 A 
ATOM     16  C   UNL     1       0.415   9.589  18.210  0.00  0.00    -0.026 A 
ATOM     17  C   UNL     1      -0.527  10.436  18.815  0.00  0.00    -0.015 A 
ATOM     18  C   UNL     1      -0.560  10.410  20.222  0.00  0.00    -0.026 A 
ATOM     19  C   UNL     1       0.296   9.583  20.959  0.00  0.00    +0.145 A 
ATOM     20  N   UNL     1       1.201   8.767  20.353  0.00  0.00    -0.238 NA
ATOM     21  H   UNL     1       0.503   9.558  17.126  0.00  0.00    +0.064 HD
ATOM     22  H   UNL     1      -1.271  11.051  20.746  0.00  0.00    +0.064 HD
BRANCH  17  23
ATOM     23  C   UNL     1      -1.481  11.364  17.959  0.00  0.00    +0.086 C 
ATOM     24  C   UNL     1      -2.312  10.727  16.832  0.00  0.00    +0.001 C 
ATOM     25  C   UNL     1      -3.485  11.468  17.462  0.00  0.00    +0.051 C 
ATOM     26  O   UNL     1      -2.705  11.769  18.644  0.00  0.00    -0.372 OA
ATOM     27  H   UNL     1      -0.948  12.265  17.625  0.00  0.00    +0.065 HD
ATOM     28  H   UNL     1      -2.399   9.637  16.872  0.00  0.00    +0.032 HD
ATOM     29  H   UNL     1      -2.046  11.042  15.820  0.00  0.00    +0.032 HD
ATOM     30  H   UNL     1      -3.796  12.383  16.949  0.00  0.00    +0.056 HD
ATOM     31  H   UNL     1      -4.357  10.853  17.694  0.00  0.00    +0.056 HD
ENDBRANCH  17  23
BRANCH  19  32
ATOM     32  C   UNL     1       0.201   9.603  22.481  0.00  0.00    +0.434 C 
ATOM     33  F   UNL     1      -0.164  10.814  22.990  0.00  0.00    -0.164 F 
ATOM     34  F   UNL     1       1.384   9.289  23.083  0.00  0.00    -0.164 F 
ATOM     35  F   UNL     1      -0.709   8.708  22.962  0.00  0.00    -0.164 F 
ENDBRANCH  19  32
ENDBRANCH  12  15
ENDBRANCH   5  11
BRANCH   1  36
ATOM     36  C   UNL     1       5.891   4.908  16.059  0.00  0.00    -0.012 C 
ATOM     37  H   UNL     1       5.820   5.932  15.667  0.00  0.00    +0.035 HD
BRANCH  36  38
ATOM     38  C   UNL     1       6.028   3.978  14.847  0.00  0.00    -0.058 C 
ATOM     39  H   UNL     1       6.801   4.342  14.162  0.00  0.00    +0.024 HD
ATOM     40  H   UNL     1       5.091   3.904  14.283  0.00  0.00    +0.024 HD
ATOM     41  H   UNL     1       6.312   2.967  15.156  0.00  0.00    +0.024 HD
ENDBRANCH  36  38
BRANCH  36  42
ATOM     42  C   UNL     1       7.113   4.831  16.998  0.00  0.00    +0.014 C 
ATOM     43  H   UNL     1       7.956   4.345  16.491  0.00  0.00    +0.035 HD
ATOM     44  H   UNL     1       6.884   4.203  17.868  0.00  0.00    +0.035 HD
BRANCH  42  45
ATOM     45  C   UNL     1       7.550   6.177  17.469  0.00  0.00    +0.134 A 
ATOM     46  N   UNL     1       7.555   7.288  16.760  0.00  0.00    -0.135 NA
ATOM     47  N   UNL     1       8.024   8.304  17.558  0.00  0.00    -0.138 NA
ATOM     48  C   UNL     1       8.300   7.792  18.732  0.00  0.00    +0.120 A 
ATOM     49  N   UNL     1       8.021   6.461  18.724  0.00  0.00    -0.320 N 
ATOM     50  H   UNL     1       8.691   8.329  19.585  0.00  0.00    +0.105 HD
BRANCH  49  51
ATOM     51  C   UNL     1       8.195   5.550  19.823  0.00  0.00    +0.014 C 
ATOM     52  H   UNL     1       7.356   4.849  19.829  0.00  0.00    +0.046 HD
ATOM     53  H   UNL     1       9.132   5.002  19.699  0.00  0.00    +0.046 HD
ATOM     54  H   UNL     1       8.225   6.121  20.753  0.00  0.00    +0.046 HD
ENDBRANCH  49  51
ENDBRANCH  42  45
ENDBRANCH  36  42
ENDBRANCH   1  36
TORSDOF 9
ENDMDL
MODEL 15
REMARK VINA RESULT:    -7.750      3.525      4.893
REMARK INTER + INTRA:         -12.283
REMARK INTER:                 -11.226
REMARK INTRA:                  -1.057
REMARK UNBOUND:                -0.909
REMARK  Name = 
REMARK  9 active torsions:
REMARK  status: ('A' for Active; 'I' for Inactive)
REMARK    1  A    between atoms: C_1  and  C_2
REMARK    2  A    between atoms: C_2  and  C_3
REMARK    3  A    between atoms: C_2  and  C_10
REMARK    4  A    between atoms: C_3  and  C_4
REMARK    5  A    between atoms: N_8  and  C_9
REMARK    6  A    between atoms: C_14  and  N_15
REMARK    7  A    between atoms: C_16  and  C_18
REMARK    8  A    between atoms: C_20  and  C_21
REMARK    9  A    between atoms: C_26  and  C_27
REMARK                            x       y       z     vdW  Elec       q    Type
REMARK                         _______ _______ _______ _____ _____    ______ ____
ROOT
ATOM      1  C   UNL     1      -0.738  11.703  18.994  0.00  0.00    -0.042 A 
ATOM      2  C   UNL     1      -0.005  12.888  18.850  0.00  0.00    -0.058 A 
ATOM      3  C   UNL     1       1.349  12.845  18.523  0.00  0.00    -0.060 A 
ATOM      4  C   UNL     1       1.992  11.619  18.334  0.00  0.00    -0.040 A 
ATOM      5  C   UNL     1       1.284  10.427  18.467  0.00  0.00    +0.034 A 
ATOM      6  C   UNL     1      -0.079  10.478  18.795  0.00  0.00    -0.037 A 
ATOM      7  H   UNL     1      -0.480  13.858  18.986  0.00  0.00    +0.062 HD
ATOM      8  H   UNL     1       1.912  13.769  18.411  0.00  0.00    +0.062 HD
ATOM      9  H   UNL     1       3.047  11.631  18.079  0.00  0.00    +0.064 HD
ATOM     10  H   UNL     1      -0.640   9.552  18.895  0.00  0.00    +0.064 HD
ENDROOT
BRANCH   5  11
ATOM     11  N   UNL     1       1.854   9.155  18.289  0.00  0.00    -0.280 N 
ATOM     12  C   UNL     1       2.011   8.145  19.220  0.00  0.00    +0.267 C 
ATOM     13  O   UNL     1       1.673   8.158  20.397  0.00  0.00    -0.268 OA
ATOM     14  H   UNL     1       2.212   8.925  17.364  0.00  0.00    +0.155 HD
BRANCH  12  15
ATOM     15  C   UNL     1       2.673   6.925  18.648  0.00  0.00    +0.127 A 
ATOM     16  C   UNL     1       2.306   5.661  19.092  0.00  0.00    -0.026 A 
ATOM     17  C   UNL     1       2.922   4.520  18.555  0.00  0.00    -0.015 A 
ATOM     18  C   UNL     1       3.905   4.757  17.575  0.00  0.00    -0.026 A 
ATOM     19  C   UNL     1       4.233   6.056  17.167  0.00  0.00    +0.145 A 
ATOM     20  N   UNL     1       3.621   7.149  17.698  0.00  0.00    -0.238 NA
ATOM     21  H   UNL     1       1.540   5.558  19.857  0.00  0.00    +0.064 HD
ATOM     22  H   UNL     1       4.420   3.907  17.125  0.00  0.00    +0.064 HD
BRANCH  17  23
ATOM     23  C   UNL     1       2.536   3.063  19.035  0.00  0.00    +0.086 C 
ATOM     24  C   UNL     1       1.266   2.879  19.883  0.00  0.00    +0.001 C 
ATOM     25  C   UNL     1       0.928   1.772  18.893  0.00  0.00    +0.051 C 
ATOM     26  O   UNL     1       1.974   2.210  17.992  0.00  0.00    -0.372 OA
ATOM     27  H   UNL     1       3.407   2.556  19.475  0.00  0.00    +0.065 HD
ATOM     28  H   UNL     1       0.567   3.720  19.869  0.00  0.00    +0.032 HD
ATOM     29  H   UNL     1       1.434   2.553  20.912  0.00  0.00    +0.032 HD
ATOM     30  H   UNL     1       1.111   0.751  19.244  0.00  0.00    +0.056 HD
ATOM     31  H   UNL     1      -0.061   1.840  18.434  0.00  0.00    +0.056 HD
ENDBRANCH  17  23
BRANCH  19  32
ATOM     32  C   UNL     1       5.304   6.237  16.097  0.00  0.00    +0.434 C 
ATOM     33  F   UNL     1       5.721   5.067  15.535  0.00  0.00    -0.164 F 
ATOM     34  F   UNL     1       6.430   6.838  16.580  0.00  0.00    -0.164 F 
ATOM     35  F   UNL     1       4.883   7.018  15.061  0.00  0.00    -0.164 F 
ENDBRANCH  19  32
ENDBRANCH  12  15
ENDBRANCH   5  11
BRANCH   1  36
ATOM     36  C   UNL     1      -2.216  11.719  19.359  0.00  0.00    -0.012 C 
ATOM     37  H   UNL     1      -2.400  10.894  20.061  0.00  0.00    +0.035 HD
BRANCH  36  38
ATOM     38  C   UNL     1      -3.081  11.449  18.121  0.00  0.00    -0.058 C 
ATOM     39  H   UNL     1      -2.681  11.971  17.245  0.00  0.00    +0.024 HD
ATOM     40  H   UNL     1      -4.114  11.785  18.265  0.00  0.00    +0.024 HD
ATOM     41  H   UNL     1      -3.107  10.381  17.884  0.00  0.00    +0.024 HD
ENDBRANCH  36  38
BRANCH  36  42
ATOM     42  C   UNL     1      -2.590  13.043  20.058  0.00  0.00    +0.014 C 
ATOM     43  H   UNL     1      -3.323  13.598  19.459  0.00  0.00    +0.035 HD
ATOM     44  H   UNL     1      -1.709  13.694  20.133  0.00  0.00    +0.035 HD
BRANCH  42  45
ATOM     45  C   UNL     1      -3.154  12.824  21.421  0.00  0.00    +0.134 A 
ATOM     46  N   UNL     1      -4.430  12.836  21.748  0.00  0.00    -0.135 NA
ATOM     47  N   UNL     1      -4.530  12.589  23.096  0.00  0.00    -0.138 NA
ATOM     48  C   UNL     1      -3.314  12.439  23.564  0.00  0.00    +0.120 A 
ATOM     49  N   UNL     1      -2.418  12.580  22.551  0.00  0.00    -0.320 N 
ATOM     50  H   UNL     1      -3.047  12.237  24.591  0.00  0.00    +0.105 HD
BRANCH  49  51
ATOM     51  C   UNL     1      -0.987  12.490  22.663  0.00  0.00    +0.014 C 
ATOM     52  H   UNL     1      -0.716  12.576  23.719  0.00  0.00    +0.046 HD
ATOM     53  H   UNL     1      -0.649  11.526  22.274  0.00  0.00    +0.046 HD
ATOM     54  H   UNL     1      -0.536  13.297  22.083  0.00  0.00    +0.046 HD
ENDBRANCH  49  51
ENDBRANCH  42  45
ENDBRANCH  36  42
ENDBRANCH   1  36
TORSDOF 9
ENDMDL
MODEL 16
REMARK VINA RESULT:    -7.748      2.154      2.862
REMARK INTER + INTRA:         -12.280
REMARK INTER:                 -11.423
REMARK INTRA:                  -0.857
REMARK UNBOUND:                -0.909
REMARK  Name = 
REMARK  9 active torsions:
REMARK  status: ('A' for Active; 'I' for Inactive)
REMARK    1  A    between atoms: C_1  and  C_2
REMARK    2  A    between atoms: C_2  and  C_3
REMARK    3  A    between atoms: C_2  and  C_10
REMARK    4  A    between atoms: C_3  and  C_4
REMARK    5  A    between atoms: N_8  and  C_9
REMARK    6  A    between atoms: C_14  and  N_15
REMARK    7  A    between atoms: C_16  and  C_18
REMARK    8  A    between atoms: C_20  and  C_21
REMARK    9  A    between atoms: C_26  and  C_27
REMARK                            x       y       z     vdW  Elec       q    Type
REMARK                         _______ _______ _______ _____ _____    ______ ____
ROOT
ATOM      1  C   UNL     1      -0.291  10.513  20.562  0.00  0.00    -0.042 A 
ATOM      2  C   UNL     1      -0.119  10.770  21.928  0.00  0.00    -0.058 A 
ATOM      3  C   UNL     1       0.640   9.909  22.718  0.00  0.00    -0.060 A 
ATOM      4  C   UNL     1       1.238   8.777  22.157  0.00  0.00    -0.040 A 
ATOM      5  C   UNL     1       1.085   8.501  20.800  0.00  0.00    +0.034 A 
ATOM      6  C   UNL     1       0.321   9.374  20.011  0.00  0.00    -0.037 A 
ATOM      7  H   UNL     1      -0.568  11.646  22.391  0.00  0.00    +0.062 HD
ATOM      8  H   UNL     1       0.771  10.116  23.778  0.00  0.00    +0.062 HD
ATOM      9  H   UNL     1       1.822   8.135  22.808  0.00  0.00    +0.064 HD
ATOM     10  H   UNL     1       0.202   9.169  18.949  0.00  0.00    +0.064 HD
ENDROOT
BRANCH   5  11
ATOM     11  N   UNL     1       1.657   7.390  20.159  0.00  0.00    -0.280 N 
ATOM     12  C   UNL     1       2.371   7.353  18.977  0.00  0.00    +0.267 C 
ATOM     13  O   UNL     1       2.656   8.295  18.248  0.00  0.00    -0.268 OA
ATOM     14  H   UNL     1       1.538   6.480  20.601  0.00  0.00    +0.155 HD
BRANCH  12  15
ATOM     15  C   UNL     1       2.820   5.967  18.612  0.00  0.00    +0.127 A 
ATOM     16  C   UNL     1       3.977   5.783  17.866  0.00  0.00    -0.026 A 
ATOM     17  C   UNL     1       4.398   4.488  17.527  0.00  0.00    -0.015 A 
ATOM     18  C   UNL     1       3.579   3.437  17.985  0.00  0.00    -0.026 A 
ATOM     19  C   UNL     1       2.423   3.684  18.734  0.00  0.00    +0.145 A 
ATOM     20  N   UNL     1       2.034   4.948  19.054  0.00  0.00    -0.238 NA
ATOM     21  H   UNL     1       4.555   6.646  17.543  0.00  0.00    +0.064 HD
ATOM     22  H   UNL     1       3.857   2.409  17.748  0.00  0.00    +0.064 HD
BRANCH  17  23
ATOM     23  C   UNL     1       5.708   4.235  16.676  0.00  0.00    +0.086 C 
ATOM     24  C   UNL     1       5.616   4.312  15.143  0.00  0.00    +0.001 C 
ATOM     25  C   UNL     1       6.831   5.225  15.250  0.00  0.00    +0.051 C 
ATOM     26  O   UNL     1       6.658   5.344  16.683  0.00  0.00    -0.372 OA
ATOM     27  H   UNL     1       6.223   3.326  17.017  0.00  0.00    +0.065 HD
ATOM     28  H   UNL     1       4.721   4.803  14.750  0.00  0.00    +0.032 HD
ATOM     29  H   UNL     1       5.783   3.369  14.616  0.00  0.00    +0.032 HD
ATOM     30  H   UNL     1       7.792   4.764  15.004  0.00  0.00    +0.056 HD
ATOM     31  H   UNL     1       6.737   6.190  14.746  0.00  0.00    +0.056 HD
ENDBRANCH  17  23
BRANCH  19  32
ATOM     32  C   UNL     1       1.587   2.497  19.201  0.00  0.00    +0.434 C 
ATOM     33  F   UNL     1       2.177   1.289  18.974  0.00  0.00    -0.164 F 
ATOM     34  F   UNL     1       0.372   2.438  18.583  0.00  0.00    -0.164 F 
ATOM     35  F   UNL     1       1.322   2.536  20.538  0.00  0.00    -0.164 F 
ENDBRANCH  19  32
ENDBRANCH  12  15
ENDBRANCH   5  11
BRANCH   1  36
ATOM     36  C   UNL     1      -1.122  11.431  19.675  0.00  0.00    -0.012 C 
ATOM     37  H   UNL     1      -2.038  10.893  19.395  0.00  0.00    +0.035 HD
BRANCH  36  38
ATOM     38  C   UNL     1      -0.375  11.744  18.373  0.00  0.00    -0.058 C 
ATOM     39  H   UNL     1       0.687  11.931  18.567  0.00  0.00    +0.024 HD
ATOM     40  H   UNL     1      -0.782  12.629  17.872  0.00  0.00    +0.024 HD
ATOM     41  H   UNL     1      -0.437  10.906  17.671  0.00  0.00    +0.024 HD
ENDBRANCH  36  38
BRANCH  36  42
ATOM     42  C   UNL     1      -1.524  12.709  20.441  0.00  0.00    +0.014 C 
ATOM     43  H   UNL     1      -1.313  13.600  19.837  0.00  0.00    +0.035 HD
ATOM     44  H   UNL     1      -0.919  12.812  21.351  0.00  0.00    +0.035 HD
BRANCH  42  45
ATOM     45  C   UNL     1      -2.969  12.714  20.813  0.00  0.00    +0.134 A 
ATOM     46  N   UNL     1      -3.988  12.627  19.982  0.00  0.00    -0.135 NA
ATOM     47  N   UNL     1      -5.147  12.663  20.720  0.00  0.00    -0.138 NA
ATOM     48  C   UNL     1      -4.811  12.777  21.983  0.00  0.00    +0.120 A 
ATOM     49  N   UNL     1      -3.456  12.815  22.090  0.00  0.00    -0.320 N 
ATOM     50  H   UNL     1      -5.492  12.836  22.820  0.00  0.00    +0.105 HD
BRANCH  49  51
ATOM     51  C   UNL     1      -2.704  12.939  23.309  0.00  0.00    +0.014 C 
ATOM     52  H   UNL     1      -2.245  13.930  23.334  0.00  0.00    +0.046 HD
ATOM     53  H   UNL     1      -3.372  12.820  24.166  0.00  0.00    +0.046 HD
ATOM     54  H   UNL     1      -1.938  12.160  23.332  0.00  0.00    +0.046 HD
ENDBRANCH  49  51
ENDBRANCH  42  45
ENDBRANCH  36  42
ENDBRANCH   1  36
TORSDOF 9
ENDMDL
MODEL 17
REMARK VINA RESULT:    -7.717      3.837      5.380
REMARK INTER + INTRA:         -12.234
REMARK INTER:                 -11.124
REMARK INTRA:                  -1.111
REMARK UNBOUND:                -0.909
REMARK  Name = 
REMARK  9 active torsions:
REMARK  status: ('A' for Active; 'I' for Inactive)
REMARK    1  A    between atoms: C_1  and  C_2
REMARK    2  A    between atoms: C_2  and  C_3
REMARK    3  A    between atoms: C_2  and  C_10
REMARK    4  A    between atoms: C_3  and  C_4
REMARK    5  A    between atoms: N_8  and  C_9
REMARK    6  A    between atoms: C_14  and  N_15
REMARK    7  A    between atoms: C_16  and  C_18
REMARK    8  A    between atoms: C_20  and  C_21
REMARK    9  A    between atoms: C_26  and  C_27
REMARK                            x       y       z     vdW  Elec       q    Type
REMARK                         _______ _______ _______ _____ _____    ______ ____
ROOT
ATOM      1  C   UNL     1      -1.027  12.128  20.240  0.00  0.00    -0.042 A 
ATOM      2  C   UNL     1      -2.142  12.246  19.401  0.00  0.00    -0.058 A 
ATOM      3  C   UNL     1      -2.349  11.331  18.370  0.00  0.00    -0.060 A 
ATOM      4  C   UNL     1      -1.447  10.285  18.161  0.00  0.00    -0.040 A 
ATOM      5  C   UNL     1      -0.332  10.144  18.984  0.00  0.00    +0.034 A 
ATOM      6  C   UNL     1      -0.130  11.067  20.021  0.00  0.00    -0.037 A 
ATOM      7  H   UNL     1      -2.864  13.047  19.543  0.00  0.00    +0.062 HD
ATOM      8  H   UNL     1      -3.219  11.428  17.723  0.00  0.00    +0.062 HD
ATOM      9  H   UNL     1      -1.647   9.595  17.348  0.00  0.00    +0.064 HD
ATOM     10  H   UNL     1       0.734  10.960  20.672  0.00  0.00    +0.064 HD
ENDROOT
BRANCH   5  11
ATOM     11  N   UNL     1       0.619   9.118  18.844  0.00  0.00    -0.280 N 
ATOM     12  C   UNL     1       1.864   9.177  18.249  0.00  0.00    +0.267 C 
ATOM     13  O   UNL     1       2.395  10.149  17.725  0.00  0.00    -0.268 OA
ATOM     14  H   UNL     1       0.379   8.202  19.216  0.00  0.00    +0.155 HD
BRANCH  12  15
ATOM     15  C   UNL     1       2.592   7.864  18.292  0.00  0.00    +0.127 A 
ATOM     16  C   UNL     1       2.275   6.924  19.265  0.00  0.00    -0.026 A 
ATOM     17  C   UNL     1       2.952   5.695  19.303  0.00  0.00    -0.015 A 
ATOM     18  C   UNL     1       3.940   5.508  18.318  0.00  0.00    -0.026 A 
ATOM     19  C   UNL     1       4.215   6.493  17.361  0.00  0.00    +0.145 A 
ATOM     20  N   UNL     1       3.545   7.677  17.340  0.00  0.00    -0.238 NA
ATOM     21  H   UNL     1       1.501   7.144  19.997  0.00  0.00    +0.064 HD
ATOM     22  H   UNL     1       4.500   4.573  18.302  0.00  0.00    +0.064 HD
BRANCH  17  23
ATOM     23  C   UNL     1       2.624   4.599  20.396  0.00  0.00    +0.086 C 
ATOM     24  C   UNL     1       1.155   4.208  20.629  0.00  0.00    +0.001 C 
ATOM     25  C   UNL     1       1.658   2.775  20.504  0.00  0.00    +0.051 C 
ATOM     26  O   UNL     1       2.934   3.231  19.994  0.00  0.00    -0.372 OA
ATOM     27  H   UNL     1       3.150   4.819  21.336  0.00  0.00    +0.065 HD
ATOM     28  H   UNL     1       0.458   4.508  19.841  0.00  0.00    +0.032 HD
ATOM     29  H   UNL     1       0.748   4.479  21.607  0.00  0.00    +0.032 HD
ATOM     30  H   UNL     1       1.779   2.233  21.447  0.00  0.00    +0.056 HD
ATOM     31  H   UNL     1       1.126   2.154  19.780  0.00  0.00    +0.056 HD
ENDBRANCH  17  23
BRANCH  19  32
ATOM     32  C   UNL     1       5.295   6.220  16.321  0.00  0.00    +0.434 C 
ATOM     33  F   UNL     1       5.544   4.893  16.125  0.00  0.00    -0.164 F 
ATOM     34  F   UNL     1       6.496   6.776  16.654  0.00  0.00    -0.164 F 
ATOM     35  F   UNL     1       4.981   6.724  15.093  0.00  0.00    -0.164 F 
ENDBRANCH  19  32
ENDBRANCH  12  15
ENDBRANCH   5  11
BRANCH   1  36
ATOM     36  C   UNL     1      -0.769  13.117  21.369  0.00  0.00    -0.012 C 
ATOM     37  H   UNL     1      -1.484  13.945  21.263  0.00  0.00    +0.035 HD
BRANCH  36  38
ATOM     38  C   UNL     1       0.634  13.725  21.244  0.00  0.00    -0.058 C 
ATOM     39  H   UNL     1       1.118  13.793  22.225  0.00  0.00    +0.024 HD
ATOM     40  H   UNL     1       0.605  14.734  20.818  0.00  0.00    +0.024 HD
ATOM     41  H   UNL     1       1.274  13.110  20.604  0.00  0.00    +0.024 HD
ENDBRANCH  36  38
BRANCH  36  42
ATOM     42  C   UNL     1      -0.999  12.450  22.741  0.00  0.00    +0.014 C 
ATOM     43  H   UNL     1      -0.168  12.676  23.421  0.00  0.00    +0.035 HD
ATOM     44  H   UNL     1      -1.011  11.357  22.633  0.00  0.00    +0.035 HD
BRANCH  42  45
ATOM     45  C   UNL     1      -2.273  12.892  23.378  0.00  0.00    +0.134 A 
ATOM     46  N   UNL     1      -3.437  12.278  23.303  0.00  0.00    -0.135 NA
ATOM     47  N   UNL     1      -4.352  13.003  24.029  0.00  0.00    -0.138 NA
ATOM     48  C   UNL     1      -3.729  14.045  24.526  0.00  0.00    +0.120 A 
ATOM     49  N   UNL     1      -2.425  14.018  24.143  0.00  0.00    -0.320 N 
ATOM     50  H   UNL     1      -4.169  14.814  25.144  0.00  0.00    +0.105 HD
BRANCH  49  51
ATOM     51  C   UNL     1      -1.420  14.990  24.482  0.00  0.00    +0.014 C 
ATOM     52  H   UNL     1      -1.424  15.129  25.566  0.00  0.00    +0.046 HD
ATOM     53  H   UNL     1      -0.439  14.631  24.161  0.00  0.00    +0.046 HD
ATOM     54  H   UNL     1      -1.652  15.928  23.973  0.00  0.00    +0.046 HD
ENDBRANCH  49  51
ENDBRANCH  42  45
ENDBRANCH  36  42
ENDBRANCH   1  36
TORSDOF 9
ENDMDL
MODEL 18
REMARK VINA RESULT:    -7.640      1.601      2.416
REMARK INTER + INTRA:         -12.122
REMARK INTER:                 -11.064
REMARK INTRA:                  -1.058
REMARK UNBOUND:                -0.909
REMARK  Name = 
REMARK  9 active torsions:
REMARK  status: ('A' for Active; 'I' for Inactive)
REMARK    1  A    between atoms: C_1  and  C_2
REMARK    2  A    between atoms: C_2  and  C_3
REMARK    3  A    between atoms: C_2  and  C_10
REMARK    4  A    between atoms: C_3  and  C_4
REMARK    5  A    between atoms: N_8  and  C_9
REMARK    6  A    between atoms: C_14  and  N_15
REMARK    7  A    between atoms: C_16  and  C_18
REMARK    8  A    between atoms: C_20  and  C_21
REMARK    9  A    between atoms: C_26  and  C_27
REMARK                            x       y       z     vdW  Elec       q    Type
REMARK                         _______ _______ _______ _____ _____    ______ ____
ROOT
ATOM      1  C   UNL     1       0.029  12.229  18.848  0.00  0.00    -0.042 A 
ATOM      2  C   UNL     1       0.922  13.264  18.543  0.00  0.00    -0.058 A 
ATOM      3  C   UNL     1       2.225  12.977  18.140  0.00  0.00    -0.060 A 
ATOM      4  C   UNL     1       2.656  11.652  18.034  0.00  0.00    -0.040 A 
ATOM      5  C   UNL     1       1.786  10.604  18.328  0.00  0.00    +0.034 A 
ATOM      6  C   UNL     1       0.476  10.901  18.732  0.00  0.00    -0.037 A 
ATOM      7  H   UNL     1       0.612  14.305  18.611  0.00  0.00    +0.062 HD
ATOM      8  H   UNL     1       2.912  13.786  17.902  0.00  0.00    +0.062 HD
ATOM      9  H   UNL     1       3.677  11.473  17.715  0.00  0.00    +0.064 HD
ATOM     10  H   UNL     1      -0.211  10.089  18.958  0.00  0.00    +0.064 HD
ENDROOT
BRANCH   5  11
ATOM     11  N   UNL     1       2.140   9.247  18.243  0.00  0.00    -0.280 N 
ATOM     12  C   UNL     1       2.012   8.263  19.205  0.00  0.00    +0.267 C 
ATOM     13  O   UNL     1       1.553   8.381  20.335  0.00  0.00    -0.268 OA
ATOM     14  H   UNL     1       2.552   8.922  17.370  0.00  0.00    +0.155 HD
BRANCH  12  15
ATOM     15  C   UNL     1       2.508   6.926  18.738  0.00  0.00    +0.127 A 
ATOM     16  C   UNL     1       3.508   6.850  17.776  0.00  0.00    -0.026 A 
ATOM     17  C   UNL     1       3.974   5.600  17.342  0.00  0.00    -0.015 A 
ATOM     18  C   UNL     1       3.366   4.478  17.936  0.00  0.00    -0.026 A 
ATOM     19  C   UNL     1       2.363   4.616  18.903  0.00  0.00    +0.145 A 
ATOM     20  N   UNL     1       1.926   5.838  19.312  0.00  0.00    -0.238 NA
ATOM     21  H   UNL     1       3.926   7.764  17.359  0.00  0.00    +0.064 HD
ATOM     22  H   UNL     1       3.688   3.480  17.634  0.00  0.00    +0.064 HD
BRANCH  17  23
ATOM     23  C   UNL     1       5.108   5.471  16.245  0.00  0.00    +0.086 C 
ATOM     24  C   UNL     1       6.564   5.745  16.656  0.00  0.00    +0.001 C 
ATOM     25  C   UNL     1       6.866   4.420  15.966  0.00  0.00    +0.051 C 
ATOM     26  O   UNL     1       5.456   4.097  15.893  0.00  0.00    -0.372 OA
ATOM     27  H   UNL     1       4.825   6.010  15.330  0.00  0.00    +0.065 HD
ATOM     28  H   UNL     1       6.757   5.742  17.732  0.00  0.00    +0.032 HD
ATOM     29  H   UNL     1       7.021   6.626  16.199  0.00  0.00    +0.032 HD
ATOM     30  H   UNL     1       7.307   4.496  14.968  0.00  0.00    +0.056 HD
ATOM     31  H   UNL     1       7.420   3.695  16.567  0.00  0.00    +0.056 HD
ENDBRANCH  17  23
BRANCH  19  32
ATOM     32  C   UNL     1       1.752   3.357  19.507  0.00  0.00    +0.434 C 
ATOM     33  F   UNL     1       2.493   2.820  20.519  0.00  0.00    -0.164 F 
ATOM     34  F   UNL     1       1.598   2.357  18.591  0.00  0.00    -0.164 F 
ATOM     35  F   UNL     1       0.512   3.574  20.031  0.00  0.00    -0.164 F 
ENDBRANCH  19  32
ENDBRANCH  12  15
ENDBRANCH   5  11
BRANCH   1  36
ATOM     36  C   UNL     1      -1.397  12.512  19.300  0.00  0.00    -0.012 C 
ATOM     37  H   UNL     1      -1.823  13.266  18.624  0.00  0.00    +0.035 HD
BRANCH  36  38
ATOM     38  C   UNL     1      -1.406  13.124  20.707  0.00  0.00    -0.058 C 
ATOM     39  H   UNL     1      -0.958  14.124  20.700  0.00  0.00    +0.024 HD
ATOM     40  H   UNL     1      -0.841  12.513  21.420  0.00  0.00    +0.024 HD
ATOM     41  H   UNL     1      -2.427  13.223  21.088  0.00  0.00    +0.024 HD
ENDBRANCH  36  38
BRANCH  36  42
ATOM     42  C   UNL     1      -2.261  11.237  19.210  0.00  0.00    +0.014 C 
ATOM     43  H   UNL     1      -2.743  11.032  20.174  0.00  0.00    +0.035 HD
ATOM     44  H   UNL     1      -1.628  10.365  18.999  0.00  0.00    +0.035 HD
BRANCH  42  45
ATOM     45  C   UNL     1      -3.315  11.340  18.161  0.00  0.00    +0.134 A 
ATOM     46  N   UNL     1      -4.467  11.971  18.271  0.00  0.00    -0.135 NA
ATOM     47  N   UNL     1      -5.147  11.834  17.085  0.00  0.00    -0.138 NA
ATOM     48  C   UNL     1      -4.401  11.117  16.280  0.00  0.00    +0.120 A 
ATOM     49  N   UNL     1      -3.243  10.783  16.910  0.00  0.00    -0.320 N 
ATOM     50  H   UNL     1      -4.652  10.826  15.269  0.00  0.00    +0.105 HD
BRANCH  49  51
ATOM     51  C   UNL     1      -2.172   9.999  16.360  0.00  0.00    +0.014 C 
ATOM     52  H   UNL     1      -1.226  10.377  16.755  0.00  0.00    +0.046 HD
ATOM     53  H   UNL     1      -2.298   8.952  16.648  0.00  0.00    +0.046 HD
ATOM     54  H   UNL     1      -2.196  10.084  15.271  0.00  0.00    +0.046 HD
ENDBRANCH  49  51
ENDBRANCH  42  45
ENDBRANCH  36  42
ENDBRANCH   1  36
TORSDOF 9
ENDMDL
MODEL 19
REMARK VINA RESULT:    -7.617      3.636      5.029
REMARK INTER + INTRA:         -12.089
REMARK INTER:                 -10.891
REMARK INTRA:                  -1.198
REMARK UNBOUND:                -0.909
REMARK  Name = 
REMARK  9 active torsions:
REMARK  status: ('A' for Active; 'I' for Inactive)
REMARK    1  A    between atoms: C_1  and  C_2
REMARK    2  A    between atoms: C_2  and  C_3
REMARK    3  A    between atoms: C_2  and  C_10
REMARK    4  A    between atoms: C_3  and  C_4
REMARK    5  A    between atoms: N_8  and  C_9
REMARK    6  A    between atoms: C_14  and  N_15
REMARK    7  A    between atoms: C_16  and  C_18
REMARK    8  A    between atoms: C_20  and  C_21
REMARK    9  A    between atoms: C_26  and  C_27
REMARK                            x       y       z     vdW  Elec       q    Type
REMARK                         _______ _______ _______ _____ _____    ______ ____
ROOT
ATOM      1  C   UNL     1       0.239  12.395  18.902  0.00  0.00    -0.042 A 
ATOM      2  C   UNL     1      -1.102  12.396  18.498  0.00  0.00    -0.058 A 
ATOM      3  C   UNL     1      -1.682  11.244  17.970  0.00  0.00    -0.060 A 
ATOM      4  C   UNL     1      -0.931  10.073  17.837  0.00  0.00    -0.040 A 
ATOM      5  C   UNL     1       0.404  10.045  18.235  0.00  0.00    +0.034 A 
ATOM      6  C   UNL     1       0.980  11.208  18.767  0.00  0.00    -0.037 A 
ATOM      7  H   UNL     1      -1.713  13.292  18.595  0.00  0.00    +0.062 HD
ATOM      8  H   UNL     1      -2.725  11.252  17.661  0.00  0.00    +0.062 HD
ATOM      9  H   UNL     1      -1.422   9.198  17.423  0.00  0.00    +0.064 HD
ATOM     10  H   UNL     1       2.019  11.192  19.085  0.00  0.00    +0.064 HD
ENDROOT
BRANCH   5  11
ATOM     11  N   UNL     1       1.224   8.908  18.139  0.00  0.00    -0.280 N 
ATOM     12  C   UNL     1       1.769   8.152  19.159  0.00  0.00    +0.267 C 
ATOM     13  O   UNL     1       1.637   8.323  20.365  0.00  0.00    -0.268 OA
ATOM     14  H   UNL     1       1.469   8.583  17.206  0.00  0.00    +0.155 HD
BRANCH  12  15
ATOM     15  C   UNL     1       2.600   7.008  18.656  0.00  0.00    +0.127 A 
ATOM     16  C   UNL     1       2.370   5.720  19.124  0.00  0.00    -0.026 A 
ATOM     17  C   UNL     1       3.145   4.650  18.651  0.00  0.00    -0.015 A 
ATOM     18  C   UNL     1       4.135   4.980  17.706  0.00  0.00    -0.026 A 
ATOM     19  C   UNL     1       4.321   6.298  17.270  0.00  0.00    +0.145 A 
ATOM     20  N   UNL     1       3.557   7.322  17.740  0.00  0.00    -0.238 NA
ATOM     21  H   UNL     1       1.588   5.545  19.859  0.00  0.00    +0.064 HD
ATOM     22  H   UNL     1       4.769   4.188  17.306  0.00  0.00    +0.064 HD
BRANCH  17  23
ATOM     23  C   UNL     1       2.917   3.170  19.161  0.00  0.00    +0.086 C 
ATOM     24  C   UNL     1       2.340   2.134  18.181  0.00  0.00    +0.001 C 
ATOM     25  C   UNL     1       3.499   1.256  18.638  0.00  0.00    +0.051 C 
ATOM     26  O   UNL     1       4.138   2.380  19.291  0.00  0.00    -0.372 OA
ATOM     27  H   UNL     1       2.390   3.169  20.126  0.00  0.00    +0.065 HD
ATOM     28  H   UNL     1       2.381   2.413  17.124  0.00  0.00    +0.032 HD
ATOM     29  H   UNL     1       1.343   1.761  18.428  0.00  0.00    +0.032 HD
ATOM     30  H   UNL     1       3.243   0.473  19.359  0.00  0.00    +0.056 HD
ATOM     31  H   UNL     1       4.117   0.843  17.838  0.00  0.00    +0.056 HD
ENDBRANCH  17  23
BRANCH  19  32
ATOM     32  C   UNL     1       5.409   6.581  16.242  0.00  0.00    +0.434 C 
ATOM     33  F   UNL     1       6.384   7.422  16.693  0.00  0.00    -0.164 F 
ATOM     34  F   UNL     1       4.919   7.159  15.106  0.00  0.00    -0.164 F 
ATOM     35  F   UNL     1       6.053   5.450  15.834  0.00  0.00    -0.164 F 
ENDBRANCH  19  32
ENDBRANCH  12  15
ENDBRANCH   5  11
BRANCH   1  36
ATOM     36  C   UNL     1       0.901  13.641  19.474  0.00  0.00    -0.012 C 
ATOM     37  H   UNL     1       0.173  14.463  19.427  0.00  0.00    +0.035 HD
BRANCH  36  38
ATOM     38  C   UNL     1       2.099  14.060  18.611  0.00  0.00    -0.058 C 
ATOM     39  H   UNL     1       2.197  13.406  17.738  0.00  0.00    +0.024 HD
ATOM     40  H   UNL     1       3.040  14.011  19.170  0.00  0.00    +0.024 HD
ATOM     41  H   UNL     1       1.981  15.084  18.244  0.00  0.00    +0.024 HD
ENDBRANCH  36  38
BRANCH  36  42
ATOM     42  C   UNL     1       1.291  13.421  20.951  0.00  0.00    +0.014 C 
ATOM     43  H   UNL     1       2.096  14.109  21.241  0.00  0.00    +0.035 HD
ATOM     44  H   UNL     1       1.695  12.410  21.090  0.00  0.00    +0.035 HD
BRANCH  42  45
ATOM     45  C   UNL     1       0.138  13.618  21.875  0.00  0.00    +0.134 A 
ATOM     46  N   UNL     1      -0.325  14.772  22.311  0.00  0.00    -0.135 NA
ATOM     47  N   UNL     1      -1.395  14.521  23.137  0.00  0.00    -0.138 NA
ATOM     48  C   UNL     1      -1.558  13.221  23.193  0.00  0.00    +0.120 A 
ATOM     49  N   UNL     1      -0.620  12.613  22.419  0.00  0.00    -0.320 N 
ATOM     50  H   UNL     1      -2.314  12.698  23.761  0.00  0.00    +0.105 HD
BRANCH  49  51
ATOM     51  C   UNL     1      -0.467  11.196  22.225  0.00  0.00    +0.014 C 
ATOM     52  H   UNL     1      -1.016  10.908  21.325  0.00  0.00    +0.046 HD
ATOM     53  H   UNL     1       0.592  10.955  22.104  0.00  0.00    +0.046 HD
ATOM     54  H   UNL     1      -0.862  10.677  23.100  0.00  0.00    +0.046 HD
ENDBRANCH  49  51
ENDBRANCH  42  45
ENDBRANCH  36  42
ENDBRANCH   1  36
TORSDOF 9
ENDMDL
MODEL 20
REMARK VINA RESULT:    -7.606      1.809      2.470
REMARK INTER + INTRA:         -12.072
REMARK INTER:                 -11.513
REMARK INTRA:                  -0.559
REMARK UNBOUND:                -0.909
REMARK  Name = 
REMARK  9 active torsions:
REMARK  status: ('A' for Active; 'I' for Inactive)
REMARK    1  A    between atoms: C_1  and  C_2
REMARK    2  A    between atoms: C_2  and  C_3
REMARK    3  A    between atoms: C_2  and  C_10
REMARK    4  A    between atoms: C_3  and  C_4
REMARK    5  A    between atoms: N_8  and  C_9
REMARK    6  A    between atoms: C_14  and  N_15
REMARK    7  A    between atoms: C_16  and  C_18
REMARK    8  A    between atoms: C_20  and  C_21
REMARK    9  A    between atoms: C_26  and  C_27
REMARK                            x       y       z     vdW  Elec       q    Type
REMARK                         _______ _______ _______ _____ _____    ______ ____
ROOT
ATOM      1  C   UNL     1       0.497  11.126  21.134  0.00  0.00    -0.042 A 
ATOM      2  C   UNL     1      -0.299  10.783  22.234  0.00  0.00    -0.058 A 
ATOM      3  C   UNL     1      -0.455   9.448  22.603  0.00  0.00    -0.060 A 
ATOM      4  C   UNL     1       0.181   8.436  21.880  0.00  0.00    -0.040 A 
ATOM      5  C   UNL     1       0.982   8.751  20.784  0.00  0.00    +0.034 A 
ATOM      6  C   UNL     1       1.135  10.097  20.419  0.00  0.00    -0.037 A 
ATOM      7  H   UNL     1      -0.802  11.550  22.819  0.00  0.00    +0.062 HD
ATOM      8  H   UNL     1      -1.073   9.189  23.460  0.00  0.00    +0.062 HD
ATOM      9  H   UNL     1       0.034   7.410  22.203  0.00  0.00    +0.064 HD
ATOM     10  H   UNL     1       1.763  10.352  19.569  0.00  0.00    +0.064 HD
ENDROOT
BRANCH   5  11
ATOM     11  N   UNL     1       1.658   7.795  20.009  0.00  0.00    -0.280 N 
ATOM     12  C   UNL     1       2.068   7.889  18.693  0.00  0.00    +0.267 C 
ATOM     13  O   UNL     1       1.925   8.840  17.934  0.00  0.00    -0.268 OA
ATOM     14  H   UNL     1       1.882   6.905  20.450  0.00  0.00    +0.155 HD
BRANCH  12  15
ATOM     15  C   UNL     1       2.762   6.649  18.210  0.00  0.00    +0.127 A 
ATOM     16  C   UNL     1       3.955   6.748  17.504  0.00  0.00    -0.026 A 
ATOM     17  C   UNL     1       4.606   5.588  17.056  0.00  0.00    -0.015 A 
ATOM     18  C   UNL     1       3.971   4.369  17.364  0.00  0.00    -0.026 A 
ATOM     19  C   UNL     1       2.769   4.332  18.080  0.00  0.00    +0.145 A 
ATOM     20  N   UNL     1       2.154   5.468  18.508  0.00  0.00    -0.238 NA
ATOM     21  H   UNL     1       4.382   7.727  17.300  0.00  0.00    +0.064 HD
ATOM     22  H   UNL     1       4.432   3.436  17.037  0.00  0.00    +0.064 HD
BRANCH  17  23
ATOM     23  C   UNL     1       5.964   5.658  16.247  0.00  0.00    +0.086 C 
ATOM     24  C   UNL     1       6.885   4.426  16.246  0.00  0.00    +0.001 C 
ATOM     25  C   UNL     1       6.908   4.612  14.733  0.00  0.00    +0.051 C 
ATOM     26  O   UNL     1       5.812   5.556  14.798  0.00  0.00    -0.372 OA
ATOM     27  H   UNL     1       6.508   6.584  16.481  0.00  0.00    +0.065 HD
ATOM     28  H   UNL     1       6.420   3.491  16.573  0.00  0.00    +0.032 HD
ATOM     29  H   UNL     1       7.845   4.559  16.750  0.00  0.00    +0.032 HD
ATOM     30  H   UNL     1       7.811   5.081  14.329  0.00  0.00    +0.056 HD
ATOM     31  H   UNL     1       6.651   3.726  14.148  0.00  0.00    +0.056 HD
ENDBRANCH  17  23
BRANCH  19  32
ATOM     32  C   UNL     1       2.140   2.976  18.382  0.00  0.00    +0.434 C 
ATOM     33  F   UNL     1       2.367   2.040  17.417  0.00  0.00    -0.164 F 
ATOM     34  F   UNL     1       0.784   3.047  18.518  0.00  0.00    -0.164 F 
ATOM     35  F   UNL     1       2.602   2.432  19.544  0.00  0.00    -0.164 F 
ENDBRANCH  19  32
ENDBRANCH  12  15
ENDBRANCH   5  11
BRANCH   1  36
ATOM     36  C   UNL     1       0.679  12.575  20.701  0.00  0.00    -0.012 C 
ATOM     37  H   UNL     1       1.756  12.767  20.604  0.00  0.00    +0.035 HD
BRANCH  36  38
ATOM     38  C   UNL     1       0.154  13.530  21.781  0.00  0.00    -0.058 C 
ATOM     39  H   UNL     1      -0.713  13.099  22.295  0.00  0.00    +0.024 HD
ATOM     40  H   UNL     1      -0.154  14.493  21.359  0.00  0.00    +0.024 HD
ATOM     41  H   UNL     1       0.919  13.727  22.538  0.00  0.00    +0.024 HD
ENDBRANCH  36  38
BRANCH  36  42
ATOM     42  C   UNL     1       0.016  12.821  19.330  0.00  0.00    +0.014 C 
ATOM     43  H   UNL     1       0.498  12.210  18.557  0.00  0.00    +0.035 HD
ATOM     44  H   UNL     1       0.159  13.864  19.021  0.00  0.00    +0.035 HD
BRANCH  42  45
ATOM     45  C   UNL     1      -1.443  12.512  19.343  0.00  0.00    +0.134 A 
ATOM     46  N   UNL     1      -2.370  13.152  20.029  0.00  0.00    -0.135 NA
ATOM     47  N   UNL     1      -3.582  12.562  19.765  0.00  0.00    -0.138 NA
ATOM     48  C   UNL     1      -3.370  11.572  18.931  0.00  0.00    +0.120 A 
ATOM     49  N   UNL     1      -2.044  11.501  18.639  0.00  0.00    -0.320 N 
ATOM     50  H   UNL     1      -4.120  10.906  18.529  0.00  0.00    +0.105 HD
BRANCH  49  51
ATOM     51  C   UNL     1      -1.416  10.547  17.767  0.00  0.00    +0.014 C 
ATOM     52  H   UNL     1      -0.339  10.734  17.765  0.00  0.00    +0.046 HD
ATOM     53  H   UNL     1      -1.613   9.534  18.129  0.00  0.00    +0.046 HD
ATOM     54  H   UNL     1      -1.829  10.662  16.762  0.00  0.00    +0.046 HD
ENDBRANCH  49  51
ENDBRANCH  42  45
ENDBRANCH  36  42
ENDBRANCH   1  36
TORSDOF 9
ENDMDL
MODEL 21
REMARK VINA RESULT:    -7.598      2.806      4.073
REMARK INTER + INTRA:         -12.061
REMARK INTER:                 -11.382
REMARK INTRA:                  -0.678
REMARK UNBOUND:                -0.909
REMARK  Name = 
REMARK  9 active torsions:
REMARK  status: ('A' for Active; 'I' for Inactive)
REMARK    1  A    between atoms: C_1  and  C_2
REMARK    2  A    between atoms: C_2  and  C_3
REMARK    3  A    between atoms: C_2  and  C_10
REMARK    4  A    between atoms: C_3  and  C_4
REMARK    5  A    between atoms: N_8  and  C_9
REMARK    6  A    between atoms: C_14  and  N_15
REMARK    7  A    between atoms: C_16  and  C_18
REMARK    8  A    between atoms: C_20  and  C_21
REMARK    9  A    between atoms: C_26  and  C_27
REMARK                            x       y       z     vdW  Elec       q    Type
REMARK                         _______ _______ _______ _____ _____    ______ ____
ROOT
ATOM      1  C   UNL     1       0.178  11.435  21.201  0.00  0.00    -0.042 A 
ATOM      2  C   UNL     1      -0.572  11.283  22.374  0.00  0.00    -0.058 A 
ATOM      3  C   UNL     1      -0.631  10.049  23.019  0.00  0.00    -0.060 A 
ATOM      4  C   UNL     1       0.059   8.948  22.503  0.00  0.00    -0.040 A 
ATOM      5  C   UNL     1       0.815   9.075  21.340  0.00  0.00    +0.034 A 
ATOM      6  C   UNL     1       0.870  10.321  20.696  0.00  0.00    -0.037 A 
ATOM      7  H   UNL     1      -1.115  12.123  22.802  0.00  0.00    +0.062 HD
ATOM      8  H   UNL     1      -1.213   9.938  23.931  0.00  0.00    +0.062 HD
ATOM      9  H   UNL     1      -0.012   8.007  23.037  0.00  0.00    +0.064 HD
ATOM     10  H   UNL     1       1.463  10.430  19.792  0.00  0.00    +0.064 HD
ENDROOT
BRANCH   5  11
ATOM     11  N   UNL     1       1.540   8.021  20.759  0.00  0.00    -0.280 N 
ATOM     12  C   UNL     1       1.969   7.890  19.452  0.00  0.00    +0.267 C 
ATOM     13  O   UNL     1       1.804   8.680  18.531  0.00  0.00    -0.268 OA
ATOM     14  H   UNL     1       1.789   7.236  21.358  0.00  0.00    +0.155 HD
BRANCH  12  15
ATOM     15  C   UNL     1       2.717   6.610  19.211  0.00  0.00    +0.127 A 
ATOM     16  C   UNL     1       3.689   6.548  18.220  0.00  0.00    -0.026 A 
ATOM     17  C   UNL     1       4.390   5.353  17.997  0.00  0.00    -0.015 A 
ATOM     18  C   UNL     1       4.037   4.270  18.825  0.00  0.00    -0.026 A 
ATOM     19  C   UNL     1       3.049   4.393  19.809  0.00  0.00    +0.145 A 
ATOM     20  N   UNL     1       2.381   5.562  20.011  0.00  0.00    -0.238 NA
ATOM     21  H   UNL     1       3.903   7.427  17.617  0.00  0.00    +0.064 HD
ATOM     22  H   UNL     1       4.548   3.315  18.693  0.00  0.00    +0.064 HD
BRANCH  17  23
ATOM     23  C   UNL     1       5.502   5.238  16.877  0.00  0.00    +0.086 C 
ATOM     24  C   UNL     1       5.650   3.907  16.121  0.00  0.00    +0.001 C 
ATOM     25  C   UNL     1       5.616   4.772  14.866  0.00  0.00    +0.051 C 
ATOM     26  O   UNL     1       5.175   5.921  15.628  0.00  0.00    -0.372 OA
ATOM     27  H   UNL     1       6.465   5.617  17.246  0.00  0.00    +0.065 HD
ATOM     28  H   UNL     1       4.806   3.219  16.211  0.00  0.00    +0.032 HD
ATOM     29  H   UNL     1       6.587   3.372  16.296  0.00  0.00    +0.032 HD
ATOM     30  H   UNL     1       6.586   4.958  14.394  0.00  0.00    +0.056 HD
ATOM     31  H   UNL     1       4.882   4.475  14.113  0.00  0.00    +0.056 HD
ENDBRANCH  17  23
BRANCH  19  32
ATOM     32  C   UNL     1       2.721   3.180  20.672  0.00  0.00    +0.434 C 
ATOM     33  F   UNL     1       3.790   2.365  20.899  0.00  0.00    -0.164 F 
ATOM     34  F   UNL     1       1.761   2.385  20.116  0.00  0.00    -0.164 F 
ATOM     35  F   UNL     1       2.248   3.525  21.904  0.00  0.00    -0.164 F 
ENDBRANCH  19  32
ENDBRANCH  12  15
ENDBRANCH   5  11
BRANCH   1  36
ATOM     36  C   UNL     1       0.252  12.769  20.470  0.00  0.00    -0.012 C 
ATOM     37  H   UNL     1       0.424  13.556  21.218  0.00  0.00    +0.035 HD
BRANCH  36  38
ATOM     38  C   UNL     1      -1.085  13.088  19.790  0.00  0.00    -0.058 C 
ATOM     39  H   UNL     1      -1.500  12.196  19.308  0.00  0.00    +0.024 HD
ATOM     40  H   UNL     1      -0.978  13.861  19.021  0.00  0.00    +0.024 HD
ATOM     41  H   UNL     1      -1.823  13.441  20.517  0.00  0.00    +0.024 HD
ENDBRANCH  36  38
BRANCH  36  42
ATOM     42  C   UNL     1       1.432  12.779  19.475  0.00  0.00    +0.014 C 
ATOM     43  H   UNL     1       1.115  13.194  18.510  0.00  0.00    +0.035 HD
ATOM     44  H   UNL     1       1.762  11.753  19.268  0.00  0.00    +0.035 HD
BRANCH  42  45
ATOM     45  C   UNL     1       2.590  13.573  19.979  0.00  0.00    +0.134 A 
ATOM     46  N   UNL     1       3.076  13.552  21.204  0.00  0.00    -0.135 NA
ATOM     47  N   UNL     1       4.141  14.419  21.258  0.00  0.00    -0.138 NA
ATOM     48  C   UNL     1       4.279  14.954  20.069  0.00  0.00    +0.120 A 
ATOM     49  N   UNL     1       3.328  14.455  19.234  0.00  0.00    -0.320 N 
ATOM     50  H   UNL     1       5.025  15.680  19.780  0.00  0.00    +0.105 HD
BRANCH  49  51
ATOM     51  C   UNL     1       3.147  14.800  17.850  0.00  0.00    +0.014 C 
ATOM     52  H   UNL     1       4.074  14.582  17.314  0.00  0.00    +0.046 HD
ATOM     53  H   UNL     1       2.330  14.209  17.428  0.00  0.00    +0.046 HD
ATOM     54  H   UNL     1       2.903  15.862  17.781  0.00  0.00    +0.046 HD
ENDBRANCH  49  51
ENDBRANCH  42  45
ENDBRANCH  36  42
ENDBRANCH   1  36
TORSDOF 9
ENDMDL
MODEL 22
REMARK VINA RESULT:    -7.562      3.540      8.996
REMARK INTER + INTRA:         -12.008
REMARK INTER:                 -11.173
REMARK INTRA:                  -0.835
REMARK UNBOUND:                -0.909
REMARK  Name = 
REMARK  9 active torsions:
REMARK  status: ('A' for Active; 'I' for Inactive)
REMARK    1  A    between atoms: C_1  and  C_2
REMARK    2  A    between atoms: C_2  and  C_3
REMARK    3  A    between atoms: C_2  and  C_10
REMARK    4  A    between atoms: C_3  and  C_4
REMARK    5  A    between atoms: N_8  and  C_9
REMARK    6  A    between atoms: C_14  and  N_15
REMARK    7  A    between atoms: C_16  and  C_18
REMARK    8  A    between atoms: C_20  and  C_21
REMARK    9  A    between atoms: C_26  and  C_27
REMARK                            x       y       z     vdW  Elec       q    Type
REMARK                         _______ _______ _______ _____ _____    ______ ____
ROOT
ATOM      1  C   UNL     1       4.703   4.388  17.217  0.00  0.00    -0.042 A 
ATOM      2  C   UNL     1       3.976   3.193  17.295  0.00  0.00    -0.058 A 
ATOM      3  C   UNL     1       2.699   3.179  17.851  0.00  0.00    -0.060 A 
ATOM      4  C   UNL     1       2.126   4.358  18.337  0.00  0.00    -0.040 A 
ATOM      5  C   UNL     1       2.827   5.560  18.267  0.00  0.00    +0.034 A 
ATOM      6  C   UNL     1       4.113   5.567  17.705  0.00  0.00    -0.037 A 
ATOM      7  H   UNL     1       4.394   2.261  16.919  0.00  0.00    +0.062 HD
ATOM      8  H   UNL     1       2.139   2.248  17.906  0.00  0.00    +0.062 HD
ATOM      9  H   UNL     1       1.129   4.303  18.760  0.00  0.00    +0.064 HD
ATOM     10  H   UNL     1       4.664   6.502  17.642  0.00  0.00    +0.064 HD
ENDROOT
BRANCH   5  11
ATOM     11  N   UNL     1       2.322   6.787  18.729  0.00  0.00    -0.280 N 
ATOM     12  C   UNL     1       2.392   8.027  18.123  0.00  0.00    +0.267 C 
ATOM     13  O   UNL     1       2.909   8.304  17.048  0.00  0.00    -0.268 OA
ATOM     14  H   UNL     1       1.844   6.791  19.627  0.00  0.00    +0.155 HD
BRANCH  12  15
ATOM     15  C   UNL     1       1.734   9.107  18.933  0.00  0.00    +0.127 A 
ATOM     16  C   UNL     1       1.647  10.400  18.431  0.00  0.00    -0.026 A 
ATOM     17  C   UNL     1       1.028  11.408  19.186  0.00  0.00    -0.015 A 
ATOM     18  C   UNL     1       0.530  11.016  20.443  0.00  0.00    -0.026 A 
ATOM     19  C   UNL     1       0.647   9.696  20.897  0.00  0.00    +0.145 A 
ATOM     20  N   UNL     1       1.248   8.732  20.148  0.00  0.00    -0.238 NA
ATOM     21  H   UNL     1       2.060  10.627  17.451  0.00  0.00    +0.064 HD
ATOM     22  H   UNL     1       0.043  11.760  21.074  0.00  0.00    +0.064 HD
BRANCH  17  23
ATOM     23  C   UNL     1       0.912  12.893  18.652  0.00  0.00    +0.086 C 
ATOM     24  C   UNL     1      -0.472  13.420  18.236  0.00  0.00    +0.001 C 
ATOM     25  C   UNL     1      -0.131  14.617  19.115  0.00  0.00    +0.051 C 
ATOM     26  O   UNL     1       1.000  13.918  19.688  0.00  0.00    -0.372 OA
ATOM     27  H   UNL     1       1.680  13.093  17.891  0.00  0.00    +0.065 HD
ATOM     28  H   UNL     1      -1.324  12.833  18.591  0.00  0.00    +0.032 HD
ATOM     29  H   UNL     1      -0.589  13.638  17.171  0.00  0.00    +0.032 HD
ATOM     30  H   UNL     1       0.189  15.518  18.582  0.00  0.00    +0.056 HD
ATOM     31  H   UNL     1      -0.879  14.872  19.869  0.00  0.00    +0.056 HD
ENDBRANCH  17  23
BRANCH  19  32
ATOM     32  C   UNL     1       0.080   9.342  22.267  0.00  0.00    +0.434 C 
ATOM     33  F   UNL     1       1.034   9.036  23.192  0.00  0.00    -0.164 F 
ATOM     34  F   UNL     1      -0.754   8.263  22.225  0.00  0.00    -0.164 F 
ATOM     35  F   UNL     1      -0.652  10.356  22.810  0.00  0.00    -0.164 F 
ENDBRANCH  19  32
ENDBRANCH  12  15
ENDBRANCH   5  11
BRANCH   1  36
ATOM     36  C   UNL     1       6.105   4.432  16.623  0.00  0.00    -0.012 C 
ATOM     37  H   UNL     1       6.365   3.417  16.294  0.00  0.00    +0.035 HD
BRANCH  36  38
ATOM     38  C   UNL     1       7.131   4.829  17.692  0.00  0.00    -0.058 C 
ATOM     39  H   UNL     1       6.943   4.296  18.630  0.00  0.00    +0.024 HD
ATOM     40  H   UNL     1       7.100   5.903  17.908  0.00  0.00    +0.024 HD
ATOM     41  H   UNL     1       8.149   4.583  17.372  0.00  0.00    +0.024 HD
ENDBRANCH  36  38
BRANCH  36  42
ATOM     42  C   UNL     1       6.147   5.366  15.395  0.00  0.00    +0.014 C 
ATOM     43  H   UNL     1       7.025   6.022  15.443  0.00  0.00    +0.035 HD
ATOM     44  H   UNL     1       5.274   6.032  15.395  0.00  0.00    +0.035 HD
BRANCH  42  45
ATOM     45  C   UNL     1       6.183   4.609  14.110  0.00  0.00    +0.134 A 
ATOM     46  N   UNL     1       5.331   3.680  13.728  0.00  0.00    -0.135 NA
ATOM     47  N   UNL     1       5.711   3.235  12.484  0.00  0.00    -0.138 NA
ATOM     48  C   UNL     1       6.790   3.896  12.138  0.00  0.00    +0.120 A 
ATOM     49  N   UNL     1       7.124   4.768  13.126  0.00  0.00    -0.320 N 
ATOM     50  H   UNL     1       7.340   3.778  11.215  0.00  0.00    +0.105 HD
BRANCH  49  51
ATOM     51  C   UNL     1       8.247   5.666  13.122  0.00  0.00    +0.014 C 
ATOM     52  H   UNL     1       8.008   6.517  12.480  0.00  0.00    +0.046 HD
ATOM     53  H   UNL     1       8.440   6.016  14.140  0.00  0.00    +0.046 HD
ATOM     54  H   UNL     1       9.123   5.133  12.746  0.00  0.00    +0.046 HD
ENDBRANCH  49  51
ENDBRANCH  42  45
ENDBRANCH  36  42
ENDBRANCH   1  36
TORSDOF 9
ENDMDL
MODEL 23
REMARK VINA RESULT:    -7.548      3.142      4.622
REMARK INTER + INTRA:         -11.986
REMARK INTER:                 -11.266
REMARK INTRA:                  -0.720
REMARK UNBOUND:                -0.909
REMARK  Name = 
REMARK  9 active torsions:
REMARK  status: ('A' for Active; 'I' for Inactive)
REMARK    1  A    between atoms: C_1  and  C_2
REMARK    2  A    between atoms: C_2  and  C_3
REMARK    3  A    between atoms: C_2  and  C_10
REMARK    4  A    between atoms: C_3  and  C_4
REMARK    5  A    between atoms: N_8  and  C_9
REMARK    6  A    between atoms: C_14  and  N_15
REMARK    7  A    between atoms: C_16  and  C_18
REMARK    8  A    between atoms: C_20  and  C_21
REMARK    9  A    between atoms: C_26  and  C_27
REMARK                            x       y       z     vdW  Elec       q    Type
REMARK                         _______ _______ _______ _____ _____    ______ ____
ROOT
ATOM      1  C   UNL     1      -0.934  11.074  20.558  0.00  0.00    -0.042 A 
ATOM      2  C   UNL     1      -0.983  11.224  21.950  0.00  0.00    -0.058 A 
ATOM      3  C   UNL     1      -0.289  10.345  22.779  0.00  0.00    -0.060 A 
ATOM      4  C   UNL     1       0.465   9.303  22.233  0.00  0.00    -0.040 A 
ATOM      5  C   UNL     1       0.534   9.136  20.851  0.00  0.00    +0.034 A 
ATOM      6  C   UNL     1      -0.167  10.025  20.022  0.00  0.00    -0.037 A 
ATOM      7  H   UNL     1      -1.557  12.029  22.403  0.00  0.00    +0.062 HD
ATOM      8  H   UNL     1      -0.330  10.469  23.859  0.00  0.00    +0.062 HD
ATOM      9  H   UNL     1       0.991   8.644  22.914  0.00  0.00    +0.064 HD
ATOM     10  H   UNL     1      -0.114   9.904  18.943  0.00  0.00    +0.064 HD
ENDROOT
BRANCH   5  11
ATOM     11  N   UNL     1       1.272   8.118  20.223  0.00  0.00    -0.280 N 
ATOM     12  C   UNL     1       1.998   8.183  19.049  0.00  0.00    +0.267 C 
ATOM     13  O   UNL     1       2.148   9.155  18.318  0.00  0.00    -0.268 OA
ATOM     14  H   UNL     1       1.284   7.203  20.668  0.00  0.00    +0.155 HD
BRANCH  12  15
ATOM     15  C   UNL     1       2.651   6.878  18.696  0.00  0.00    +0.127 A 
ATOM     16  C   UNL     1       2.257   5.708  19.334  0.00  0.00    -0.026 A 
ATOM     17  C   UNL     1       2.865   4.487  19.002  0.00  0.00    -0.015 A 
ATOM     18  C   UNL     1       3.867   4.549  18.015  0.00  0.00    -0.026 A 
ATOM     19  C   UNL     1       4.221   5.759  17.406  0.00  0.00    +0.145 A 
ATOM     20  N   UNL     1       3.618   6.932  17.741  0.00  0.00    -0.238 NA
ATOM     21  H   UNL     1       1.478   5.741  20.092  0.00  0.00    +0.064 HD
ATOM     22  H   UNL     1       4.376   3.630  17.720  0.00  0.00    +0.064 HD
BRANCH  17  23
ATOM     23  C   UNL     1       2.449   3.133  19.707  0.00  0.00    +0.086 C 
ATOM     24  C   UNL     1       2.975   2.848  21.124  0.00  0.00    +0.001 C 
ATOM     25  C   UNL     1       1.522   2.529  21.453  0.00  0.00    +0.051 C 
ATOM     26  O   UNL     1       1.076   3.104  20.201  0.00  0.00    -0.372 OA
ATOM     27  H   UNL     1       2.598   2.281  19.028  0.00  0.00    +0.065 HD
ATOM     28  H   UNL     1       3.375   3.714  21.659  0.00  0.00    +0.032 HD
ATOM     29  H   UNL     1       3.670   2.008  21.205  0.00  0.00    +0.032 HD
ATOM     30  H   UNL     1       1.273   1.465  21.510  0.00  0.00    +0.056 HD
ATOM     31  H   UNL     1       1.110   3.058  22.315  0.00  0.00    +0.056 HD
ENDBRANCH  17  23
BRANCH  19  32
ATOM     32  C   UNL     1       5.312   5.750  16.341  0.00  0.00    +0.434 C 
ATOM     33  F   UNL     1       6.508   6.238  16.778  0.00  0.00    -0.164 F 
ATOM     34  F   UNL     1       4.983   6.499  15.249  0.00  0.00    -0.164 F 
ATOM     35  F   UNL     1       5.572   4.498  15.867  0.00  0.00    -0.164 F 
ENDBRANCH  19  32
ENDBRANCH  12  15
ENDBRANCH   5  11
BRANCH   1  36
ATOM     36  C   UNL     1      -1.689  12.013  19.627  0.00  0.00    -0.012 C 
ATOM     37  H   UNL     1      -2.721  12.096  19.994  0.00  0.00    +0.035 HD
BRANCH  36  38
ATOM     38  C   UNL     1      -1.768  11.423  18.213  0.00  0.00    -0.058 C 
ATOM     39  H   UNL     1      -2.615  11.845  17.661  0.00  0.00    +0.024 HD
ATOM     40  H   UNL     1      -1.893  10.335  18.232  0.00  0.00    +0.024 HD
ATOM     41  H   UNL     1      -0.861  11.645  17.642  0.00  0.00    +0.024 HD
ENDBRANCH  36  38
BRANCH  36  42
ATOM     42  C   UNL     1      -1.054  13.420  19.641  0.00  0.00    +0.014 C 
ATOM     43  H   UNL     1      -1.190  13.892  20.622  0.00  0.00    +0.035 HD
ATOM     44  H   UNL     1      -1.563  14.072  18.920  0.00  0.00    +0.035 HD
BRANCH  42  45
ATOM     45  C   UNL     1       0.403  13.385  19.324  0.00  0.00    +0.134 A 
ATOM     46  N   UNL     1       0.945  13.005  18.185  0.00  0.00    -0.135 NA
ATOM     47  N   UNL     1       2.310  13.125  18.298  0.00  0.00    -0.138 NA
ATOM     48  C   UNL     1       2.571  13.568  19.504  0.00  0.00    +0.120 A 
ATOM     49  N   UNL     1       1.407  13.745  20.185  0.00  0.00    -0.320 N 
ATOM     50  H   UNL     1       3.553  13.767  19.911  0.00  0.00    +0.105 HD
BRANCH  49  51
ATOM     51  C   UNL     1       1.277  14.214  21.538  0.00  0.00    +0.014 C 
ATOM     52  H   UNL     1       0.228  14.456  21.722  0.00  0.00    +0.046 HD
ATOM     53  H   UNL     1       1.602  13.431  22.230  0.00  0.00    +0.046 HD
ATOM     54  H   UNL     1       1.905  15.098  21.666  0.00  0.00    +0.046 HD
ENDBRANCH  49  51
ENDBRANCH  42  45
ENDBRANCH  36  42
ENDBRANCH   1  36
TORSDOF 9
ENDMDL
MODEL 24
REMARK VINA RESULT:    -7.531      3.632      5.294
REMARK INTER + INTRA:         -11.962
REMARK INTER:                 -11.362
REMARK INTRA:                  -0.601
REMARK UNBOUND:                -0.909
REMARK  Name = 
REMARK  9 active torsions:
REMARK  status: ('A' for Active; 'I' for Inactive)
REMARK    1  A    between atoms: C_1  and  C_2
REMARK    2  A    between atoms: C_2  and  C_3
REMARK    3  A    between atoms: C_2  and  C_10
REMARK    4  A    between atoms: C_3  and  C_4
REMARK    5  A    between atoms: N_8  and  C_9
REMARK    6  A    between atoms: C_14  and  N_15
REMARK    7  A    between atoms: C_16  and  C_18
REMARK    8  A    between atoms: C_20  and  C_21
REMARK    9  A    between atoms: C_26  and  C_27
REMARK                            x       y       z     vdW  Elec       q    Type
REMARK                         _______ _______ _______ _____ _____    ______ ____
ROOT
ATOM      1  C   UNL     1       0.153  11.585  20.985  0.00  0.00    -0.042 A 
ATOM      2  C   UNL     1      -0.474  11.390  22.222  0.00  0.00    -0.058 A 
ATOM      3  C   UNL     1      -0.475  10.132  22.823  0.00  0.00    -0.060 A 
ATOM      4  C   UNL     1       0.151   9.050  22.198  0.00  0.00    -0.040 A 
ATOM      5  C   UNL     1       0.786   9.219  20.970  0.00  0.00    +0.034 A 
ATOM      6  C   UNL     1       0.783  10.488  20.371  0.00  0.00    -0.037 A 
ATOM      7  H   UNL     1      -0.965  12.215  22.734  0.00  0.00    +0.062 HD
ATOM      8  H   UNL     1      -0.962   9.989  23.784  0.00  0.00    +0.062 HD
ATOM      9  H   UNL     1       0.128   8.089  22.702  0.00  0.00    +0.064 HD
ATOM     10  H   UNL     1       1.282  10.629  19.415  0.00  0.00    +0.064 HD
ENDROOT
BRANCH   5  11
ATOM     11  N   UNL     1       1.441   8.185  20.279  0.00  0.00    -0.280 N 
ATOM     12  C   UNL     1       2.017   8.220  19.024  0.00  0.00    +0.267 C 
ATOM     13  O   UNL     1       2.076   9.174  18.257  0.00  0.00    -0.268 OA
ATOM     14  H   UNL     1       1.508   7.280  20.741  0.00  0.00    +0.155 HD
BRANCH  12  15
ATOM     15  C   UNL     1       2.622   6.905  18.625  0.00  0.00    +0.127 A 
ATOM     16  C   UNL     1       2.215   5.733  19.250  0.00  0.00    -0.026 A 
ATOM     17  C   UNL     1       2.778   4.503  18.875  0.00  0.00    -0.015 A 
ATOM     18  C   UNL     1       3.750   4.558  17.858  0.00  0.00    -0.026 A 
ATOM     19  C   UNL     1       4.120   5.771  17.264  0.00  0.00    +0.145 A 
ATOM     20  N   UNL     1       3.560   6.953  17.640  0.00  0.00    -0.238 NA
ATOM     21  H   UNL     1       1.460   5.772  20.032  0.00  0.00    +0.064 HD
ATOM     22  H   UNL     1       4.224   3.632  17.529  0.00  0.00    +0.064 HD
BRANCH  17  23
ATOM     23  C   UNL     1       2.345   3.147  19.564  0.00  0.00    +0.086 C 
ATOM     24  C   UNL     1       2.861   2.843  20.981  0.00  0.00    +0.001 C 
ATOM     25  C   UNL     1       1.403   2.535  21.300  0.00  0.00    +0.051 C 
ATOM     26  O   UNL     1       0.969   3.126  20.051  0.00  0.00    -0.372 OA
ATOM     27  H   UNL     1       2.490   2.300  18.879  0.00  0.00    +0.065 HD
ATOM     28  H   UNL     1       3.265   3.700  21.527  0.00  0.00    +0.032 HD
ATOM     29  H   UNL     1       3.547   1.996  21.058  0.00  0.00    +0.032 HD
ATOM     30  H   UNL     1       1.144   1.473  21.345  0.00  0.00    +0.056 HD
ATOM     31  H   UNL     1       0.992   3.059  22.165  0.00  0.00    +0.056 HD
ENDBRANCH  17  23
BRANCH  19  32
ATOM     32  C   UNL     1       5.176   5.754  16.165  0.00  0.00    +0.434 C 
ATOM     33  F   UNL     1       4.977   6.696  15.199  0.00  0.00    -0.164 F 
ATOM     34  F   UNL     1       5.233   4.558  15.511  0.00  0.00    -0.164 F 
ATOM     35  F   UNL     1       6.434   5.974  16.644  0.00  0.00    -0.164 F 
ENDBRANCH  19  32
ENDBRANCH  12  15
ENDBRANCH   5  11
BRANCH   1  36
ATOM     36  C   UNL     1       0.162  12.945  20.300  0.00  0.00    -0.012 C 
ATOM     37  H   UNL     1       0.311  13.712  21.073  0.00  0.00    +0.035 HD
BRANCH  36  38
ATOM     38  C   UNL     1      -1.197  13.230  19.648  0.00  0.00    -0.058 C 
ATOM     39  H   UNL     1      -1.865  13.743  20.349  0.00  0.00    +0.024 HD
ATOM     40  H   UNL     1      -1.696  12.308  19.328  0.00  0.00    +0.024 HD
ATOM     41  H   UNL     1      -1.086  13.872  18.769  0.00  0.00    +0.024 HD
ENDBRANCH  36  38
BRANCH  36  42
ATOM     42  C   UNL     1       1.327  13.039  19.292  0.00  0.00    +0.014 C 
ATOM     43  H   UNL     1       1.013  13.587  18.395  0.00  0.00    +0.035 HD
ATOM     44  H   UNL     1       1.612  12.037  18.948  0.00  0.00    +0.035 HD
BRANCH  42  45
ATOM     45  C   UNL     1       2.523  13.716  19.872  0.00  0.00    +0.134 A 
ATOM     46  N   UNL     1       2.909  13.674  21.131  0.00  0.00    -0.135 NA
ATOM     47  N   UNL     1       4.055  14.422  21.254  0.00  0.00    -0.138 NA
ATOM     48  C   UNL     1       4.341  14.909  20.070  0.00  0.00    +0.120 A 
ATOM     49  N   UNL     1       3.407  14.494  19.172  0.00  0.00    -0.320 N 
ATOM     50  H   UNL     1       5.182  15.543  19.828  0.00  0.00    +0.105 HD
BRANCH  49  51
ATOM     51  C   UNL     1       3.371  14.821  17.772  0.00  0.00    +0.014 C 
ATOM     52  H   UNL     1       3.585  13.916  17.199  0.00  0.00    +0.046 HD
ATOM     53  H   UNL     1       2.379  15.198  17.509  0.00  0.00    +0.046 HD
ATOM     54  H   UNL     1       4.120  15.591  17.571  0.00  0.00    +0.046 HD
ENDBRANCH  49  51
ENDBRANCH  42  45
ENDBRANCH  36  42
ENDBRANCH   1  36
TORSDOF 9
ENDMDL
MODEL 25
REMARK VINA RESULT:    -7.525      2.630      3.993
REMARK INTER + INTRA:         -11.953
REMARK INTER:                 -10.672
REMARK INTRA:                  -1.281
REMARK UNBOUND:                -0.909
REMARK  Name = 
REMARK  9 active torsions:
REMARK  status: ('A' for Active; 'I' for Inactive)
REMARK    1  A    between atoms: C_1  and  C_2
REMARK    2  A    between atoms: C_2  and  C_3
REMARK    3  A    between atoms: C_2  and  C_10
REMARK    4  A    between atoms: C_3  and  C_4
REMARK    5  A    between atoms: N_8  and  C_9
REMARK    6  A    between atoms: C_14  and  N_15
REMARK    7  A    between atoms: C_16  and  C_18
REMARK    8  A    between atoms: C_20  and  C_21
REMARK    9  A    between atoms: C_26  and  C_27
REMARK                            x       y       z     vdW  Elec       q    Type
REMARK                         _______ _______ _______ _____ _____    ______ ____
ROOT
ATOM      1  C   UNL     1      -0.646  11.997  20.915  0.00  0.00    -0.042 A 
ATOM      2  C   UNL     1      -1.688  12.277  20.022  0.00  0.00    -0.058 A 
ATOM      3  C   UNL     1      -1.900  11.468  18.908  0.00  0.00    -0.060 A 
ATOM      4  C   UNL     1      -1.075  10.365  18.668  0.00  0.00    -0.040 A 
ATOM      5  C   UNL     1      -0.034  10.063  19.544  0.00  0.00    +0.034 A 
ATOM      6  C   UNL     1       0.172  10.881  20.664  0.00  0.00    -0.037 A 
ATOM      7  H   UNL     1      -2.349  13.126  20.187  0.00  0.00    +0.062 HD
ATOM      8  H   UNL     1      -2.712  11.690  18.220  0.00  0.00    +0.062 HD
ATOM      9  H   UNL     1      -1.276   9.761  17.790  0.00  0.00    +0.064 HD
ATOM     10  H   UNL     1       0.978  10.649  21.355  0.00  0.00    +0.064 HD
ENDROOT
BRANCH   5  11
ATOM     11  N   UNL     1       0.835   8.972  19.377  0.00  0.00    -0.280 N 
ATOM     12  C   UNL     1       1.817   8.794  18.422  0.00  0.00    +0.267 C 
ATOM     13  O   UNL     1       2.132   9.565  17.523  0.00  0.00    -0.268 OA
ATOM     14  H   UNL     1       0.746   8.195  20.030  0.00  0.00    +0.155 HD
BRANCH  12  15
ATOM     15  C   UNL     1       2.541   7.486  18.568  0.00  0.00    +0.127 A 
ATOM     16  C   UNL     1       3.713   7.256  17.859  0.00  0.00    -0.026 A 
ATOM     17  C   UNL     1       4.392   6.035  17.999  0.00  0.00    -0.015 A 
ATOM     18  C   UNL     1       3.804   5.103  18.876  0.00  0.00    -0.026 A 
ATOM     19  C   UNL     1       2.620   5.392  19.564  0.00  0.00    +0.145 A 
ATOM     20  N   UNL     1       1.979   6.583  19.417  0.00  0.00    -0.238 NA
ATOM     21  H   UNL     1       4.103   8.024  17.196  0.00  0.00    +0.064 HD
ATOM     22  H   UNL     1       4.287   4.136  19.020  0.00  0.00    +0.064 HD
BRANCH  17  23
ATOM     23  C   UNL     1       5.728   5.731  17.207  0.00  0.00    +0.086 C 
ATOM     24  C   UNL     1       7.066   6.165  17.828  0.00  0.00    +0.001 C 
ATOM     25  C   UNL     1       7.513   4.739  17.526  0.00  0.00    +0.051 C 
ATOM     26  O   UNL     1       6.151   4.335  17.247  0.00  0.00    -0.372 OA
ATOM     27  H   UNL     1       5.636   6.043  16.157  0.00  0.00    +0.065 HD
ATOM     28  H   UNL     1       7.033   6.406  18.895  0.00  0.00    +0.032 HD
ATOM     29  H   UNL     1       7.601   6.949  17.286  0.00  0.00    +0.032 HD
ATOM     30  H   UNL     1       8.150   4.621  16.644  0.00  0.00    +0.056 HD
ATOM     31  H   UNL     1       7.937   4.193  18.372  0.00  0.00    +0.056 HD
ENDBRANCH  17  23
BRANCH  19  32
ATOM     32  C   UNL     1       2.043   4.337  20.501  0.00  0.00    +0.434 C 
ATOM     33  F   UNL     1       2.366   4.534  21.812  0.00  0.00    -0.164 F 
ATOM     34  F   UNL     1       2.472   3.078  20.199  0.00  0.00    -0.164 F 
ATOM     35  F   UNL     1       0.681   4.285  20.458  0.00  0.00    -0.164 F 
ENDBRANCH  19  32
ENDBRANCH  12  15
ENDBRANCH   5  11
BRANCH   1  36
ATOM     36  C   UNL     1      -0.385  12.869  22.136  0.00  0.00    -0.012 C 
ATOM     37  H   UNL     1       0.489  12.461  22.663  0.00  0.00    +0.035 HD
BRANCH  36  38
ATOM     38  C   UNL     1      -1.565  12.797  23.113  0.00  0.00    -0.058 C 
ATOM     39  H   UNL     1      -1.460  13.544  23.908  0.00  0.00    +0.024 HD
ATOM     40  H   UNL     1      -1.640  11.813  23.590  0.00  0.00    +0.024 HD
ATOM     41  H   UNL     1      -2.513  12.993  22.602  0.00  0.00    +0.024 HD
ENDBRANCH  36  38
BRANCH  36  42
ATOM     42  C   UNL     1      -0.063  14.317  21.712  0.00  0.00    +0.014 C 
ATOM     43  H   UNL     1       0.063  14.956  22.595  0.00  0.00    +0.035 HD
ATOM     44  H   UNL     1      -0.904  14.744  21.150  0.00  0.00    +0.035 HD
BRANCH  42  45
ATOM     45  C   UNL     1       1.172  14.401  20.880  0.00  0.00    +0.134 A 
ATOM     46  N   UNL     1       2.396  14.105  21.269  0.00  0.00    -0.135 NA
ATOM     47  N   UNL     1       3.245  14.311  20.207  0.00  0.00    -0.138 NA
ATOM     48  C   UNL     1       2.523  14.735  19.198  0.00  0.00    +0.120 A 
ATOM     49  N   UNL     1       1.218  14.809  19.572  0.00  0.00    -0.320 N 
ATOM     50  H   UNL     1       2.892  14.991  18.215  0.00  0.00    +0.105 HD
BRANCH  49  51
ATOM     51  C   UNL     1       0.121  15.235  18.747  0.00  0.00    +0.014 C 
ATOM     52  H   UNL     1      -0.505  14.366  18.526  0.00  0.00    +0.046 HD
ATOM     53  H   UNL     1      -0.468  15.986  19.279  0.00  0.00    +0.046 HD
ATOM     54  H   UNL     1       0.519  15.667  17.827  0.00  0.00    +0.046 HD
ENDBRANCH  49  51
ENDBRANCH  42  45
ENDBRANCH  36  42
ENDBRANCH   1  36
TORSDOF 9
ENDMDL
MODEL 26
REMARK VINA RESULT:    -7.510      3.359      4.456
REMARK INTER + INTRA:         -11.931
REMARK INTER:                 -11.208
REMARK INTRA:                  -0.723
REMARK UNBOUND:                -0.909
REMARK  Name = 
REMARK  9 active torsions:
REMARK  status: ('A' for Active; 'I' for Inactive)
REMARK    1  A    between atoms: C_1  and  C_2
REMARK    2  A    between atoms: C_2  and  C_3
REMARK    3  A    between atoms: C_2  and  C_10
REMARK    4  A    between atoms: C_3  and  C_4
REMARK    5  A    between atoms: N_8  and  C_9
REMARK    6  A    between atoms: C_14  and  N_15
REMARK    7  A    between atoms: C_16  and  C_18
REMARK    8  A    between atoms: C_20  and  C_21
REMARK    9  A    between atoms: C_26  and  C_27
REMARK                            x       y       z     vdW  Elec       q    Type
REMARK                         _______ _______ _______ _____ _____    ______ ____
ROOT
ATOM      1  C   UNL     1      -0.370  10.634  20.598  0.00  0.00    -0.042 A 
ATOM      2  C   UNL     1      -0.285  10.643  21.996  0.00  0.00    -0.058 A 
ATOM      3  C   UNL     1       0.487   9.694  22.663  0.00  0.00    -0.060 A 
ATOM      4  C   UNL     1       1.187   8.721  21.944  0.00  0.00    -0.040 A 
ATOM      5  C   UNL     1       1.123   8.693  20.553  0.00  0.00    +0.034 A 
ATOM      6  C   UNL     1       0.344   9.652  19.888  0.00  0.00    -0.037 A 
ATOM      7  H   UNL     1      -0.815  11.392  22.582  0.00  0.00    +0.062 HD
ATOM      8  H   UNL     1       0.550   9.708  23.749  0.00  0.00    +0.062 HD
ATOM      9  H   UNL     1       1.777   8.002  22.503  0.00  0.00    +0.064 HD
ATOM     10  H   UNL     1       0.293   9.641  18.802  0.00  0.00    +0.064 HD
ENDROOT
BRANCH   5  11
ATOM     11  N   UNL     1       1.799   7.753  19.757  0.00  0.00    -0.280 N 
ATOM     12  C   UNL     1       2.363   7.931  18.509  0.00  0.00    +0.267 C 
ATOM     13  O   UNL     1       2.390   8.958  17.843  0.00  0.00    -0.268 OA
ATOM     14  H   UNL     1       1.893   6.808  20.125  0.00  0.00    +0.155 HD
BRANCH  12  15
ATOM     15  C   UNL     1       2.999   6.680  17.975  0.00  0.00    +0.127 A 
ATOM     16  C   UNL     1       2.353   5.457  18.111  0.00  0.00    -0.026 A 
ATOM     17  C   UNL     1       2.945   4.288  17.609  0.00  0.00    -0.015 A 
ATOM     18  C   UNL     1       4.198   4.453  16.986  0.00  0.00    -0.026 A 
ATOM     19  C   UNL     1       4.800   5.712  16.878  0.00  0.00    +0.145 A 
ATOM     20  N   UNL     1       4.208   6.834  17.370  0.00  0.00    -0.238 NA
ATOM     21  H   UNL     1       1.387   5.408  18.609  0.00  0.00    +0.064 HD
ATOM     22  H   UNL     1       4.706   3.578  16.581  0.00  0.00    +0.064 HD
BRANCH  17  23
ATOM     23  C   UNL     1       2.245   2.876  17.747  0.00  0.00    +0.086 C 
ATOM     24  C   UNL     1       2.889   1.821  18.662  0.00  0.00    +0.001 C 
ATOM     25  C   UNL     1       1.490   1.673  19.249  0.00  0.00    +0.051 C 
ATOM     26  O   UNL     1       1.043   2.874  18.575  0.00  0.00    -0.372 OA
ATOM     27  H   UNL     1       1.993   2.470  16.757  0.00  0.00    +0.065 HD
ATOM     28  H   UNL     1       3.632   2.202  19.368  0.00  0.00    +0.032 HD
ATOM     29  H   UNL     1       3.280   0.936  18.153  0.00  0.00    +0.032 HD
ATOM     30  H   UNL     1       0.927   0.798  18.913  0.00  0.00    +0.056 HD
ATOM     31  H   UNL     1       1.426   1.766  20.336  0.00  0.00    +0.056 HD
ENDBRANCH  17  23
BRANCH  19  32
ATOM     32  C   UNL     1       6.155   5.817  16.187  0.00  0.00    +0.434 C 
ATOM     33  F   UNL     1       6.878   6.912  16.562  0.00  0.00    -0.164 F 
ATOM     34  F   UNL     1       6.046   5.892  14.829  0.00  0.00    -0.164 F 
ATOM     35  F   UNL     1       6.955   4.741  16.436  0.00  0.00    -0.164 F 
ENDBRANCH  19  32
ENDBRANCH  12  15
ENDBRANCH   5  11
BRANCH   1  36
ATOM     36  C   UNL     1      -1.213  11.653  19.843  0.00  0.00    -0.012 C 
ATOM     37  H   UNL     1      -2.164  11.172  19.574  0.00  0.00    +0.035 HD
BRANCH  36  38
ATOM     38  C   UNL     1      -0.530  12.050  18.529  0.00  0.00    -0.058 C 
ATOM     39  H   UNL     1      -0.931  11.471  17.690  0.00  0.00    +0.024 HD
ATOM     40  H   UNL     1       0.552  11.879  18.564  0.00  0.00    +0.024 HD
ATOM     41  H   UNL     1      -0.692  13.109  18.304  0.00  0.00    +0.024 HD
ENDBRANCH  36  38
BRANCH  36  42
ATOM     42  C   UNL     1      -1.521  12.873  20.736  0.00  0.00    +0.014 C 
ATOM     43  H   UNL     1      -1.208  13.800  20.239  0.00  0.00    +0.035 HD
ATOM     44  H   UNL     1      -0.939  12.819  21.665  0.00  0.00    +0.035 HD
BRANCH  42  45
ATOM     45  C   UNL     1      -2.970  12.976  21.073  0.00  0.00    +0.134 A 
ATOM     46  N   UNL     1      -3.978  12.656  20.286  0.00  0.00    -0.135 NA
ATOM     47  N   UNL     1      -5.147  12.893  20.970  0.00  0.00    -0.138 NA
ATOM     48  C   UNL     1      -4.828  13.358  22.154  0.00  0.00    +0.120 A 
ATOM     49  N   UNL     1      -3.475  13.429  22.264  0.00  0.00    -0.320 N 
ATOM     50  H   UNL     1      -5.520  13.645  22.932  0.00  0.00    +0.105 HD
BRANCH  49  51
ATOM     51  C   UNL     1      -2.739  13.892  23.409  0.00  0.00    +0.014 C 
ATOM     52  H   UNL     1      -3.234  13.526  24.311  0.00  0.00    +0.046 HD
ATOM     53  H   UNL     1      -1.716  13.508  23.368  0.00  0.00    +0.046 HD
ATOM     54  H   UNL     1      -2.720  14.984  23.397  0.00  0.00    +0.046 HD
ENDBRANCH  49  51
ENDBRANCH  42  45
ENDBRANCH  36  42
ENDBRANCH   1  36
TORSDOF 9
ENDMDL
MODEL 27
REMARK VINA RESULT:    -7.480      4.417      9.693
REMARK INTER + INTRA:         -11.887
REMARK INTER:                 -11.008
REMARK INTRA:                  -0.879
REMARK UNBOUND:                -0.909
REMARK  Name = 
REMARK  9 active torsions:
REMARK  status: ('A' for Active; 'I' for Inactive)
REMARK    1  A    between atoms: C_1  and  C_2
REMARK    2  A    between atoms: C_2  and  C_3
REMARK    3  A    between atoms: C_2  and  C_10
REMARK    4  A    between atoms: C_3  and  C_4
REMARK    5  A    between atoms: N_8  and  C_9
REMARK    6  A    between atoms: C_14  and  N_15
REMARK    7  A    between atoms: C_16  and  C_18
REMARK    8  A    between atoms: C_20  and  C_21
REMARK    9  A    between atoms: C_26  and  C_27
REMARK                            x       y       z     vdW  Elec       q    Type
REMARK                         _______ _______ _______ _____ _____    ______ ____
ROOT
ATOM      1  C   UNL     1       3.482   5.745  19.033  0.00  0.00    -0.042 A 
ATOM      2  C   UNL     1       3.289   4.624  19.850  0.00  0.00    -0.058 A 
ATOM      3  C   UNL     1       2.316   4.636  20.847  0.00  0.00    -0.060 A 
ATOM      4  C   UNL     1       1.521   5.768  21.045  0.00  0.00    -0.040 A 
ATOM      5  C   UNL     1       1.690   6.895  20.243  0.00  0.00    +0.034 A 
ATOM      6  C   UNL     1       2.671   6.874  19.240  0.00  0.00    -0.037 A 
ATOM      7  H   UNL     1       3.889   3.726  19.715  0.00  0.00    +0.062 HD
ATOM      8  H   UNL     1       2.170   3.761  21.477  0.00  0.00    +0.062 HD
ATOM      9  H   UNL     1       0.774   5.735  21.832  0.00  0.00    +0.064 HD
ATOM     10  H   UNL     1       2.805   7.747  18.606  0.00  0.00    +0.064 HD
ENDROOT
BRANCH   5  11
ATOM     11  N   UNL     1       0.930   8.069  20.374  0.00  0.00    -0.280 N 
ATOM     12  C   UNL     1       0.922   8.976  21.417  0.00  0.00    +0.267 C 
ATOM     13  O   UNL     1       1.589   8.937  22.443  0.00  0.00    -0.268 OA
ATOM     14  H   UNL     1       0.289   8.301  19.618  0.00  0.00    +0.155 HD
BRANCH  12  15
ATOM     15  C   UNL     1      -0.035  10.111  21.192  0.00  0.00    +0.127 A 
ATOM     16  C   UNL     1      -0.508  10.848  22.271  0.00  0.00    -0.026 A 
ATOM     17  C   UNL     1      -1.399  11.911  22.061  0.00  0.00    -0.015 A 
ATOM     18  C   UNL     1      -1.761  12.153  20.722  0.00  0.00    -0.026 A 
ATOM     19  C   UNL     1      -1.251  11.377  19.674  0.00  0.00    +0.145 A 
ATOM     20  N   UNL     1      -0.385  10.351  19.899  0.00  0.00    -0.238 NA
ATOM     21  H   UNL     1      -0.186  10.597  23.279  0.00  0.00    +0.064 HD
ATOM     22  H   UNL     1      -2.454  12.966  20.500  0.00  0.00    +0.064 HD
BRANCH  17  23
ATOM     23  C   UNL     1      -1.963  12.772  23.263  0.00  0.00    +0.086 C 
ATOM     24  C   UNL     1      -2.578  14.149  22.957  0.00  0.00    +0.001 C 
ATOM     25  C   UNL     1      -3.745  13.666  23.811  0.00  0.00    +0.051 C 
ATOM     26  O   UNL     1      -3.243  12.308  23.792  0.00  0.00    -0.372 OA
ATOM     27  H   UNL     1      -1.235  12.815  24.085  0.00  0.00    +0.065 HD
ATOM     28  H   UNL     1      -2.835  14.326  21.909  0.00  0.00    +0.032 HD
ATOM     29  H   UNL     1      -2.028  15.005  23.355  0.00  0.00    +0.032 HD
ATOM     30  H   UNL     1      -3.779  14.061  24.831  0.00  0.00    +0.056 HD
ATOM     31  H   UNL     1      -4.730  13.744  23.344  0.00  0.00    +0.056 HD
ENDBRANCH  17  23
BRANCH  19  32
ATOM     32  C   UNL     1      -1.682  11.699  18.248  0.00  0.00    +0.434 C 
ATOM     33  F   UNL     1      -1.058  12.791  17.721  0.00  0.00    -0.164 F 
ATOM     34  F   UNL     1      -3.019  11.954  18.151  0.00  0.00    -0.164 F 
ATOM     35  F   UNL     1      -1.436  10.675  17.382  0.00  0.00    -0.164 F 
ENDBRANCH  19  32
ENDBRANCH  12  15
ENDBRANCH   5  11
BRANCH   1  36
ATOM     36  C   UNL     1       4.543   5.764  17.941  0.00  0.00    -0.012 C 
ATOM     37  H   UNL     1       5.526   5.844  18.425  0.00  0.00    +0.035 HD
BRANCH  36  38
ATOM     38  C   UNL     1       4.382   7.005  17.054  0.00  0.00    -0.058 C 
ATOM     39  H   UNL     1       5.358   7.441  16.813  0.00  0.00    +0.024 HD
ATOM     40  H   UNL     1       3.784   7.781  17.544  0.00  0.00    +0.024 HD
ATOM     41  H   UNL     1       3.893   6.754  16.108  0.00  0.00    +0.024 HD
ENDBRANCH  36  38
BRANCH  36  42
ATOM     42  C   UNL     1       4.509   4.453  17.127  0.00  0.00    +0.014 C 
ATOM     43  H   UNL     1       3.499   4.270  16.738  0.00  0.00    +0.035 HD
ATOM     44  H   UNL     1       4.742   3.598  17.774  0.00  0.00    +0.035 HD
BRANCH  42  45
ATOM     45  C   UNL     1       5.465   4.474  15.982  0.00  0.00    +0.134 A 
ATOM     46  N   UNL     1       5.151   4.432  14.703  0.00  0.00    -0.135 NA
ATOM     47  N   UNL     1       6.316   4.475  13.974  0.00  0.00    -0.138 NA
ATOM     48  C   UNL     1       7.314   4.536  14.822  0.00  0.00    +0.120 A 
ATOM     49  N   UNL     1       6.829   4.536  16.093  0.00  0.00    -0.320 N 
ATOM     50  H   UNL     1       8.363   4.578  14.569  0.00  0.00    +0.105 HD
BRANCH  49  51
ATOM     51  C   UNL     1       7.610   4.588  17.299  0.00  0.00    +0.014 C 
ATOM     52  H   UNL     1       7.664   3.581  17.721  0.00  0.00    +0.046 HD
ATOM     53  H   UNL     1       8.617   4.945  17.069  0.00  0.00    +0.046 HD
ATOM     54  H   UNL     1       7.130   5.274  18.000  0.00  0.00    +0.046 HD
ENDBRANCH  49  51
ENDBRANCH  42  45
ENDBRANCH  36  42
ENDBRANCH   1  36
TORSDOF 9
ENDMDL
MODEL 28
REMARK VINA RESULT:    -7.480      4.404      9.254
REMARK INTER + INTRA:         -11.886
REMARK INTER:                 -10.987
REMARK INTRA:                  -0.899
REMARK UNBOUND:                -0.909
REMARK  Name = 
REMARK  9 active torsions:
REMARK  status: ('A' for Active; 'I' for Inactive)
REMARK    1  A    between atoms: C_1  and  C_2
REMARK    2  A    between atoms: C_2  and  C_3
REMARK    3  A    between atoms: C_2  and  C_10
REMARK    4  A    between atoms: C_3  and  C_4
REMARK    5  A    between atoms: N_8  and  C_9
REMARK    6  A    between atoms: C_14  and  N_15
REMARK    7  A    between atoms: C_16  and  C_18
REMARK    8  A    between atoms: C_20  and  C_21
REMARK    9  A    between atoms: C_26  and  C_27
REMARK                            x       y       z     vdW  Elec       q    Type
REMARK                         _______ _______ _______ _____ _____    ______ ____
ROOT
ATOM      1  C   UNL     1       3.477   5.789  19.084  0.00  0.00    -0.042 A 
ATOM      2  C   UNL     1       3.307   4.707  19.958  0.00  0.00    -0.058 A 
ATOM      3  C   UNL     1       2.317   4.739  20.938  0.00  0.00    -0.060 A 
ATOM      4  C   UNL     1       1.480   5.852  21.061  0.00  0.00    -0.040 A 
ATOM      5  C   UNL     1       1.626   6.939  20.202  0.00  0.00    +0.034 A 
ATOM      6  C   UNL     1       2.624   6.899  19.217  0.00  0.00    -0.037 A 
ATOM      7  H   UNL     1       3.940   3.825  19.882  0.00  0.00    +0.062 HD
ATOM      8  H   UNL     1       2.189   3.894  21.611  0.00  0.00    +0.062 HD
ATOM      9  H   UNL     1       0.722   5.835  21.836  0.00  0.00    +0.064 HD
ATOM     10  H   UNL     1       2.740   7.740  18.539  0.00  0.00    +0.064 HD
ENDROOT
BRANCH   5  11
ATOM     11  N   UNL     1       0.824   8.091  20.256  0.00  0.00    -0.280 N 
ATOM     12  C   UNL     1       0.781   9.062  21.239  0.00  0.00    +0.267 C 
ATOM     13  O   UNL     1       1.445   9.113  22.266  0.00  0.00    -0.268 OA
ATOM     14  H   UNL     1       0.178   8.251  19.486  0.00  0.00    +0.155 HD
BRANCH  12  15
ATOM     15  C   UNL     1      -0.215  10.146  20.941  0.00  0.00    +0.127 A 
ATOM     16  C   UNL     1      -0.662  10.343  19.640  0.00  0.00    -0.026 A 
ATOM     17  C   UNL     1      -1.594  11.354  19.362  0.00  0.00    -0.015 A 
ATOM     18  C   UNL     1      -2.016  12.121  20.465  0.00  0.00    -0.026 A 
ATOM     19  C   UNL     1      -1.531  11.875  21.755  0.00  0.00    +0.145 A 
ATOM     20  N   UNL     1      -0.628  10.887  22.004  0.00  0.00    -0.238 NA
ATOM     21  H   UNL     1      -0.285   9.713  18.838  0.00  0.00    +0.064 HD
ATOM     22  H   UNL     1      -2.738  12.922  20.307  0.00  0.00    +0.064 HD
BRANCH  17  23
ATOM     23  C   UNL     1      -2.126  11.614  17.894  0.00  0.00    +0.086 C 
ATOM     24  C   UNL     1      -2.207  10.427  16.920  0.00  0.00    +0.001 C 
ATOM     25  C   UNL     1      -3.626  10.917  16.655  0.00  0.00    +0.051 C 
ATOM     26  O   UNL     1      -3.570  11.805  17.798  0.00  0.00    -0.372 OA
ATOM     27  H   UNL     1      -1.624  12.485  17.448  0.00  0.00    +0.065 HD
ATOM     28  H   UNL     1      -2.156   9.437  17.381  0.00  0.00    +0.032 HD
ATOM     29  H   UNL     1      -1.528  10.475  16.065  0.00  0.00    +0.032 HD
ATOM     30  H   UNL     1      -3.767  11.476  15.725  0.00  0.00    +0.056 HD
ATOM     31  H   UNL     1      -4.409  10.162  16.762  0.00  0.00    +0.056 HD
ENDBRANCH  17  23
BRANCH  19  32
ATOM     32  C   UNL     1      -2.036  12.741  22.903  0.00  0.00    +0.434 C 
ATOM     33  F   UNL     1      -1.039  13.299  23.648  0.00  0.00    -0.164 F 
ATOM     34  F   UNL     1      -2.809  12.043  23.785  0.00  0.00    -0.164 F 
ATOM     35  F   UNL     1      -2.807  13.781  22.476  0.00  0.00    -0.164 F 
ENDBRANCH  19  32
ENDBRANCH  12  15
ENDBRANCH   5  11
BRANCH   1  36
ATOM     36  C   UNL     1       4.556   5.785  18.010  0.00  0.00    -0.012 C 
ATOM     37  H   UNL     1       5.531   5.875  18.509  0.00  0.00    +0.035 HD
BRANCH  36  38
ATOM     38  C   UNL     1       4.412   7.009  17.096  0.00  0.00    -0.058 C 
ATOM     39  H   UNL     1       3.778   6.778  16.233  0.00  0.00    +0.024 HD
ATOM     40  H   UNL     1       5.381   7.350  16.716  0.00  0.00    +0.024 HD
ATOM     41  H   UNL     1       3.949   7.846  17.628  0.00  0.00    +0.024 HD
ENDBRANCH  36  38
BRANCH  36  42
ATOM     42  C   UNL     1       4.534   4.459  17.221  0.00  0.00    +0.014 C 
ATOM     43  H   UNL     1       3.523   4.252  16.849  0.00  0.00    +0.035 HD
ATOM     44  H   UNL     1       4.790   3.621  17.881  0.00  0.00    +0.035 HD
BRANCH  42  45
ATOM     45  C   UNL     1       5.475   4.474  16.064  0.00  0.00    +0.134 A 
ATOM     46  N   UNL     1       5.145   4.431  14.789  0.00  0.00    -0.135 NA
ATOM     47  N   UNL     1       6.300   4.469  14.045  0.00  0.00    -0.138 NA
ATOM     48  C   UNL     1       7.309   4.527  14.880  0.00  0.00    +0.120 A 
ATOM     49  N   UNL     1       6.841   4.531  16.157  0.00  0.00    -0.320 N 
ATOM     50  H   UNL     1       8.355   4.565  14.613  0.00  0.00    +0.105 HD
BRANCH  49  51
ATOM     51  C   UNL     1       7.638   4.582  17.353  0.00  0.00    +0.014 C 
ATOM     52  H   UNL     1       7.491   5.556  17.827  0.00  0.00    +0.046 HD
ATOM     53  H   UNL     1       7.323   3.789  18.037  0.00  0.00    +0.046 HD
ATOM     54  H   UNL     1       8.686   4.438  17.085  0.00  0.00    +0.046 HD
ENDBRANCH  49  51
ENDBRANCH  42  45
ENDBRANCH  36  42
ENDBRANCH   1  36
TORSDOF 9
ENDMDL
MODEL 29
REMARK VINA RESULT:    -7.395      2.412      3.393
REMARK INTER + INTRA:         -11.762
REMARK INTER:                 -10.764
REMARK INTRA:                  -0.998
REMARK UNBOUND:                -0.909
REMARK  Name = 
REMARK  9 active torsions:
REMARK  status: ('A' for Active; 'I' for Inactive)
REMARK    1  A    between atoms: C_1  and  C_2
REMARK    2  A    between atoms: C_2  and  C_3
REMARK    3  A    between atoms: C_2  and  C_10
REMARK    4  A    between atoms: C_3  and  C_4
REMARK    5  A    between atoms: N_8  and  C_9
REMARK    6  A    between atoms: C_14  and  N_15
REMARK    7  A    between atoms: C_16  and  C_18
REMARK    8  A    between atoms: C_20  and  C_21
REMARK    9  A    between atoms: C_26  and  C_27
REMARK                            x       y       z     vdW  Elec       q    Type
REMARK                         _______ _______ _______ _____ _____    ______ ____
ROOT
ATOM      1  C   UNL     1      -0.537  10.766  19.676  0.00  0.00    -0.042 A 
ATOM      2  C   UNL     1      -0.384  11.137  21.019  0.00  0.00    -0.058 A 
ATOM      3  C   UNL     1       0.472  10.423  21.855  0.00  0.00    -0.060 A 
ATOM      4  C   UNL     1       1.188   9.328  21.364  0.00  0.00    -0.040 A 
ATOM      5  C   UNL     1       1.056   8.942  20.032  0.00  0.00    +0.034 A 
ATOM      6  C   UNL     1       0.194   9.666  19.196  0.00  0.00    -0.037 A 
ATOM      7  H   UNL     1      -0.925  11.988  21.427  0.00  0.00    +0.062 HD
ATOM      8  H   UNL     1       0.588  10.717  22.895  0.00  0.00    +0.062 HD
ATOM      9  H   UNL     1       1.845   8.801  22.049  0.00  0.00    +0.064 HD
ATOM     10  H   UNL     1       0.090   9.375  18.153  0.00  0.00    +0.064 HD
ENDROOT
BRANCH   5  11
ATOM     11  N   UNL     1       1.744   7.858  19.461  0.00  0.00    -0.280 N 
ATOM     12  C   UNL     1       1.964   6.602  19.994  0.00  0.00    +0.267 C 
ATOM     13  O   UNL     1       1.593   6.179  21.082  0.00  0.00    -0.268 OA
ATOM     14  H   UNL     1       2.147   7.992  18.535  0.00  0.00    +0.155 HD
BRANCH  12  15
ATOM     15  C   UNL     1       2.749   5.710  19.076  0.00  0.00    +0.127 A 
ATOM     16  C   UNL     1       3.713   6.252  18.235  0.00  0.00    -0.026 A 
ATOM     17  C   UNL     1       4.450   5.418  17.380  0.00  0.00    -0.015 A 
ATOM     18  C   UNL     1       4.139   4.046  17.442  0.00  0.00    -0.026 A 
ATOM     19  C   UNL     1       3.157   3.558  18.312  0.00  0.00    +0.145 A 
ATOM     20  N   UNL     1       2.455   4.383  19.135  0.00  0.00    -0.238 NA
ATOM     21  H   UNL     1       3.893   7.325  18.240  0.00  0.00    +0.064 HD
ATOM     22  H   UNL     1       4.678   3.352  16.797  0.00  0.00    +0.064 HD
BRANCH  17  23
ATOM     23  C   UNL     1       5.553   5.996  16.403  0.00  0.00    +0.086 C 
ATOM     24  C   UNL     1       6.995   5.478  16.534  0.00  0.00    +0.001 C 
ATOM     25  C   UNL     1       6.916   5.277  15.025  0.00  0.00    +0.051 C 
ATOM     26  O   UNL     1       5.482   5.482  15.039  0.00  0.00    -0.372 OA
ATOM     27  H   UNL     1       5.506   7.094  16.371  0.00  0.00    +0.065 HD
ATOM     28  H   UNL     1       7.112   4.551  17.102  0.00  0.00    +0.032 HD
ATOM     29  H   UNL     1       7.728   6.215  16.870  0.00  0.00    +0.032 HD
ATOM     30  H   UNL     1       7.419   6.037  14.420  0.00  0.00    +0.056 HD
ATOM     31  H   UNL     1       7.182   4.278  14.671  0.00  0.00    +0.056 HD
ENDBRANCH  17  23
BRANCH  19  32
ATOM     32  C   UNL     1       2.876   2.060  18.330  0.00  0.00    +0.434 C 
ATOM     33  F   UNL     1       2.194   1.617  17.235  0.00  0.00    -0.164 F 
ATOM     34  F   UNL     1       2.131   1.679  19.408  0.00  0.00    -0.164 F 
ATOM     35  F   UNL     1       4.016   1.313  18.385  0.00  0.00    -0.164 F 
ENDBRANCH  19  32
ENDBRANCH  12  15
ENDBRANCH   5  11
BRANCH   1  36
ATOM     36  C   UNL     1      -1.472  11.522  18.742  0.00  0.00    -0.012 C 
ATOM     37  H   UNL     1      -2.158  12.120  19.359  0.00  0.00    +0.035 HD
BRANCH  36  38
ATOM     38  C   UNL     1      -2.338  10.544  17.937  0.00  0.00    -0.058 C 
ATOM     39  H   UNL     1      -1.714   9.822  17.400  0.00  0.00    +0.024 HD
ATOM     40  H   UNL     1      -2.958  11.062  17.198  0.00  0.00    +0.024 HD
ATOM     41  H   UNL     1      -3.005   9.976  18.593  0.00  0.00    +0.024 HD
ENDBRANCH  36  38
BRANCH  36  42
ATOM     42  C   UNL     1      -0.675  12.482  17.834  0.00  0.00    +0.014 C 
ATOM     43  H   UNL     1      -1.344  12.975  17.117  0.00  0.00    +0.035 HD
ATOM     44  H   UNL     1       0.050  11.920  17.231  0.00  0.00    +0.035 HD
BRANCH  42  45
ATOM     45  C   UNL     1       0.046  13.529  18.613  0.00  0.00    +0.134 A 
ATOM     46  N   UNL     1      -0.504  14.535  19.264  0.00  0.00    -0.135 NA
ATOM     47  N   UNL     1       0.500  15.266  19.852  0.00  0.00    -0.138 NA
ATOM     48  C   UNL     1       1.640  14.696  19.543  0.00  0.00    +0.120 A 
ATOM     49  N   UNL     1       1.406  13.605  18.767  0.00  0.00    -0.320 N 
ATOM     50  H   UNL     1       2.622  15.029  19.849  0.00  0.00    +0.105 HD
BRANCH  49  51
ATOM     51  C   UNL     1       2.400  12.721  18.222  0.00  0.00    +0.014 C 
ATOM     52  H   UNL     1       2.957  13.258  17.450  0.00  0.00    +0.046 HD
ATOM     53  H   UNL     1       3.084  12.404  19.015  0.00  0.00    +0.046 HD
ATOM     54  H   UNL     1       1.901  11.846  17.799  0.00  0.00    +0.046 HD
ENDBRANCH  49  51
ENDBRANCH  42  45
ENDBRANCH  36  42
ENDBRANCH   1  36
TORSDOF 9
ENDMDL
MODEL 30
REMARK VINA RESULT:    -7.325      4.226      9.030
REMARK INTER + INTRA:         -11.660
REMARK INTER:                 -10.751
REMARK INTRA:                  -0.909
REMARK UNBOUND:                -0.909
REMARK  Name = 
REMARK  9 active torsions:
REMARK  status: ('A' for Active; 'I' for Inactive)
REMARK    1  A    between atoms: C_1  and  C_2
REMARK    2  A    between atoms: C_2  and  C_3
REMARK    3  A    between atoms: C_2  and  C_10
REMARK    4  A    between atoms: C_3  and  C_4
REMARK    5  A    between atoms: N_8  and  C_9
REMARK    6  A    between atoms: C_14  and  N_15
REMARK    7  A    between atoms: C_16  and  C_18
REMARK    8  A    between atoms: C_20  and  C_21
REMARK    9  A    between atoms: C_26  and  C_27
REMARK                            x       y       z     vdW  Elec       q    Type
REMARK                         _______ _______ _______ _____ _____    ______ ____
ROOT
ATOM      1  C   UNL     1       3.350   5.248  18.707  0.00  0.00    -0.042 A 
ATOM      2  C   UNL     1       2.878   4.224  19.538  0.00  0.00    -0.058 A 
ATOM      3  C   UNL     1       1.991   4.509  20.574  0.00  0.00    -0.060 A 
ATOM      4  C   UNL     1       1.561   5.820  20.797  0.00  0.00    -0.040 A 
ATOM      5  C   UNL     1       2.013   6.855  19.982  0.00  0.00    +0.034 A 
ATOM      6  C   UNL     1       2.905   6.561  18.940  0.00  0.00    -0.037 A 
ATOM      7  H   UNL     1       3.190   3.193  19.384  0.00  0.00    +0.062 HD
ATOM      8  H   UNL     1       1.626   3.708  21.214  0.00  0.00    +0.062 HD
ATOM      9  H   UNL     1       0.869   5.997  21.614  0.00  0.00    +0.064 HD
ATOM     10  H   UNL     1       3.258   7.363  18.295  0.00  0.00    +0.064 HD
ENDROOT
BRANCH   5  11
ATOM     11  N   UNL     1       1.627   8.197  20.136  0.00  0.00    -0.280 N 
ATOM     12  C   UNL     1       1.296   9.115  19.157  0.00  0.00    +0.267 C 
ATOM     13  O   UNL     1       1.269   8.935  17.946  0.00  0.00    -0.268 OA
ATOM     14  H   UNL     1       1.583   8.568  21.084  0.00  0.00    +0.155 HD
BRANCH  12  15
ATOM     15  C   UNL     1       0.938  10.460  19.719  0.00  0.00    +0.127 A 
ATOM     16  C   UNL     1       1.410  11.617  19.111  0.00  0.00    -0.026 A 
ATOM     17  C   UNL     1       1.072  12.875  19.633  0.00  0.00    -0.015 A 
ATOM     18  C   UNL     1       0.253  12.864  20.779  0.00  0.00    -0.026 A 
ATOM     19  C   UNL     1      -0.193  11.665  21.347  0.00  0.00    +0.145 A 
ATOM     20  N   UNL     1       0.144  10.455  20.824  0.00  0.00    -0.238 NA
ATOM     21  H   UNL     1       2.044  11.544  18.230  0.00  0.00    +0.064 HD
ATOM     22  H   UNL     1      -0.038  13.814  21.229  0.00  0.00    +0.064 HD
BRANCH  17  23
ATOM     23  C   UNL     1       1.592  14.216  18.974  0.00  0.00    +0.086 C 
ATOM     24  C   UNL     1       2.637  15.052  19.731  0.00  0.00    +0.001 C 
ATOM     25  C   UNL     1       3.396  15.054  18.409  0.00  0.00    +0.051 C 
ATOM     26  O   UNL     1       2.531  14.024  17.872  0.00  0.00    -0.372 OA
ATOM     27  H   UNL     1       0.749  14.825  18.618  0.00  0.00    +0.065 HD
ATOM     28  H   UNL     1       3.155  14.534  20.543  0.00  0.00    +0.032 HD
ATOM     29  H   UNL     1       2.293  16.031  20.075  0.00  0.00    +0.032 HD
ATOM     30  H   UNL     1       3.324  15.976  17.825  0.00  0.00    +0.056 HD
ATOM     31  H   UNL     1       4.436  14.726  18.467  0.00  0.00    +0.056 HD
ENDBRANCH  17  23
BRANCH  19  32
ATOM     32  C   UNL     1      -1.081  11.729  22.585  0.00  0.00    +0.434 C 
ATOM     33  F   UNL     1      -0.840  12.813  23.376  0.00  0.00    -0.164 F 
ATOM     34  F   UNL     1      -0.932  10.640  23.393  0.00  0.00    -0.164 F 
ATOM     35  F   UNL     1      -2.409  11.782  22.276  0.00  0.00    -0.164 F 
ENDBRANCH  19  32
ENDBRANCH  12  15
ENDBRANCH   5  11
BRANCH   1  36
ATOM     36  C   UNL     1       4.326   4.969  17.572  0.00  0.00    -0.012 C 
ATOM     37  H   UNL     1       4.333   5.844  16.907  0.00  0.00    +0.035 HD
BRANCH  36  38
ATOM     38  C   UNL     1       3.850   3.777  16.731  0.00  0.00    -0.058 C 
ATOM     39  H   UNL     1       4.409   2.871  16.988  0.00  0.00    +0.024 HD
ATOM     40  H   UNL     1       3.982   3.957  15.659  0.00  0.00    +0.024 HD
ATOM     41  H   UNL     1       2.790   3.569  16.907  0.00  0.00    +0.024 HD
ENDBRANCH  36  38
BRANCH  36  42
ATOM     42  C   UNL     1       5.754   4.765  18.120  0.00  0.00    +0.014 C 
ATOM     43  H   UNL     1       6.257   3.949  17.586  0.00  0.00    +0.035 HD
ATOM     44  H   UNL     1       5.716   4.456  19.173  0.00  0.00    +0.035 HD
BRANCH  42  45
ATOM     45  C   UNL     1       6.586   5.997  18.004  0.00  0.00    +0.134 A 
ATOM     46  N   UNL     1       6.410   6.979  17.142  0.00  0.00    -0.135 NA
ATOM     47  N   UNL     1       7.381   7.925  17.364  0.00  0.00    -0.138 NA
ATOM     48  C   UNL     1       8.132   7.499  18.351  0.00  0.00    +0.120 A 
ATOM     49  N   UNL     1       7.673   6.294  18.783  0.00  0.00    -0.320 N 
ATOM     50  H   UNL     1       8.988   8.012  18.768  0.00  0.00    +0.105 HD
BRANCH  49  51
ATOM     51  C   UNL     1       8.233   5.503  19.845  0.00  0.00    +0.014 C 
ATOM     52  H   UNL     1       7.717   5.755  20.775  0.00  0.00    +0.046 HD
ATOM     53  H   UNL     1       8.095   4.441  19.624  0.00  0.00    +0.046 HD
ATOM     54  H   UNL     1       9.300   5.724  19.925  0.00  0.00    +0.046 HD
ENDBRANCH  49  51
ENDBRANCH  42  45
ENDBRANCH  36  42
ENDBRANCH   1  36
TORSDOF 9
ENDMDL
MODEL 31
REMARK VINA RESULT:    -7.318      3.509      5.186
REMARK INTER + INTRA:         -11.649
REMARK INTER:                 -10.377
REMARK INTRA:                  -1.272
REMARK UNBOUND:                -0.909
REMARK  Name = 
REMARK  9 active torsions:
REMARK  status: ('A' for Active; 'I' for Inactive)
REMARK    1  A    between atoms: C_1  and  C_2
REMARK    2  A    between atoms: C_2  and  C_3
REMARK    3  A    between atoms: C_2  and  C_10
REMARK    4  A    between atoms: C_3  and  C_4
REMARK    5  A    between atoms: N_8  and  C_9
REMARK    6  A    between atoms: C_14  and  N_15
REMARK    7  A    between atoms: C_16  and  C_18
REMARK    8  A    between atoms: C_20  and  C_21
REMARK    9  A    between atoms: C_26  and  C_27
REMARK                            x       y       z     vdW  Elec       q    Type
REMARK                         _______ _______ _______ _____ _____    ______ ____
ROOT
ATOM      1  C   UNL     1      -0.672  11.838  20.768  0.00  0.00    -0.042 A 
ATOM      2  C   UNL     1      -1.667  12.163  19.837  0.00  0.00    -0.058 A 
ATOM      3  C   UNL     1      -1.813  11.415  18.670  0.00  0.00    -0.060 A 
ATOM      4  C   UNL     1      -0.968  10.331  18.415  0.00  0.00    -0.040 A 
ATOM      5  C   UNL     1       0.026   9.985  19.327  0.00  0.00    +0.034 A 
ATOM      6  C   UNL     1       0.166  10.742  20.500  0.00  0.00    -0.037 A 
ATOM      7  H   UNL     1      -2.343  12.998  20.012  0.00  0.00    +0.062 HD
ATOM      8  H   UNL     1      -2.589  11.671  17.953  0.00  0.00    +0.062 HD
ATOM      9  H   UNL     1      -1.118   9.775  17.495  0.00  0.00    +0.064 HD
ATOM     10  H   UNL     1       0.936  10.475  21.220  0.00  0.00    +0.064 HD
ENDROOT
BRANCH   5  11
ATOM     11  N   UNL     1       0.912   8.909  19.148  0.00  0.00    -0.280 N 
ATOM     12  C   UNL     1       1.986   8.815  18.284  0.00  0.00    +0.267 C 
ATOM     13  O   UNL     1       2.387   9.665  17.498  0.00  0.00    -0.268 OA
ATOM     14  H   UNL     1       0.759   8.076  19.712  0.00  0.00    +0.155 HD
BRANCH  12  15
ATOM     15  C   UNL     1       2.695   7.495  18.379  0.00  0.00    +0.127 A 
ATOM     16  C   UNL     1       2.342   6.585  19.368  0.00  0.00    -0.026 A 
ATOM     17  C   UNL     1       3.002   5.350  19.455  0.00  0.00    -0.015 A 
ATOM     18  C   UNL     1       4.012   5.124  18.500  0.00  0.00    -0.026 A 
ATOM     19  C   UNL     1       4.323   6.080  17.525  0.00  0.00    +0.145 A 
ATOM     20  N   UNL     1       3.669   7.271  17.456  0.00  0.00    -0.238 NA
ATOM     21  H   UNL     1       1.553   6.833  20.075  0.00  0.00    +0.064 HD
ATOM     22  H   UNL     1       4.560   4.182  18.523  0.00  0.00    +0.064 HD
BRANCH  17  23
ATOM     23  C   UNL     1       2.633   4.287  20.568  0.00  0.00    +0.086 C 
ATOM     24  C   UNL     1       1.174   3.816  20.681  0.00  0.00    +0.001 C 
ATOM     25  C   UNL     1       1.769   2.412  20.679  0.00  0.00    +0.051 C 
ATOM     26  O   UNL     1       3.060   2.923  20.268  0.00  0.00    -0.372 OA
ATOM     27  H   UNL     1       3.052   4.583  21.541  0.00  0.00    +0.065 HD
ATOM     28  H   UNL     1       0.541   4.034  19.816  0.00  0.00    +0.032 HD
ATOM     29  H   UNL     1       0.659   4.105  21.601  0.00  0.00    +0.032 HD
ATOM     30  H   UNL     1       1.829   1.923  21.656  0.00  0.00    +0.056 HD
ATOM     31  H   UNL     1       1.347   1.727  19.941  0.00  0.00    +0.056 HD
ENDBRANCH  17  23
BRANCH  19  32
ATOM     32  C   UNL     1       5.425   5.766  16.520  0.00  0.00    +0.434 C 
ATOM     33  F   UNL     1       5.790   4.453  16.500  0.00  0.00    -0.164 F 
ATOM     34  F   UNL     1       6.571   6.466  16.763  0.00  0.00    -0.164 F 
ATOM     35  F   UNL     1       5.069   6.073  15.239  0.00  0.00    -0.164 F 
ENDBRANCH  19  32
ENDBRANCH  12  15
ENDBRANCH   5  11
BRANCH   1  36
ATOM     36  C   UNL     1      -0.484  12.643  22.047  0.00  0.00    -0.012 C 
ATOM     37  H   UNL     1       0.474  12.345  22.497  0.00  0.00    +0.035 HD
BRANCH  36  38
ATOM     38  C   UNL     1      -1.577  12.299  23.067  0.00  0.00    -0.058 C 
ATOM     39  H   UNL     1      -1.277  11.448  23.689  0.00  0.00    +0.024 HD
ATOM     40  H   UNL     1      -2.522  12.036  22.578  0.00  0.00    +0.024 HD
ATOM     41  H   UNL     1      -1.771  13.142  23.737  0.00  0.00    +0.024 HD
ENDBRANCH  36  38
BRANCH  36  42
ATOM     42  C   UNL     1      -0.426  14.153  21.737  0.00  0.00    +0.014 C 
ATOM     43  H   UNL     1      -0.652  14.738  22.637  0.00  0.00    +0.035 HD
ATOM     44  H   UNL     1      -1.197  14.419  21.003  0.00  0.00    +0.035 HD
BRANCH  42  45
ATOM     45  C   UNL     1       0.908  14.572  21.217  0.00  0.00    +0.134 A 
ATOM     46  N   UNL     1       2.032  14.624  21.903  0.00  0.00    -0.135 NA
ATOM     47  N   UNL     1       3.029  15.055  21.061  0.00  0.00    -0.138 NA
ATOM     48  C   UNL     1       2.492  15.263  19.883  0.00  0.00    +0.120 A 
ATOM     49  N   UNL     1       1.164  14.976  19.932  0.00  0.00    -0.320 N 
ATOM     50  H   UNL     1       3.009  15.610  19.000  0.00  0.00    +0.105 HD
BRANCH  49  51
ATOM     51  C   UNL     1       0.230  15.083  18.844  0.00  0.00    +0.014 C 
ATOM     52  H   UNL     1      -0.571  15.764  19.140  0.00  0.00    +0.046 HD
ATOM     53  H   UNL     1       0.741  15.478  17.961  0.00  0.00    +0.046 HD
ATOM     54  H   UNL     1      -0.168  14.091  18.622  0.00  0.00    +0.046 HD
ENDBRANCH  49  51
ENDBRANCH  42  45
ENDBRANCH  36  42
ENDBRANCH   1  36
TORSDOF 9
ENDMDL
MODEL 32
REMARK VINA RESULT:    -7.283      4.649      9.675
REMARK INTER + INTRA:         -11.597
REMARK INTER:                 -10.691
REMARK INTRA:                  -0.906
REMARK UNBOUND:                -0.909
REMARK  Name = 
REMARK  9 active torsions:
REMARK  status: ('A' for Active; 'I' for Inactive)
REMARK    1  A    between atoms: C_1  and  C_2
REMARK    2  A    between atoms: C_2  and  C_3
REMARK    3  A    between atoms: C_2  and  C_10
REMARK    4  A    between atoms: C_3  and  C_4
REMARK    5  A    between atoms: N_8  and  C_9
REMARK    6  A    between atoms: C_14  and  N_15
REMARK    7  A    between atoms: C_16  and  C_18
REMARK    8  A    between atoms: C_20  and  C_21
REMARK    9  A    between atoms: C_26  and  C_27
REMARK                            x       y       z     vdW  Elec       q    Type
REMARK                         _______ _______ _______ _____ _____    ______ ____
ROOT
ATOM      1  C   UNL     1       2.745   5.104  18.678  0.00  0.00    -0.042 A 
ATOM      2  C   UNL     1       2.492   4.155  19.677  0.00  0.00    -0.058 A 
ATOM      3  C   UNL     1       1.932   4.541  20.893  0.00  0.00    -0.060 A 
ATOM      4  C   UNL     1       1.615   5.882  21.130  0.00  0.00    -0.040 A 
ATOM      5  C   UNL     1       1.853   6.844  20.152  0.00  0.00    +0.034 A 
ATOM      6  C   UNL     1       2.417   6.447  18.930  0.00  0.00    -0.037 A 
ATOM      7  H   UNL     1       2.723   3.103  19.517  0.00  0.00    +0.062 HD
ATOM      8  H   UNL     1       1.736   3.799  21.663  0.00  0.00    +0.062 HD
ATOM      9  H   UNL     1       1.179   6.139  22.090  0.00  0.00    +0.064 HD
ATOM     10  H   UNL     1       2.600   7.191  18.158  0.00  0.00    +0.064 HD
ENDROOT
BRANCH   5  11
ATOM     11  N   UNL     1       1.560   8.209  20.310  0.00  0.00    -0.280 N 
ATOM     12  C   UNL     1       0.477   8.788  20.943  0.00  0.00    +0.267 C 
ATOM     13  O   UNL     1      -0.450   8.218  21.505  0.00  0.00    -0.268 OA
ATOM     14  H   UNL     1       2.213   8.880  19.908  0.00  0.00    +0.155 HD
BRANCH  12  15
ATOM     15  C   UNL     1       0.513  10.288  20.901  0.00  0.00    +0.127 A 
ATOM     16  C   UNL     1      -0.198  11.029  21.838  0.00  0.00    -0.026 A 
ATOM     17  C   UNL     1      -0.163  12.431  21.800  0.00  0.00    -0.015 A 
ATOM     18  C   UNL     1       0.618  12.998  20.774  0.00  0.00    -0.026 A 
ATOM     19  C   UNL     1       1.314  12.200  19.859  0.00  0.00    +0.145 A 
ATOM     20  N   UNL     1       1.268  10.841  19.913  0.00  0.00    -0.238 NA
ATOM     21  H   UNL     1      -0.784  10.518  22.599  0.00  0.00    +0.064 HD
ATOM     22  H   UNL     1       0.679  14.085  20.696  0.00  0.00    +0.064 HD
BRANCH  17  23
ATOM     23  C   UNL     1      -0.961  13.311  22.846  0.00  0.00    +0.086 C 
ATOM     24  C   UNL     1      -1.758  14.521  22.333  0.00  0.00    +0.001 C 
ATOM     25  C   UNL     1      -2.903  13.945  23.157  0.00  0.00    +0.051 C 
ATOM     26  O   UNL     1      -2.190  12.698  23.339  0.00  0.00    -0.372 OA
ATOM     27  H   UNL     1      -0.324  13.566  23.705  0.00  0.00    +0.065 HD
ATOM     28  H   UNL     1      -1.948  14.537  21.255  0.00  0.00    +0.032 HD
ATOM     29  H   UNL     1      -1.390  15.497  22.659  0.00  0.00    +0.032 HD
ATOM     30  H   UNL     1      -3.089  14.438  24.116  0.00  0.00    +0.056 HD
ATOM     31  H   UNL     1      -3.843  13.804  22.619  0.00  0.00    +0.056 HD
ENDBRANCH  17  23
BRANCH  19  32
ATOM     32  C   UNL     1       2.143  12.883  18.777  0.00  0.00    +0.434 C 
ATOM     33  F   UNL     1       1.433  13.767  18.019  0.00  0.00    -0.164 F 
ATOM     34  F   UNL     1       2.687  11.995  17.896  0.00  0.00    -0.164 F 
ATOM     35  F   UNL     1       3.192  13.589  19.287  0.00  0.00    -0.164 F 
ENDBRANCH  19  32
ENDBRANCH  12  15
ENDBRANCH   5  11
BRANCH   1  36
ATOM     36  C   UNL     1       3.364   4.712  17.343  0.00  0.00    -0.012 C 
ATOM     37  H   UNL     1       2.573   4.739  16.581  0.00  0.00    +0.035 HD
BRANCH  36  38
ATOM     38  C   UNL     1       3.883   3.269  17.392  0.00  0.00    -0.058 C 
ATOM     39  H   UNL     1       4.044   2.948  18.427  0.00  0.00    +0.024 HD
ATOM     40  H   UNL     1       4.834   3.159  16.859  0.00  0.00    +0.024 HD
ATOM     41  H   UNL     1       3.165   2.576  16.942  0.00  0.00    +0.024 HD
ENDBRANCH  36  38
BRANCH  36  42
ATOM     42  C   UNL     1       4.463   5.716  16.937  0.00  0.00    +0.014 C 
ATOM     43  H   UNL     1       4.185   6.732  17.242  0.00  0.00    +0.035 HD
ATOM     44  H   UNL     1       4.564   5.746  15.845  0.00  0.00    +0.035 HD
BRANCH  42  45
ATOM     45  C   UNL     1       5.786   5.381  17.541  0.00  0.00    +0.134 A 
ATOM     46  N   UNL     1       6.146   5.584  18.792  0.00  0.00    -0.135 NA
ATOM     47  N   UNL     1       7.436   5.135  18.945  0.00  0.00    -0.138 NA
ATOM     48  C   UNL     1       7.837   4.675  17.785  0.00  0.00    +0.120 A 
ATOM     49  N   UNL     1       6.837   4.810  16.873  0.00  0.00    -0.320 N 
ATOM     50  H   UNL     1       8.808   4.253  17.568  0.00  0.00    +0.105 HD
BRANCH  49  51
ATOM     51  C   UNL     1       6.893   4.427  15.488  0.00  0.00    +0.014 C 
ATOM     52  H   UNL     1       5.919   4.024  15.200  0.00  0.00    +0.046 HD
ATOM     53  H   UNL     1       7.127   5.301  14.875  0.00  0.00    +0.046 HD
ATOM     54  H   UNL     1       7.674   3.673  15.362  0.00  0.00    +0.046 HD
ENDBRANCH  49  51
ENDBRANCH  42  45
ENDBRANCH  36  42
ENDBRANCH   1  36
TORSDOF 9
ENDMDL
MODEL 33
REMARK VINA RESULT:    -7.245      4.437      9.467
REMARK INTER + INTRA:         -11.542
REMARK INTER:                 -10.631
REMARK INTRA:                  -0.911
REMARK UNBOUND:                -0.909
REMARK  Name = 
REMARK  9 active torsions:
REMARK  status: ('A' for Active; 'I' for Inactive)
REMARK    1  A    between atoms: C_1  and  C_2
REMARK    2  A    between atoms: C_2  and  C_3
REMARK    3  A    between atoms: C_2  and  C_10
REMARK    4  A    between atoms: C_3  and  C_4
REMARK    5  A    between atoms: N_8  and  C_9
REMARK    6  A    between atoms: C_14  and  N_15
REMARK    7  A    between atoms: C_16  and  C_18
REMARK    8  A    between atoms: C_20  and  C_21
REMARK    9  A    between atoms: C_26  and  C_27
REMARK                            x       y       z     vdW  Elec       q    Type
REMARK                         _______ _______ _______ _____ _____    ______ ____
ROOT
ATOM      1  C   UNL     1       3.399   5.169  18.708  0.00  0.00    -0.042 A 
ATOM      2  C   UNL     1       3.139   4.403  19.852  0.00  0.00    -0.058 A 
ATOM      3  C   UNL     1       2.307   4.894  20.857  0.00  0.00    -0.060 A 
ATOM      4  C   UNL     1       1.721   6.157  20.735  0.00  0.00    -0.040 A 
ATOM      5  C   UNL     1       1.960   6.936  19.605  0.00  0.00    +0.034 A 
ATOM      6  C   UNL     1       2.798   6.435  18.597  0.00  0.00    -0.037 A 
ATOM      7  H   UNL     1       3.577   3.414  19.972  0.00  0.00    +0.062 HD
ATOM      8  H   UNL     1       2.108   4.293  21.741  0.00  0.00    +0.062 HD
ATOM      9  H   UNL     1       1.079   6.500  21.539  0.00  0.00    +0.064 HD
ATOM     10  H   UNL     1       2.985   7.034  17.709  0.00  0.00    +0.064 HD
ENDROOT
BRANCH   5  11
ATOM     11  N   UNL     1       1.407   8.212  19.403  0.00  0.00    -0.280 N 
ATOM     12  C   UNL     1       1.083   9.167  20.348  0.00  0.00    +0.267 C 
ATOM     13  O   UNL     1       1.223   9.091  21.563  0.00  0.00    -0.268 OA
ATOM     14  H   UNL     1       1.203   8.490  18.445  0.00  0.00    +0.155 HD
BRANCH  12  15
ATOM     15  C   UNL     1       0.505  10.412  19.741  0.00  0.00    +0.127 A 
ATOM     16  C   UNL     1      -0.676  10.348  19.010  0.00  0.00    -0.026 A 
ATOM     17  C   UNL     1      -1.218  11.512  18.446  0.00  0.00    -0.015 A 
ATOM     18  C   UNL     1      -0.493  12.699  18.669  0.00  0.00    -0.026 A 
ATOM     19  C   UNL     1       0.692  12.702  19.414  0.00  0.00    +0.145 A 
ATOM     20  N   UNL     1       1.201  11.562  19.956  0.00  0.00    -0.238 NA
ATOM     21  H   UNL     1      -1.177   9.392  18.877  0.00  0.00    +0.064 HD
ATOM     22  H   UNL     1      -0.867  13.633  18.250  0.00  0.00    +0.064 HD
BRANCH  17  23
ATOM     23  C   UNL     1      -2.558  11.482  17.605  0.00  0.00    +0.086 C 
ATOM     24  C   UNL     1      -3.169  10.118  17.243  0.00  0.00    +0.001 C 
ATOM     25  C   UNL     1      -4.467  10.709  17.780  0.00  0.00    +0.051 C 
ATOM     26  O   UNL     1      -3.757  11.828  18.362  0.00  0.00    -0.372 OA
ATOM     27  H   UNL     1      -2.485  12.149  16.734  0.00  0.00    +0.065 HD
ATOM     28  H   UNL     1      -2.794   9.267  17.819  0.00  0.00    +0.032 HD
ATOM     29  H   UNL     1      -3.171   9.873  16.178  0.00  0.00    +0.032 HD
ATOM     30  H   UNL     1      -5.183  11.045  17.023  0.00  0.00    +0.056 HD
ATOM     31  H   UNL     1      -4.976  10.109  18.538  0.00  0.00    +0.056 HD
ENDBRANCH  17  23
BRANCH  19  32
ATOM     32  C   UNL     1       1.423  14.024  19.620  0.00  0.00    +0.434 C 
ATOM     33  F   UNL     1       1.513  14.782  18.489  0.00  0.00    -0.164 F 
ATOM     34  F   UNL     1       2.705  13.852  20.052  0.00  0.00    -0.164 F 
ATOM     35  F   UNL     1       0.821  14.817  20.552  0.00  0.00    -0.164 F 
ENDBRANCH  19  32
ENDBRANCH  12  15
ENDBRANCH   5  11
BRANCH   1  36
ATOM     36  C   UNL     1       4.311   4.662  17.599  0.00  0.00    -0.012 C 
ATOM     37  H   UNL     1       4.296   5.399  16.785  0.00  0.00    +0.035 HD
BRANCH  36  38
ATOM     38  C   UNL     1       3.773   3.348  17.017  0.00  0.00    -0.058 C 
ATOM     39  H   UNL     1       3.888   2.528  17.734  0.00  0.00    +0.024 HD
ATOM     40  H   UNL     1       4.301   3.063  16.100  0.00  0.00    +0.024 HD
ATOM     41  H   UNL     1       2.709   3.429  16.778  0.00  0.00    +0.024 HD
ENDBRANCH  36  38
BRANCH  36  42
ATOM     42  C   UNL     1       5.762   4.527  18.106  0.00  0.00    +0.014 C 
ATOM     43  H   UNL     1       6.281   3.722  17.572  0.00  0.00    +0.035 HD
ATOM     44  H   UNL     1       5.768   4.238  19.165  0.00  0.00    +0.035 HD
BRANCH  42  45
ATOM     45  C   UNL     1       6.538   5.790  17.940  0.00  0.00    +0.134 A 
ATOM     46  N   UNL     1       6.354   6.702  17.007  0.00  0.00    -0.135 NA
ATOM     47  N   UNL     1       7.268   7.709  17.204  0.00  0.00    -0.138 NA
ATOM     48  C   UNL     1       7.994   7.388  18.247  0.00  0.00    +0.120 A 
ATOM     49  N   UNL     1       7.574   6.192  18.741  0.00  0.00    -0.320 N 
ATOM     50  H   UNL     1       8.804   7.970  18.663  0.00  0.00    +0.105 HD
BRANCH  49  51
ATOM     51  C   UNL     1       8.124   5.503  19.877  0.00  0.00    +0.014 C 
ATOM     52  H   UNL     1       7.338   5.390  20.628  0.00  0.00    +0.046 HD
ATOM     53  H   UNL     1       8.483   4.517  19.569  0.00  0.00    +0.046 HD
ATOM     54  H   UNL     1       8.956   6.087  20.275  0.00  0.00    +0.046 HD
ENDBRANCH  49  51
ENDBRANCH  42  45
ENDBRANCH  36  42
ENDBRANCH   1  36
TORSDOF 9
ENDMDL
