MODEL 1
REMARK VINA RESULT:    -8.255      0.000      0.000
REMARK INTER + INTRA:         -10.429
REMARK INTER:                  -9.885
REMARK INTRA:                  -0.544
REMARK UNBOUND:                -0.244
REMARK  Name = 
REMARK  4 active torsions:
REMARK  status: ('A' for Active; 'I' for Inactive)
REMARK    1  A    between atoms: C_2  and  C_11
REMARK    2  A    between atoms: N_3  and  C_4
REMARK    3  A    between atoms: C_4  and  C_5
REMARK    4  A    between atoms: C_16  and  C_17
REMARK                            x       y       z     vdW  Elec       q    Type
REMARK                         _______ _______ _______ _____ _____    ______ ____
ROOT
ATOM      1  C   UNL     1       5.125   4.690  16.139  0.00  0.00    +0.068 C 
ATOM      2  C   UNL     1       6.476   4.013  15.940  0.00  0.00    +0.024 C 
ATOM      3  N   UNL     1       7.199   4.298  17.143  0.00  0.00    -0.314 N 
ATOM      4  C   UNL     1       6.660   5.349  17.853  0.00  0.00    +0.223 C 
ATOM      5  O   UNL     1       7.153   5.799  18.873  0.00  0.00    -0.275 OA
ATOM      6  C   UNL     1       5.449   5.858  17.097  0.00  0.00    +0.090 C 
ATOM      7  H   UNL     1       4.747   5.058  15.177  0.00  0.00    +0.042 HD
ATOM      8  H   UNL     1       7.028   4.471  15.113  0.00  0.00    +0.047 HD
ATOM      9  H   UNL     1       6.435   2.932  15.782  0.00  0.00    +0.047 HD
ATOM     10  H   UNL     1       8.045   3.833  17.451  0.00  0.00    +0.149 HD
ATOM     11  H   UNL     1       5.836   6.694  16.494  0.00  0.00    +0.047 HD
ENDROOT
BRANCH   6  12
ATOM     12  C   UNL     1       4.287   6.403  17.885  0.00  0.00    +0.054 A 
ATOM     13  C   UNL     1       3.572   7.545  17.538  0.00  0.00    -0.040 A 
ATOM     14  C   UNL     1       2.516   7.959  18.348  0.00  0.00    -0.059 A 
ATOM     15  C   UNL     1       2.196   7.232  19.486  0.00  0.00    -0.044 A 
ATOM     16  C   UNL     1       2.956   6.117  19.777  0.00  0.00    +0.028 A 
ATOM     17  N   UNL     1       3.996   5.699  19.018  0.00  0.00    -0.259 NA
ATOM     18  H   UNL     1       3.809   8.124  16.651  0.00  0.00    +0.064 HD
ATOM     19  H   UNL     1       1.945   8.845  18.083  0.00  0.00    +0.062 HD
ATOM     20  H   UNL     1       1.375   7.530  20.130  0.00  0.00    +0.063 HD
ATOM     21  H   UNL     1       2.753   5.518  20.660  0.00  0.00    +0.083 HD
ENDBRANCH   6  12
BRANCH   1  23
ATOM     22  O   UNL     1       2.922   3.687  16.305  0.00  0.00    -0.275 OA
ATOM     23  C   UNL     1       4.091   3.704  16.674  0.00  0.00    +0.219 C 
ATOM     24  N   UNL     1       4.580   2.843  17.630  0.00  0.00    -0.311 N 
ATOM     25  H   UNL     1       5.589   2.698  17.646  0.00  0.00    +0.149 HD
BRANCH  24  26
ATOM     26  C   UNL     1       3.763   1.754  18.112  0.00  0.00    +0.037 C 
ATOM     27  H   UNL     1       4.428   0.940  18.422  0.00  0.00    +0.051 HD
ATOM     28  H   UNL     1       3.151   1.374  17.285  0.00  0.00    +0.051 HD
BRANCH  26  29
ATOM     29  C   UNL     1       2.885   2.199  19.251  0.00  0.00    -0.030 A 
ATOM     30  C   UNL     1       3.419   2.382  20.534  0.00  0.00    -0.057 A 
ATOM     31  C   UNL     1       2.607   2.813  21.584  0.00  0.00    -0.061 A 
ATOM     32  C   UNL     1       1.255   3.067  21.362  0.00  0.00    -0.062 A 
ATOM     33  C   UNL     1       0.713   2.891  20.091  0.00  0.00    -0.061 A 
ATOM     34  C   UNL     1       1.523   2.460  19.039  0.00  0.00    -0.057 A 
ATOM     35  H   UNL     1       4.473   2.192  20.721  0.00  0.00    +0.062 HD
ATOM     36  H   UNL     1       3.029   2.947  22.577  0.00  0.00    +0.062 HD
ATOM     37  H   UNL     1       0.622   3.400  22.181  0.00  0.00    +0.062 HD
ATOM     38  H   UNL     1      -0.341   3.089  19.918  0.00  0.00    +0.062 HD
ATOM     39  H   UNL     1       1.091   2.329  18.049  0.00  0.00    +0.062 HD
ENDBRANCH  26  29
ENDBRANCH  24  26
ENDBRANCH   1  23
TORSDOF 4
ENDMDL
MODEL 2
REMARK VINA RESULT:    -8.252      2.077      5.306
REMARK INTER + INTRA:         -10.425
REMARK INTER:                  -9.742
REMARK INTRA:                  -0.683
REMARK UNBOUND:                -0.244
REMARK  Name = 
REMARK  4 active torsions:
REMARK  status: ('A' for Active; 'I' for Inactive)
REMARK    1  A    between atoms: C_2  and  C_11
REMARK    2  A    between atoms: N_3  and  C_4
REMARK    3  A    between atoms: C_4  and  C_5
REMARK    4  A    between atoms: C_16  and  C_17
REMARK                            x       y       z     vdW  Elec       q    Type
REMARK                         _______ _______ _______ _____ _____    ______ ____
ROOT
ATOM      1  C   UNL     1       1.920   3.762  17.821  0.00  0.00    +0.068 C 
ATOM      2  C   UNL     1       0.992   2.765  18.504  0.00  0.00    +0.024 C 
ATOM      3  N   UNL     1       1.869   1.763  19.031  0.00  0.00    -0.314 N 
ATOM      4  C   UNL     1       3.117   1.786  18.446  0.00  0.00    +0.223 C 
ATOM      5  O   UNL     1       3.997   0.980  18.699  0.00  0.00    -0.275 OA
ATOM      6  C   UNL     1       3.136   2.898  17.417  0.00  0.00    +0.090 C 
ATOM      7  H   UNL     1       1.425   4.189  16.939  0.00  0.00    +0.042 HD
ATOM      8  H   UNL     1       0.336   2.274  17.777  0.00  0.00    +0.047 HD
ATOM      9  H   UNL     1       0.379   3.178  19.310  0.00  0.00    +0.047 HD
ATOM     10  H   UNL     1       1.624   1.064  19.723  0.00  0.00    +0.149 HD
ATOM     11  H   UNL     1       2.894   2.395  16.467  0.00  0.00    +0.047 HD
ENDROOT
BRANCH   6  12
ATOM     12  C   UNL     1       4.424   3.643  17.189  0.00  0.00    +0.054 A 
ATOM     13  C   UNL     1       4.936   3.957  15.933  0.00  0.00    -0.040 A 
ATOM     14  C   UNL     1       6.144   4.646  15.844  0.00  0.00    -0.059 A 
ATOM     15  C   UNL     1       6.818   5.007  17.002  0.00  0.00    -0.044 A 
ATOM     16  C   UNL     1       6.259   4.652  18.213  0.00  0.00    +0.028 A 
ATOM     17  N   UNL     1       5.096   3.970  18.331  0.00  0.00    -0.259 NA
ATOM     18  H   UNL     1       4.421   3.683  15.018  0.00  0.00    +0.064 HD
ATOM     19  H   UNL     1       6.549   4.904  14.868  0.00  0.00    +0.062 HD
ATOM     20  H   UNL     1       7.757   5.549  16.960  0.00  0.00    +0.063 HD
ATOM     21  H   UNL     1       6.749   4.902  19.149  0.00  0.00    +0.083 HD
ENDBRANCH   6  12
BRANCH   1  23
ATOM     22  O   UNL     1       2.223   4.844  19.973  0.00  0.00    -0.275 OA
ATOM     23  C   UNL     1       2.254   4.925  18.749  0.00  0.00    +0.219 C 
ATOM     24  N   UNL     1       2.575   6.092  18.093  0.00  0.00    -0.311 N 
ATOM     25  H   UNL     1       2.891   6.005  17.127  0.00  0.00    +0.149 HD
BRANCH  24  26
ATOM     26  C   UNL     1       3.065   7.230  18.833  0.00  0.00    +0.037 C 
ATOM     27  H   UNL     1       3.879   7.686  18.258  0.00  0.00    +0.051 HD
ATOM     28  H   UNL     1       3.494   6.883  19.780  0.00  0.00    +0.051 HD
BRANCH  26  29
ATOM     29  C   UNL     1       1.964   8.224  19.090  0.00  0.00    -0.030 A 
ATOM     30  C   UNL     1       1.410   8.359  20.371  0.00  0.00    -0.057 A 
ATOM     31  C   UNL     1       0.402   9.294  20.612  0.00  0.00    -0.061 A 
ATOM     32  C   UNL     1      -0.060  10.104  19.576  0.00  0.00    -0.062 A 
ATOM     33  C   UNL     1       0.485   9.982  18.299  0.00  0.00    -0.061 A 
ATOM     34  C   UNL     1       1.492   9.046  18.057  0.00  0.00    -0.057 A 
ATOM     35  H   UNL     1       1.763   7.736  21.189  0.00  0.00    +0.062 HD
ATOM     36  H   UNL     1      -0.025   9.388  21.606  0.00  0.00    +0.062 HD
ATOM     37  H   UNL     1      -0.848  10.830  19.763  0.00  0.00    +0.062 HD
ATOM     38  H   UNL     1       0.124  10.613  17.492  0.00  0.00    +0.062 HD
ATOM     39  H   UNL     1       1.913   8.961  17.057  0.00  0.00    +0.062 HD
ENDBRANCH  26  29
ENDBRANCH  24  26
ENDBRANCH   1  23
TORSDOF 4
ENDMDL
MODEL 3
REMARK VINA RESULT:    -8.235      2.081      5.357
REMARK INTER + INTRA:         -10.404
REMARK INTER:                  -9.724
REMARK INTRA:                  -0.680
REMARK UNBOUND:                -0.244
REMARK  Name = 
REMARK  4 active torsions:
REMARK  status: ('A' for Active; 'I' for Inactive)
REMARK    1  A    between atoms: C_2  and  C_11
REMARK    2  A    between atoms: N_3  and  C_4
REMARK    3  A    between atoms: C_4  and  C_5
REMARK    4  A    between atoms: C_16  and  C_17
REMARK                            x       y       z     vdW  Elec       q    Type
REMARK                         _______ _______ _______ _____ _____    ______ ____
ROOT
ATOM      1  C   UNL     1       1.887   3.790  17.837  0.00  0.00    +0.068 C 
ATOM      2  C   UNL     1       0.976   2.781  18.523  0.00  0.00    +0.024 C 
ATOM      3  N   UNL     1       1.866   1.775  19.019  0.00  0.00    -0.314 N 
ATOM      4  C   UNL     1       3.103   1.811  18.410  0.00  0.00    +0.223 C 
ATOM      5  O   UNL     1       3.990   1.005  18.635  0.00  0.00    -0.275 OA
ATOM      6  C   UNL     1       3.098   2.937  17.396  0.00  0.00    +0.090 C 
ATOM      7  H   UNL     1       1.373   4.228  16.971  0.00  0.00    +0.042 HD
ATOM      8  H   UNL     1       0.308   2.298  17.802  0.00  0.00    +0.047 HD
ATOM      9  H   UNL     1       0.377   3.179  19.347  0.00  0.00    +0.047 HD
ATOM     10  H   UNL     1       1.638   1.065  19.705  0.00  0.00    +0.149 HD
ATOM     11  H   UNL     1       2.839   2.447  16.445  0.00  0.00    +0.047 HD
ENDROOT
BRANCH   6  12
ATOM     12  C   UNL     1       4.378   3.691  17.154  0.00  0.00    +0.054 A 
ATOM     13  C   UNL     1       4.873   4.009  15.893  0.00  0.00    -0.040 A 
ATOM     14  C   UNL     1       6.076   4.706  15.789  0.00  0.00    -0.059 A 
ATOM     15  C   UNL     1       6.761   5.070  16.940  0.00  0.00    -0.044 A 
ATOM     16  C   UNL     1       6.219   4.710  18.158  0.00  0.00    +0.028 A 
ATOM     17  N   UNL     1       5.062   4.020  18.289  0.00  0.00    -0.259 NA
ATOM     18  H   UNL     1       4.349   3.733  14.983  0.00  0.00    +0.064 HD
ATOM     19  H   UNL     1       6.468   4.967  14.810  0.00  0.00    +0.062 HD
ATOM     20  H   UNL     1       7.696   5.618  16.887  0.00  0.00    +0.063 HD
ATOM     21  H   UNL     1       6.719   4.962  19.088  0.00  0.00    +0.083 HD
ENDBRANCH   6  12
BRANCH   1  23
ATOM     22  O   UNL     1       2.227   4.843  19.997  0.00  0.00    -0.275 OA
ATOM     23  C   UNL     1       2.234   4.942  18.774  0.00  0.00    +0.219 C 
ATOM     24  N   UNL     1       2.538   6.119  18.128  0.00  0.00    -0.311 N 
ATOM     25  H   UNL     1       2.836   6.046  17.156  0.00  0.00    +0.149 HD
BRANCH  24  26
ATOM     26  C   UNL     1       3.039   7.249  18.874  0.00  0.00    +0.037 C 
ATOM     27  H   UNL     1       3.854   7.704  18.299  0.00  0.00    +0.051 HD
ATOM     28  H   UNL     1       3.470   6.891  19.817  0.00  0.00    +0.051 HD
BRANCH  26  29
ATOM     29  C   UNL     1       1.945   8.247  19.145  0.00  0.00    -0.030 A 
ATOM     30  C   UNL     1       1.466   9.075  18.120  0.00  0.00    -0.057 A 
ATOM     31  C   UNL     1       0.438   9.987  18.368  0.00  0.00    -0.061 A 
ATOM     32  C   UNL     1      -0.122  10.078  19.641  0.00  0.00    -0.062 A 
ATOM     33  C   UNL     1       0.344   9.258  20.667  0.00  0.00    -0.061 A 
ATOM     34  C   UNL     1       1.372   8.346  20.421  0.00  0.00    -0.057 A 
ATOM     35  H   UNL     1       1.890   9.013  17.121  0.00  0.00    +0.062 HD
ATOM     36  H   UNL     1       0.077  10.628  17.569  0.00  0.00    +0.062 HD
ATOM     37  H   UNL     1      -0.920  10.790  19.835  0.00  0.00    +0.062 HD
ATOM     38  H   UNL     1      -0.092   9.329  21.660  0.00  0.00    +0.062 HD
ATOM     39  H   UNL     1       1.727   7.709  21.228  0.00  0.00    +0.062 HD
ENDBRANCH  26  29
ENDBRANCH  24  26
ENDBRANCH   1  23
TORSDOF 4
ENDMDL
MODEL 4
REMARK VINA RESULT:    -8.220      0.058      1.031
REMARK INTER + INTRA:         -10.386
REMARK INTER:                  -9.875
REMARK INTRA:                  -0.512
REMARK UNBOUND:                -0.244
REMARK  Name = 
REMARK  4 active torsions:
REMARK  status: ('A' for Active; 'I' for Inactive)
REMARK    1  A    between atoms: C_2  and  C_11
REMARK    2  A    between atoms: N_3  and  C_4
REMARK    3  A    between atoms: C_4  and  C_5
REMARK    4  A    between atoms: C_16  and  C_17
REMARK                            x       y       z     vdW  Elec       q    Type
REMARK                         _______ _______ _______ _____ _____    ______ ____
ROOT
ATOM      1  C   UNL     1       5.125   4.688  16.105  0.00  0.00    +0.068 C 
ATOM      2  C   UNL     1       6.477   4.015  15.906  0.00  0.00    +0.024 C 
ATOM      3  N   UNL     1       7.210   4.326  17.096  0.00  0.00    -0.314 N 
ATOM      4  C   UNL     1       6.672   5.388  17.791  0.00  0.00    +0.223 C 
ATOM      5  O   UNL     1       7.173   5.861  18.797  0.00  0.00    -0.275 OA
ATOM      6  C   UNL     1       5.451   5.876  17.037  0.00  0.00    +0.090 C 
ATOM      7  H   UNL     1       4.736   5.036  15.139  0.00  0.00    +0.042 HD
ATOM      8  H   UNL     1       7.019   4.460  15.064  0.00  0.00    +0.047 HD
ATOM      9  H   UNL     1       6.442   2.931  15.769  0.00  0.00    +0.047 HD
ATOM     10  H   UNL     1       8.062   3.872  17.404  0.00  0.00    +0.149 HD
ATOM     11  H   UNL     1       5.828   6.702  16.413  0.00  0.00    +0.047 HD
ENDROOT
BRANCH   6  12
ATOM     12  C   UNL     1       4.294   6.429  17.825  0.00  0.00    +0.054 A 
ATOM     13  C   UNL     1       3.574   7.565  17.466  0.00  0.00    -0.040 A 
ATOM     14  C   UNL     1       2.523   7.989  18.278  0.00  0.00    -0.059 A 
ATOM     15  C   UNL     1       2.212   7.277  19.429  0.00  0.00    -0.044 A 
ATOM     16  C   UNL     1       2.977   6.168  19.730  0.00  0.00    +0.028 A 
ATOM     17  N   UNL     1       4.012   5.742  18.970  0.00  0.00    -0.259 NA
ATOM     18  H   UNL     1       3.803   8.131  16.570  0.00  0.00    +0.064 HD
ATOM     19  H   UNL     1       1.948   8.870  18.004  0.00  0.00    +0.062 HD
ATOM     20  H   UNL     1       1.396   7.583  20.074  0.00  0.00    +0.063 HD
ATOM     21  H   UNL     1       2.782   5.581  20.623  0.00  0.00    +0.083 HD
ENDBRANCH   6  12
BRANCH   1  23
ATOM     22  O   UNL     1       2.927   3.679  16.314  0.00  0.00    -0.275 OA
ATOM     23  C   UNL     1       4.102   3.707  16.668  0.00  0.00    +0.219 C 
ATOM     24  N   UNL     1       4.605   2.862  17.631  0.00  0.00    -0.311 N 
ATOM     25  H   UNL     1       5.615   2.721  17.637  0.00  0.00    +0.149 HD
BRANCH  24  26
ATOM     26  C   UNL     1       3.799   1.778  18.140  0.00  0.00    +0.037 C 
ATOM     27  H   UNL     1       4.471   0.981  18.476  0.00  0.00    +0.051 HD
ATOM     28  H   UNL     1       3.194   1.368  17.322  0.00  0.00    +0.051 HD
BRANCH  26  29
ATOM     29  C   UNL     1       2.912   2.245  19.263  0.00  0.00    -0.030 A 
ATOM     30  C   UNL     1       1.542   2.456  19.050  0.00  0.00    -0.057 A 
ATOM     31  C   UNL     1       0.718   2.870  20.097  0.00  0.00    -0.061 A 
ATOM     32  C   UNL     1       1.253   3.077  21.368  0.00  0.00    -0.062 A 
ATOM     33  C   UNL     1       2.613   2.868  21.592  0.00  0.00    -0.061 A 
ATOM     34  C   UNL     1       3.438   2.454  20.546  0.00  0.00    -0.057 A 
ATOM     35  H   UNL     1       1.109   2.295  18.066  0.00  0.00    +0.062 HD
ATOM     36  H   UNL     1      -0.342   3.036  19.922  0.00  0.00    +0.062 HD
ATOM     37  H   UNL     1       0.612   3.403  22.182  0.00  0.00    +0.062 HD
ATOM     38  H   UNL     1       3.030   3.030  22.582  0.00  0.00    +0.062 HD
ATOM     39  H   UNL     1       4.498   2.291  20.733  0.00  0.00    +0.062 HD
ENDBRANCH  26  29
ENDBRANCH  24  26
ENDBRANCH   1  23
TORSDOF 4
ENDMDL
MODEL 5
REMARK VINA RESULT:    -7.930      2.198      5.423
REMARK INTER + INTRA:         -10.028
REMARK INTER:                  -9.381
REMARK INTRA:                  -0.647
REMARK UNBOUND:                -0.244
REMARK  Name = 
REMARK  4 active torsions:
REMARK  status: ('A' for Active; 'I' for Inactive)
REMARK    1  A    between atoms: C_2  and  C_11
REMARK    2  A    between atoms: N_3  and  C_4
REMARK    3  A    between atoms: C_4  and  C_5
REMARK    4  A    between atoms: C_16  and  C_17
REMARK                            x       y       z     vdW  Elec       q    Type
REMARK                         _______ _______ _______ _____ _____    ______ ____
ROOT
ATOM      1  C   UNL     1       1.954   3.869  17.812  0.00  0.00    +0.068 C 
ATOM      2  C   UNL     1       0.979   2.894  18.460  0.00  0.00    +0.024 C 
ATOM      3  N   UNL     1       1.811   1.863  19.002  0.00  0.00    -0.314 N 
ATOM      4  C   UNL     1       3.075   1.854  18.452  0.00  0.00    +0.223 C 
ATOM      5  O   UNL     1       3.924   1.021  18.722  0.00  0.00    -0.275 OA
ATOM      6  C   UNL     1       3.156   2.973  17.434  0.00  0.00    +0.090 C 
ATOM      7  H   UNL     1       1.497   4.318  16.920  0.00  0.00    +0.042 HD
ATOM      8  H   UNL     1       0.330   2.429  17.710  0.00  0.00    +0.047 HD
ATOM      9  H   UNL     1       0.355   3.318  19.252  0.00  0.00    +0.047 HD
ATOM     10  H   UNL     1       1.526   1.166  19.680  0.00  0.00    +0.149 HD
ATOM     11  H   UNL     1       2.926   2.486  16.474  0.00  0.00    +0.047 HD
ENDROOT
BRANCH   6  12
ATOM     12  C   UNL     1       4.471   3.683  17.249  0.00  0.00    +0.054 A 
ATOM     13  C   UNL     1       5.338   4.006  18.288  0.00  0.00    -0.040 A 
ATOM     14  C   UNL     1       6.529   4.671  17.999  0.00  0.00    -0.059 A 
ATOM     15  C   UNL     1       6.831   5.001  16.685  0.00  0.00    -0.044 A 
ATOM     16  C   UNL     1       5.918   4.660  15.706  0.00  0.00    +0.028 A 
ATOM     17  N   UNL     1       4.748   4.029  15.959  0.00  0.00    -0.259 NA
ATOM     18  H   UNL     1       5.117   3.755  19.321  0.00  0.00    +0.064 HD
ATOM     19  H   UNL     1       7.218   4.923  18.801  0.00  0.00    +0.062 HD
ATOM     20  H   UNL     1       7.753   5.513  16.432  0.00  0.00    +0.063 HD
ATOM     21  H   UNL     1       6.101   4.902  14.663  0.00  0.00    +0.083 HD
ENDBRANCH   6  12
BRANCH   1  23
ATOM     22  O   UNL     1       2.411   4.876  19.973  0.00  0.00    -0.275 OA
ATOM     23  C   UNL     1       2.295   5.015  18.759  0.00  0.00    +0.219 C 
ATOM     24  N   UNL     1       2.442   6.233  18.136  0.00  0.00    -0.311 N 
ATOM     25  H   UNL     1       2.652   6.217  17.138  0.00  0.00    +0.149 HD
BRANCH  24  26
ATOM     26  C   UNL     1       2.919   7.376  18.878  0.00  0.00    +0.037 C 
ATOM     27  H   UNL     1       3.713   7.855  18.294  0.00  0.00    +0.051 HD
ATOM     28  H   UNL     1       3.370   7.030  19.815  0.00  0.00    +0.051 HD
BRANCH  26  29
ATOM     29  C   UNL     1       1.800   8.342  19.162  0.00  0.00    -0.030 A 
ATOM     30  C   UNL     1       1.270   8.461  20.454  0.00  0.00    -0.057 A 
ATOM     31  C   UNL     1       0.245   9.371  20.719  0.00  0.00    -0.061 A 
ATOM     32  C   UNL     1      -0.258  10.172  19.696  0.00  0.00    -0.062 A 
ATOM     33  C   UNL     1       0.263  10.066  18.408  0.00  0.00    -0.061 A 
ATOM     34  C   UNL     1       1.287   9.156  18.141  0.00  0.00    -0.057 A 
ATOM     35  H   UNL     1       1.655   7.844  21.264  0.00  0.00    +0.062 HD
ATOM     36  H   UNL     1      -0.163   9.452  21.723  0.00  0.00    +0.062 HD
ATOM     37  H   UNL     1      -1.058  10.879  19.902  0.00  0.00    +0.062 HD
ATOM     38  H   UNL     1      -0.130  10.690  17.610  0.00  0.00    +0.062 HD
ATOM     39  H   UNL     1       1.689   9.083  17.133  0.00  0.00    +0.062 HD
ENDBRANCH  26  29
ENDBRANCH  24  26
ENDBRANCH   1  23
TORSDOF 4
ENDMDL
MODEL 6
REMARK VINA RESULT:    -7.762      1.671      3.608
REMARK INTER + INTRA:          -9.820
REMARK INTER:                  -8.172
REMARK INTRA:                  -1.648
REMARK UNBOUND:                -0.244
REMARK  Name = 
REMARK  4 active torsions:
REMARK  status: ('A' for Active; 'I' for Inactive)
REMARK    1  A    between atoms: C_2  and  C_11
REMARK    2  A    between atoms: N_3  and  C_4
REMARK    3  A    between atoms: C_4  and  C_5
REMARK    4  A    between atoms: C_16  and  C_17
REMARK                            x       y       z     vdW  Elec       q    Type
REMARK                         _______ _______ _______ _____ _____    ______ ____
ROOT
ATOM      1  C   UNL     1       5.376   6.336  17.757  0.00  0.00    +0.068 C 
ATOM      2  C   UNL     1       5.800   7.338  16.691  0.00  0.00    +0.024 C 
ATOM      3  N   UNL     1       5.585   6.654  15.451  0.00  0.00    -0.314 N 
ATOM      4  C   UNL     1       5.479   5.288  15.608  0.00  0.00    +0.223 C 
ATOM      5  O   UNL     1       5.358   4.509  14.677  0.00  0.00    -0.275 OA
ATOM      6  C   UNL     1       5.628   4.969  17.081  0.00  0.00    +0.090 C 
ATOM      7  H   UNL     1       6.000   6.457  18.652  0.00  0.00    +0.042 HD
ATOM      8  H   UNL     1       6.870   7.559  16.759  0.00  0.00    +0.047 HD
ATOM      9  H   UNL     1       5.245   8.281  16.692  0.00  0.00    +0.047 HD
ATOM     10  H   UNL     1       5.556   7.083  14.533  0.00  0.00    +0.149 HD
ATOM     11  H   UNL     1       6.694   4.723  17.201  0.00  0.00    +0.047 HD
ENDROOT
BRANCH   6  12
ATOM     12  C   UNL     1       4.855   3.806  17.645  0.00  0.00    +0.054 A 
ATOM     13  C   UNL     1       3.807   3.170  16.987  0.00  0.00    -0.040 A 
ATOM     14  C   UNL     1       3.158   2.105  17.610  0.00  0.00    -0.059 A 
ATOM     15  C   UNL     1       3.564   1.696  18.873  0.00  0.00    -0.044 A 
ATOM     16  C   UNL     1       4.602   2.381  19.472  0.00  0.00    +0.028 A 
ATOM     17  N   UNL     1       5.241   3.428  18.898  0.00  0.00    -0.259 NA
ATOM     18  H   UNL     1       3.478   3.476  15.999  0.00  0.00    +0.064 HD
ATOM     19  H   UNL     1       2.343   1.595  17.103  0.00  0.00    +0.062 HD
ATOM     20  H   UNL     1       3.080   0.867  19.377  0.00  0.00    +0.063 HD
ATOM     21  H   UNL     1       4.953   2.108  20.463  0.00  0.00    +0.083 HD
ENDBRANCH   6  12
BRANCH   1  23
ATOM     22  O   UNL     1       3.053   6.953  17.423  0.00  0.00    -0.275 OA
ATOM     23  C   UNL     1       3.932   6.570  18.188  0.00  0.00    +0.219 C 
ATOM     24  N   UNL     1       3.701   6.336  19.524  0.00  0.00    -0.311 N 
ATOM     25  H   UNL     1       4.364   5.730  20.006  0.00  0.00    +0.149 HD
BRANCH  24  26
ATOM     26  C   UNL     1       2.354   6.362  20.043  0.00  0.00    +0.037 C 
ATOM     27  H   UNL     1       1.697   6.773  19.268  0.00  0.00    +0.051 HD
ATOM     28  H   UNL     1       2.314   7.048  20.898  0.00  0.00    +0.051 HD
BRANCH  26  29
ATOM     29  C   UNL     1       1.906   4.985  20.457  0.00  0.00    -0.030 A 
ATOM     30  C   UNL     1       0.950   4.290  19.704  0.00  0.00    -0.057 A 
ATOM     31  C   UNL     1       0.550   3.006  20.078  0.00  0.00    -0.061 A 
ATOM     32  C   UNL     1       1.104   2.404  21.206  0.00  0.00    -0.062 A 
ATOM     33  C   UNL     1       2.058   3.084  21.961  0.00  0.00    -0.061 A 
ATOM     34  C   UNL     1       2.458   4.368  21.589  0.00  0.00    -0.057 A 
ATOM     35  H   UNL     1       0.512   4.745  18.818  0.00  0.00    +0.062 HD
ATOM     36  H   UNL     1      -0.196   2.477  19.491  0.00  0.00    +0.062 HD
ATOM     37  H   UNL     1       0.790   1.405  21.499  0.00  0.00    +0.062 HD
ATOM     38  H   UNL     1       2.489   2.615  22.841  0.00  0.00    +0.062 HD
ATOM     39  H   UNL     1       3.205   4.889  22.183  0.00  0.00    +0.062 HD
ENDBRANCH  26  29
ENDBRANCH  24  26
ENDBRANCH   1  23
TORSDOF 4
ENDMDL
MODEL 7
REMARK VINA RESULT:    -7.592      2.311      6.049
REMARK INTER + INTRA:          -9.611
REMARK INTER:                  -8.992
REMARK INTRA:                  -0.619
REMARK UNBOUND:                -0.244
REMARK  Name = 
REMARK  4 active torsions:
REMARK  status: ('A' for Active; 'I' for Inactive)
REMARK    1  A    between atoms: C_2  and  C_11
REMARK    2  A    between atoms: N_3  and  C_4
REMARK    3  A    between atoms: C_4  and  C_5
REMARK    4  A    between atoms: C_16  and  C_17
REMARK                            x       y       z     vdW  Elec       q    Type
REMARK                         _______ _______ _______ _____ _____    ______ ____
ROOT
ATOM      1  C   UNL     1       2.975   6.358  17.746  0.00  0.00    +0.068 C 
ATOM      2  C   UNL     1       2.689   7.691  18.425  0.00  0.00    +0.024 C 
ATOM      3  N   UNL     1       2.495   7.356  19.804  0.00  0.00    -0.314 N 
ATOM      4  C   UNL     1       2.231   6.016  19.995  0.00  0.00    +0.223 C 
ATOM      5  O   UNL     1       1.973   5.527  21.082  0.00  0.00    -0.275 OA
ATOM      6  C   UNL     1       2.238   5.336  18.641  0.00  0.00    +0.090 C 
ATOM      7  H   UNL     1       2.565   6.362  16.728  0.00  0.00    +0.042 HD
ATOM      8  H   UNL     1       1.751   8.126  18.062  0.00  0.00    +0.047 HD
ATOM      9  H   UNL     1       3.482   8.439  18.336  0.00  0.00    +0.047 HD
ATOM     10  H   UNL     1       2.497   8.008  20.580  0.00  0.00    +0.149 HD
ATOM     11  H   UNL     1       1.180   5.321  18.338  0.00  0.00    +0.047 HD
ENDROOT
BRANCH   6  12
ATOM     12  C   UNL     1       2.728   3.915  18.555  0.00  0.00    +0.054 A 
ATOM     13  C   UNL     1       2.419   3.042  17.515  0.00  0.00    -0.040 A 
ATOM     14  C   UNL     1       2.924   1.743  17.544  0.00  0.00    -0.059 A 
ATOM     15  C   UNL     1       3.724   1.339  18.604  0.00  0.00    -0.044 A 
ATOM     16  C   UNL     1       3.978   2.253  19.607  0.00  0.00    +0.028 A 
ATOM     17  N   UNL     1       3.489   3.515  19.614  0.00  0.00    -0.259 NA
ATOM     18  H   UNL     1       1.796   3.343  16.678  0.00  0.00    +0.064 HD
ATOM     19  H   UNL     1       2.696   1.055  16.734  0.00  0.00    +0.062 HD
ATOM     20  H   UNL     1       4.134   0.337  18.647  0.00  0.00    +0.063 HD
ATOM     21  H   UNL     1       4.591   1.986  20.463  0.00  0.00    +0.083 HD
ENDBRANCH   6  12
BRANCH   1  23
ATOM     22  O   UNL     1       5.261   6.246  18.553  0.00  0.00    -0.275 OA
ATOM     23  C   UNL     1       4.476   6.118  17.619  0.00  0.00    +0.219 C 
ATOM     24  N   UNL     1       4.882   5.765  16.352  0.00  0.00    -0.311 N 
ATOM     25  H   UNL     1       4.173   5.372  15.735  0.00  0.00    +0.149 HD
BRANCH  24  26
ATOM     26  C   UNL     1       6.246   5.354  16.115  0.00  0.00    +0.037 C 
ATOM     27  H   UNL     1       6.505   4.588  16.855  0.00  0.00    +0.051 HD
ATOM     28  H   UNL     1       6.911   6.208  16.287  0.00  0.00    +0.051 HD
BRANCH  26  29
ATOM     29  C   UNL     1       6.417   4.831  14.714  0.00  0.00    -0.030 A 
ATOM     30  C   UNL     1       5.494   3.925  14.172  0.00  0.00    -0.057 A 
ATOM     31  C   UNL     1       5.644   3.456  12.867  0.00  0.00    -0.061 A 
ATOM     32  C   UNL     1       6.716   3.889  12.088  0.00  0.00    -0.062 A 
ATOM     33  C   UNL     1       7.639   4.792  12.614  0.00  0.00    -0.061 A 
ATOM     34  C   UNL     1       7.490   5.261  13.920  0.00  0.00    -0.057 A 
ATOM     35  H   UNL     1       4.650   3.581  14.766  0.00  0.00    +0.062 HD
ATOM     36  H   UNL     1       4.927   2.749  12.457  0.00  0.00    +0.062 HD
ATOM     37  H   UNL     1       6.834   3.521  11.072  0.00  0.00    +0.062 HD
ATOM     38  H   UNL     1       8.474   5.129  12.008  0.00  0.00    +0.062 HD
ATOM     39  H   UNL     1       8.214   5.968  14.320  0.00  0.00    +0.062 HD
ENDBRANCH  26  29
ENDBRANCH  24  26
ENDBRANCH   1  23
TORSDOF 4
ENDMDL
MODEL 8
REMARK VINA RESULT:    -7.441      1.986      4.458
REMARK INTER + INTRA:          -9.425
REMARK INTER:                  -8.546
REMARK INTRA:                  -0.878
REMARK UNBOUND:                -0.244
REMARK  Name = 
REMARK  4 active torsions:
REMARK  status: ('A' for Active; 'I' for Inactive)
REMARK    1  A    between atoms: C_2  and  C_11
REMARK    2  A    between atoms: N_3  and  C_4
REMARK    3  A    between atoms: C_4  and  C_5
REMARK    4  A    between atoms: C_16  and  C_17
REMARK                            x       y       z     vdW  Elec       q    Type
REMARK                         _______ _______ _______ _____ _____    ______ ____
ROOT
ATOM      1  C   UNL     1       5.968   6.273  17.616  0.00  0.00    +0.068 C 
ATOM      2  C   UNL     1       7.210   6.514  16.767  0.00  0.00    +0.024 C 
ATOM      3  N   UNL     1       7.240   5.409  15.856  0.00  0.00    -0.314 N 
ATOM      4  C   UNL     1       6.455   4.355  16.272  0.00  0.00    +0.223 C 
ATOM      5  O   UNL     1       6.385   3.291  15.680  0.00  0.00    -0.275 OA
ATOM      6  C   UNL     1       5.808   4.736  17.587  0.00  0.00    +0.090 C 
ATOM      7  H   UNL     1       6.138   6.636  18.638  0.00  0.00    +0.042 HD
ATOM      8  H   UNL     1       8.120   6.459  17.375  0.00  0.00    +0.047 HD
ATOM      9  H   UNL     1       7.216   7.453  16.207  0.00  0.00    +0.047 HD
ATOM     10  H   UNL     1       7.799   5.350  15.014  0.00  0.00    +0.149 HD
ATOM     11  H   UNL     1       6.476   4.312  18.353  0.00  0.00    +0.047 HD
ENDROOT
BRANCH   6  12
ATOM     12  C   UNL     1       4.428   4.214  17.887  0.00  0.00    +0.054 A 
ATOM     13  C   UNL     1       3.598   3.612  16.947  0.00  0.00    -0.040 A 
ATOM     14  C   UNL     1       2.334   3.171  17.337  0.00  0.00    -0.059 A 
ATOM     15  C   UNL     1       1.923   3.339  18.652  0.00  0.00    -0.044 A 
ATOM     16  C   UNL     1       2.793   3.957  19.528  0.00  0.00    +0.028 A 
ATOM     17  N   UNL     1       4.019   4.409  19.174  0.00  0.00    -0.259 NA
ATOM     18  H   UNL     1       3.905   3.471  15.915  0.00  0.00    +0.064 HD
ATOM     19  H   UNL     1       1.680   2.692  16.614  0.00  0.00    +0.062 HD
ATOM     20  H   UNL     1       0.947   3.000  18.983  0.00  0.00    +0.063 HD
ATOM     21  H   UNL     1       2.518   4.122  20.566  0.00  0.00    +0.083 HD
ENDBRANCH   6  12
BRANCH   1  23
ATOM     22  O   UNL     1       4.597   7.257  15.872  0.00  0.00    -0.275 OA
ATOM     23  C   UNL     1       4.771   7.042  17.067  0.00  0.00    +0.219 C 
ATOM     24  N   UNL     1       3.905   7.498  18.035  0.00  0.00    -0.311 N 
ATOM     25  H   UNL     1       3.931   7.022  18.936  0.00  0.00    +0.149 HD
BRANCH  24  26
ATOM     26  C   UNL     1       2.649   8.103  17.660  0.00  0.00    +0.037 C 
ATOM     27  H   UNL     1       2.105   7.394  17.025  0.00  0.00    +0.051 HD
ATOM     28  H   UNL     1       2.849   8.994  17.052  0.00  0.00    +0.051 HD
BRANCH  26  29
ATOM     29  C   UNL     1       1.841   8.471  18.876  0.00  0.00    -0.030 A 
ATOM     30  C   UNL     1       1.923   7.703  20.046  0.00  0.00    -0.057 A 
ATOM     31  C   UNL     1       1.187   8.056  21.178  0.00  0.00    -0.061 A 
ATOM     32  C   UNL     1       0.364   9.181  21.153  0.00  0.00    -0.062 A 
ATOM     33  C   UNL     1       0.276   9.953  19.996  0.00  0.00    -0.061 A 
ATOM     34  C   UNL     1       1.011   9.601  18.863  0.00  0.00    -0.057 A 
ATOM     35  H   UNL     1       2.564   6.825  20.082  0.00  0.00    +0.062 HD
ATOM     36  H   UNL     1       1.254   7.452  22.079  0.00  0.00    +0.062 HD
ATOM     37  H   UNL     1      -0.211   9.454  22.034  0.00  0.00    +0.062 HD
ATOM     38  H   UNL     1      -0.366  10.829  19.976  0.00  0.00    +0.062 HD
ATOM     39  H   UNL     1       0.937  10.213  17.966  0.00  0.00    +0.062 HD
ENDBRANCH  26  29
ENDBRANCH  24  26
ENDBRANCH   1  23
TORSDOF 4
ENDMDL
MODEL 9
REMARK VINA RESULT:    -6.972      1.924      5.216
REMARK INTER + INTRA:          -8.847
REMARK INTER:                  -8.953
REMARK INTRA:                   0.106
REMARK UNBOUND:                -0.244
REMARK  Name = 
REMARK  4 active torsions:
REMARK  status: ('A' for Active; 'I' for Inactive)
REMARK    1  A    between atoms: C_2  and  C_11
REMARK    2  A    between atoms: N_3  and  C_4
REMARK    3  A    between atoms: C_4  and  C_5
REMARK    4  A    between atoms: C_16  and  C_17
REMARK                            x       y       z     vdW  Elec       q    Type
REMARK                         _______ _______ _______ _____ _____    ______ ____
ROOT
ATOM      1  C   UNL     1       3.738   2.835  19.084  0.00  0.00    +0.068 C 
ATOM      2  C   UNL     1       3.338   1.382  18.861  0.00  0.00    +0.024 C 
ATOM      3  N   UNL     1       1.954   1.443  18.499  0.00  0.00    -0.314 N 
ATOM      4  C   UNL     1       1.365   2.640  18.848  0.00  0.00    +0.223 C 
ATOM      5  O   UNL     1       0.180   2.880  18.690  0.00  0.00    -0.275 OA
ATOM      6  C   UNL     1       2.414   3.507  19.513  0.00  0.00    +0.090 C 
ATOM      7  H   UNL     1       4.491   2.896  19.881  0.00  0.00    +0.042 HD
ATOM      8  H   UNL     1       3.406   0.806  19.790  0.00  0.00    +0.047 HD
ATOM      9  H   UNL     1       3.900   0.859  18.081  0.00  0.00    +0.047 HD
ATOM     10  H   UNL     1       1.418   0.695  18.075  0.00  0.00    +0.149 HD
ATOM     11  H   UNL     1       2.275   3.326  20.590  0.00  0.00    +0.047 HD
ENDROOT
BRANCH   6  12
ATOM     12  C   UNL     1       2.342   4.998  19.317  0.00  0.00    +0.054 A 
ATOM     13  C   UNL     1       2.521   5.636  18.093  0.00  0.00    -0.040 A 
ATOM     14  C   UNL     1       2.438   7.027  18.032  0.00  0.00    -0.059 A 
ATOM     15  C   UNL     1       2.181   7.752  19.188  0.00  0.00    -0.044 A 
ATOM     16  C   UNL     1       2.028   7.054  20.369  0.00  0.00    +0.028 A 
ATOM     17  N   UNL     1       2.118   5.707  20.461  0.00  0.00    -0.259 NA
ATOM     18  H   UNL     1       2.721   5.084  17.181  0.00  0.00    +0.064 HD
ATOM     19  H   UNL     1       2.568   7.536  17.081  0.00  0.00    +0.062 HD
ATOM     20  H   UNL     1       2.106   8.834  19.167  0.00  0.00    +0.063 HD
ATOM     21  H   UNL     1       1.834   7.573  21.303  0.00  0.00    +0.083 HD
ENDBRANCH   6  12
BRANCH   1  23
ATOM     22  O   UNL     1       3.825   3.422  16.731  0.00  0.00    -0.275 OA
ATOM     23  C   UNL     1       4.371   3.429  17.830  0.00  0.00    +0.219 C 
ATOM     24  N   UNL     1       5.625   3.958  18.032  0.00  0.00    -0.311 N 
ATOM     25  H   UNL     1       5.867   4.217  18.988  0.00  0.00    +0.149 HD
BRANCH  24  26
ATOM     26  C   UNL     1       6.281   4.694  16.977  0.00  0.00    +0.037 C 
ATOM     27  H   UNL     1       5.519   5.007  16.254  0.00  0.00    +0.051 HD
ATOM     28  H   UNL     1       6.971   4.025  16.450  0.00  0.00    +0.051 HD
BRANCH  26  29
ATOM     29  C   UNL     1       7.022   5.883  17.527  0.00  0.00    -0.030 A 
ATOM     30  C   UNL     1       6.968   7.123  16.875  0.00  0.00    -0.057 A 
ATOM     31  C   UNL     1       7.640   8.229  17.398  0.00  0.00    -0.061 A 
ATOM     32  C   UNL     1       8.372   8.107  18.578  0.00  0.00    -0.062 A 
ATOM     33  C   UNL     1       8.432   6.881  19.237  0.00  0.00    -0.061 A 
ATOM     34  C   UNL     1       7.760   5.774  18.715  0.00  0.00    -0.057 A 
ATOM     35  H   UNL     1       6.397   7.234  15.956  0.00  0.00    +0.062 HD
ATOM     36  H   UNL     1       7.596   9.185  16.882  0.00  0.00    +0.062 HD
ATOM     37  H   UNL     1       8.898   8.968  18.983  0.00  0.00    +0.062 HD
ATOM     38  H   UNL     1       9.002   6.786  20.156  0.00  0.00    +0.062 HD
ATOM     39  H   UNL     1       7.810   4.822  19.239  0.00  0.00    +0.062 HD
ENDBRANCH  26  29
ENDBRANCH  24  26
ENDBRANCH   1  23
TORSDOF 4
ENDMDL
MODEL 10
REMARK VINA RESULT:    -6.934      1.728      5.155
REMARK INTER + INTRA:          -8.799
REMARK INTER:                  -8.616
REMARK INTRA:                  -0.183
REMARK UNBOUND:                -0.244
REMARK  Name = 
REMARK  4 active torsions:
REMARK  status: ('A' for Active; 'I' for Inactive)
REMARK    1  A    between atoms: C_2  and  C_11
REMARK    2  A    between atoms: N_3  and  C_4
REMARK    3  A    between atoms: C_4  and  C_5
REMARK    4  A    between atoms: C_16  and  C_17
REMARK                            x       y       z     vdW  Elec       q    Type
REMARK                         _______ _______ _______ _____ _____    ______ ____
ROOT
ATOM      1  C   UNL     1       4.166   3.652  19.754  0.00  0.00    +0.068 C 
ATOM      2  C   UNL     1       4.234   2.192  19.323  0.00  0.00    +0.024 C 
ATOM      3  N   UNL     1       3.298   2.093  18.244  0.00  0.00    -0.314 N 
ATOM      4  C   UNL     1       2.404   3.142  18.217  0.00  0.00    +0.223 C 
ATOM      5  O   UNL     1       1.483   3.224  17.421  0.00  0.00    -0.275 OA
ATOM      6  C   UNL     1       2.728   4.070  19.370  0.00  0.00    +0.090 C 
ATOM      7  H   UNL     1       4.326   3.730  20.837  0.00  0.00    +0.042 HD
ATOM      8  H   UNL     1       3.883   1.528  20.121  0.00  0.00    +0.047 HD
ATOM      9  H   UNL     1       5.218   1.851  18.989  0.00  0.00    +0.047 HD
ATOM     10  H   UNL     1       3.235   1.329  17.582  0.00  0.00    +0.149 HD
ATOM     11  H   UNL     1       2.054   3.747  20.178  0.00  0.00    +0.047 HD
ENDROOT
BRANCH   6  12
ATOM     12  C   UNL     1       2.501   5.547  19.188  0.00  0.00    +0.054 A 
ATOM     13  C   UNL     1       2.755   6.239  18.008  0.00  0.00    -0.040 A 
ATOM     14  C   UNL     1       2.512   7.611  17.958  0.00  0.00    -0.059 A 
ATOM     15  C   UNL     1       2.023   8.265  19.080  0.00  0.00    -0.044 A 
ATOM     16  C   UNL     1       1.806   7.518  20.220  0.00  0.00    +0.028 A 
ATOM     17  N   UNL     1       2.047   6.189  20.304  0.00  0.00    -0.259 NA
ATOM     18  H   UNL     1       3.137   5.743  17.121  0.00  0.00    +0.064 HD
ATOM     19  H   UNL     1       2.700   8.161  17.039  0.00  0.00    +0.062 HD
ATOM     20  H   UNL     1       1.820   9.330  19.065  0.00  0.00    +0.063 HD
ATOM     21  H   UNL     1       1.432   7.981  21.129  0.00  0.00    +0.083 HD
ENDBRANCH   6  12
BRANCH   1  23
ATOM     22  O   UNL     1       5.716   5.509  19.560  0.00  0.00    -0.275 OA
ATOM     23  C   UNL     1       5.262   4.473  19.083  0.00  0.00    +0.219 C 
ATOM     24  N   UNL     1       5.687   3.964  17.877  0.00  0.00    -0.311 N 
ATOM     25  H   UNL     1       5.514   2.973  17.710  0.00  0.00    +0.149 HD
BRANCH  24  26
ATOM     26  C   UNL     1       6.825   4.544  17.205  0.00  0.00    +0.037 C 
ATOM     27  H   UNL     1       7.728   4.030  17.556  0.00  0.00    +0.051 HD
ATOM     28  H   UNL     1       6.917   5.596  17.500  0.00  0.00    +0.051 HD
BRANCH  26  29
ATOM     29  C   UNL     1       6.687   4.429  15.710  0.00  0.00    -0.030 A 
ATOM     30  C   UNL     1       7.593   5.076  14.858  0.00  0.00    -0.057 A 
ATOM     31  C   UNL     1       7.474   4.953  13.472  0.00  0.00    -0.061 A 
ATOM     32  C   UNL     1       6.450   4.181  12.926  0.00  0.00    -0.062 A 
ATOM     33  C   UNL     1       5.545   3.531  13.763  0.00  0.00    -0.061 A 
ATOM     34  C   UNL     1       5.662   3.654  15.148  0.00  0.00    -0.057 A 
ATOM     35  H   UNL     1       8.399   5.678  15.270  0.00  0.00    +0.062 HD
ATOM     36  H   UNL     1       8.177   5.462  12.820  0.00  0.00    +0.062 HD
ATOM     37  H   UNL     1       6.355   4.088  11.847  0.00  0.00    +0.062 HD
ATOM     38  H   UNL     1       4.746   2.930  13.337  0.00  0.00    +0.062 HD
ATOM     39  H   UNL     1       4.952   3.140  15.793  0.00  0.00    +0.062 HD
ENDBRANCH  26  29
ENDBRANCH  24  26
ENDBRANCH   1  23
TORSDOF 4
ENDMDL
MODEL 11
REMARK VINA RESULT:    -6.702      2.183      5.406
REMARK INTER + INTRA:          -8.513
REMARK INTER:                  -8.066
REMARK INTRA:                  -0.447
REMARK UNBOUND:                -0.244
REMARK  Name = 
REMARK  4 active torsions:
REMARK  status: ('A' for Active; 'I' for Inactive)
REMARK    1  A    between atoms: C_2  and  C_11
REMARK    2  A    between atoms: N_3  and  C_4
REMARK    3  A    between atoms: C_4  and  C_5
REMARK    4  A    between atoms: C_16  and  C_17
REMARK                            x       y       z     vdW  Elec       q    Type
REMARK                         _______ _______ _______ _____ _____    ______ ____
ROOT
ATOM      1  C   UNL     1       4.576   3.421  19.114  0.00  0.00    +0.068 C 
ATOM      2  C   UNL     1       4.260   2.209  19.980  0.00  0.00    +0.024 C 
ATOM      3  N   UNL     1       3.033   2.549  20.637  0.00  0.00    -0.314 N 
ATOM      4  C   UNL     1       2.773   3.902  20.611  0.00  0.00    +0.223 C 
ATOM      5  O   UNL     1       1.815   4.417  21.165  0.00  0.00    -0.275 OA
ATOM      6  C   UNL     1       3.905   4.588  19.874  0.00  0.00    +0.090 C 
ATOM      7  H   UNL     1       5.664   3.562  19.052  0.00  0.00    +0.042 HD
ATOM      8  H   UNL     1       5.018   2.071  20.759  0.00  0.00    +0.047 HD
ATOM      9  H   UNL     1       4.138   1.268  19.437  0.00  0.00    +0.047 HD
ATOM     10  H   UNL     1       2.420   1.903  21.120  0.00  0.00    +0.149 HD
ATOM     11  H   UNL     1       4.592   4.914  20.670  0.00  0.00    +0.047 HD
ENDROOT
BRANCH   6  12
ATOM     12  C   UNL     1       3.591   5.811  19.054  0.00  0.00    +0.054 A 
ATOM     13  C   UNL     1       2.420   6.554  19.173  0.00  0.00    -0.040 A 
ATOM     14  C   UNL     1       2.234   7.667  18.354  0.00  0.00    -0.059 A 
ATOM     15  C   UNL     1       3.213   8.016  17.435  0.00  0.00    -0.044 A 
ATOM     16  C   UNL     1       4.344   7.226  17.362  0.00  0.00    +0.028 A 
ATOM     17  N   UNL     1       4.545   6.132  18.132  0.00  0.00    -0.259 NA
ATOM     18  H   UNL     1       1.645   6.295  19.887  0.00  0.00    +0.064 HD
ATOM     19  H   UNL     1       1.327   8.259  18.443  0.00  0.00    +0.062 HD
ATOM     20  H   UNL     1       3.096   8.880  16.790  0.00  0.00    +0.063 HD
ATOM     21  H   UNL     1       5.136   7.450  16.654  0.00  0.00    +0.083 HD
ENDBRANCH   6  12
BRANCH   1  23
ATOM     22  O   UNL     1       2.974   2.749  17.421  0.00  0.00    -0.275 OA
ATOM     23  C   UNL     1       4.072   3.224  17.689  0.00  0.00    +0.219 C 
ATOM     24  N   UNL     1       4.971   3.606  16.718  0.00  0.00    -0.311 N 
ATOM     25  H   UNL     1       5.694   4.269  16.996  0.00  0.00    +0.149 HD
BRANCH  24  26
ATOM     26  C   UNL     1       4.575   3.626  15.330  0.00  0.00    +0.037 C 
ATOM     27  H   UNL     1       3.710   4.292  15.230  0.00  0.00    +0.051 HD
ATOM     28  H   UNL     1       4.246   2.622  15.038  0.00  0.00    +0.051 HD
BRANCH  26  29
ATOM     29  C   UNL     1       5.710   4.081  14.450  0.00  0.00    -0.030 A 
ATOM     30  C   UNL     1       5.837   3.595  13.141  0.00  0.00    -0.057 A 
ATOM     31  C   UNL     1       6.878   4.032  12.322  0.00  0.00    -0.061 A 
ATOM     32  C   UNL     1       7.801   4.960  12.801  0.00  0.00    -0.062 A 
ATOM     33  C   UNL     1       7.684   5.453  14.099  0.00  0.00    -0.061 A 
ATOM     34  C   UNL     1       6.643   5.016  14.920  0.00  0.00    -0.057 A 
ATOM     35  H   UNL     1       5.122   2.873  12.752  0.00  0.00    +0.062 HD
ATOM     36  H   UNL     1       6.972   3.646  11.310  0.00  0.00    +0.062 HD
ATOM     37  H   UNL     1       8.614   5.298  12.163  0.00  0.00    +0.062 HD
ATOM     38  H   UNL     1       8.403   6.176  14.473  0.00  0.00    +0.062 HD
ATOM     39  H   UNL     1       6.558   5.409  15.931  0.00  0.00    +0.062 HD
ENDBRANCH  26  29
ENDBRANCH  24  26
ENDBRANCH   1  23
TORSDOF 4
ENDMDL
MODEL 12
REMARK VINA RESULT:    -6.570      2.185      3.418
REMARK INTER + INTRA:          -8.350
REMARK INTER:                  -7.966
REMARK INTRA:                  -0.383
REMARK UNBOUND:                -0.244
REMARK  Name = 
REMARK  4 active torsions:
REMARK  status: ('A' for Active; 'I' for Inactive)
REMARK    1  A    between atoms: C_2  and  C_11
REMARK    2  A    between atoms: N_3  and  C_4
REMARK    3  A    between atoms: C_4  and  C_5
REMARK    4  A    between atoms: C_16  and  C_17
REMARK                            x       y       z     vdW  Elec       q    Type
REMARK                         _______ _______ _______ _____ _____    ______ ____
ROOT
ATOM      1  C   UNL     1       6.963   4.684  18.597  0.00  0.00    +0.068 C 
ATOM      2  C   UNL     1       7.546   5.502  19.743  0.00  0.00    +0.024 C 
ATOM      3  N   UNL     1       7.731   6.810  19.191  0.00  0.00    -0.314 N 
ATOM      4  C   UNL     1       7.726   6.812  17.812  0.00  0.00    +0.223 C 
ATOM      5  O   UNL     1       7.930   7.808  17.137  0.00  0.00    -0.275 OA
ATOM      6  C   UNL     1       7.518   5.388  17.338  0.00  0.00    +0.090 C 
ATOM      7  H   UNL     1       7.317   3.647  18.661  0.00  0.00    +0.042 HD
ATOM      8  H   UNL     1       8.534   5.128  20.032  0.00  0.00    +0.047 HD
ATOM      9  H   UNL     1       6.918   5.565  20.636  0.00  0.00    +0.047 HD
ATOM     10  H   UNL     1       7.898   7.659  19.719  0.00  0.00    +0.149 HD
ATOM     11  H   UNL     1       8.536   5.009  17.158  0.00  0.00    +0.047 HD
ENDROOT
BRANCH   6  12
ATOM     12  C   UNL     1       6.746   5.161  16.065  0.00  0.00    +0.054 A 
ATOM     13  C   UNL     1       5.800   6.045  15.555  0.00  0.00    -0.040 A 
ATOM     14  C   UNL     1       5.142   5.726  14.368  0.00  0.00    -0.059 A 
ATOM     15  C   UNL     1       5.436   4.537  13.716  0.00  0.00    -0.044 A 
ATOM     16  C   UNL     1       6.375   3.701  14.287  0.00  0.00    +0.028 A 
ATOM     17  N   UNL     1       7.020   3.977  15.444  0.00  0.00    -0.259 NA
ATOM     18  H   UNL     1       5.560   6.979  16.052  0.00  0.00    +0.064 HD
ATOM     19  H   UNL     1       4.406   6.412  13.955  0.00  0.00    +0.062 HD
ATOM     20  H   UNL     1       4.942   4.268  12.789  0.00  0.00    +0.063 HD
ATOM     21  H   UNL     1       6.636   2.755  13.822  0.00  0.00    +0.083 HD
ENDBRANCH   6  12
BRANCH   1  23
ATOM     22  O   UNL     1       4.767   5.501  19.228  0.00  0.00    -0.275 OA
ATOM     23  C   UNL     1       5.441   4.638  18.675  0.00  0.00    +0.219 C 
ATOM     24  N   UNL     1       4.883   3.526  18.087  0.00  0.00    -0.311 N 
ATOM     25  H   UNL     1       5.447   3.041  17.390  0.00  0.00    +0.149 HD
BRANCH  24  26
ATOM     26  C   UNL     1       3.450   3.422  17.943  0.00  0.00    +0.037 C 
ATOM     27  H   UNL     1       3.235   2.600  17.251  0.00  0.00    +0.051 HD
ATOM     28  H   UNL     1       3.070   4.341  17.481  0.00  0.00    +0.051 HD
BRANCH  26  29
ATOM     29  C   UNL     1       2.787   3.194  19.275  0.00  0.00    -0.030 A 
ATOM     30  C   UNL     1       3.442   2.474  20.285  0.00  0.00    -0.057 A 
ATOM     31  C   UNL     1       2.834   2.280  21.526  0.00  0.00    -0.061 A 
ATOM     32  C   UNL     1       1.566   2.805  21.771  0.00  0.00    -0.062 A 
ATOM     33  C   UNL     1       0.906   3.524  20.777  0.00  0.00    -0.061 A 
ATOM     34  C   UNL     1       1.513   3.719  19.535  0.00  0.00    -0.057 A 
ATOM     35  H   UNL     1       4.434   2.062  20.109  0.00  0.00    +0.062 HD
ATOM     36  H   UNL     1       3.348   1.717  22.300  0.00  0.00    +0.062 HD
ATOM     37  H   UNL     1       1.092   2.651  22.737  0.00  0.00    +0.062 HD
ATOM     38  H   UNL     1      -0.082   3.933  20.968  0.00  0.00    +0.062 HD
ATOM     39  H   UNL     1       0.990   4.284  18.767  0.00  0.00    +0.062 HD
ENDBRANCH  26  29
ENDBRANCH  24  26
ENDBRANCH   1  23
TORSDOF 4
ENDMDL
MODEL 13
REMARK VINA RESULT:    -6.445      2.384      5.116
REMARK INTER + INTRA:          -8.196
REMARK INTER:                  -8.236
REMARK INTRA:                   0.039
REMARK UNBOUND:                -0.244
REMARK  Name = 
REMARK  4 active torsions:
REMARK  status: ('A' for Active; 'I' for Inactive)
REMARK    1  A    between atoms: C_2  and  C_11
REMARK    2  A    between atoms: N_3  and  C_4
REMARK    3  A    between atoms: C_4  and  C_5
REMARK    4  A    between atoms: C_16  and  C_17
REMARK                            x       y       z     vdW  Elec       q    Type
REMARK                         _______ _______ _______ _____ _____    ______ ____
ROOT
ATOM      1  C   UNL     1       4.226   6.491  18.192  0.00  0.00    +0.068 C 
ATOM      2  C   UNL     1       5.150   6.672  16.994  0.00  0.00    +0.024 C 
ATOM      3  N   UNL     1       5.054   5.435  16.278  0.00  0.00    -0.314 N 
ATOM      4  C   UNL     1       4.541   4.413  17.048  0.00  0.00    +0.223 C 
ATOM      5  O   UNL     1       4.433   3.263  16.657  0.00  0.00    -0.275 OA
ATOM      6  C   UNL     1       4.243   4.964  18.427  0.00  0.00    +0.090 C 
ATOM      7  H   UNL     1       4.629   7.031  19.059  0.00  0.00    +0.042 HD
ATOM      8  H   UNL     1       6.192   6.784  17.312  0.00  0.00    +0.047 HD
ATOM      9  H   UNL     1       4.893   7.502  16.330  0.00  0.00    +0.047 HD
ATOM     10  H   UNL     1       5.362   5.275  15.326  0.00  0.00    +0.149 HD
ATOM     11  H   UNL     1       5.140   4.721  19.018  0.00  0.00    +0.047 HD
ENDROOT
BRANCH   6  12
ATOM     12  C   UNL     1       3.068   4.404  19.185  0.00  0.00    +0.054 A 
ATOM     13  C   UNL     1       2.750   4.743  20.497  0.00  0.00    -0.040 A 
ATOM     14  C   UNL     1       1.639   4.155  21.101  0.00  0.00    -0.059 A 
ATOM     15  C   UNL     1       0.872   3.243  20.391  0.00  0.00    -0.044 A 
ATOM     16  C   UNL     1       1.254   2.943  19.099  0.00  0.00    +0.028 A 
ATOM     17  N   UNL     1       2.335   3.486  18.491  0.00  0.00    -0.259 NA
ATOM     18  H   UNL     1       3.339   5.456  21.066  0.00  0.00    +0.064 HD
ATOM     19  H   UNL     1       1.376   4.418  22.123  0.00  0.00    +0.062 HD
ATOM     20  H   UNL     1       0.000   2.776  20.836  0.00  0.00    +0.063 HD
ATOM     21  H   UNL     1       0.694   2.230  18.502  0.00  0.00    +0.083 HD
ENDBRANCH   6  12
BRANCH   1  23
ATOM     22  O   UNL     1       1.924   6.420  17.428  0.00  0.00    -0.275 OA
ATOM     23  C   UNL     1       2.844   7.071  17.912  0.00  0.00    +0.219 C 
ATOM     24  N   UNL     1       2.721   8.405  18.230  0.00  0.00    -0.311 N 
ATOM     25  H   UNL     1       3.387   8.781  18.904  0.00  0.00    +0.149 HD
BRANCH  24  26
ATOM     26  C   UNL     1       1.430   9.050  18.169  0.00  0.00    +0.037 C 
ATOM     27  H   UNL     1       0.744   8.390  17.625  0.00  0.00    +0.051 HD
ATOM     28  H   UNL     1       1.521   9.974  17.585  0.00  0.00    +0.051 HD
BRANCH  26  29
ATOM     29  C   UNL     1       0.910   9.351  19.549  0.00  0.00    -0.030 A 
ATOM     30  C   UNL     1       1.260   8.539  20.637  0.00  0.00    -0.057 A 
ATOM     31  C   UNL     1       0.792   8.831  21.919  0.00  0.00    -0.061 A 
ATOM     32  C   UNL     1      -0.027   9.939  22.127  0.00  0.00    -0.062 A 
ATOM     33  C   UNL     1      -0.380  10.756  21.054  0.00  0.00    -0.061 A 
ATOM     34  C   UNL     1       0.087  10.465  19.771  0.00  0.00    -0.057 A 
ATOM     35  H   UNL     1       1.902   7.673  20.490  0.00  0.00    +0.062 HD
ATOM     36  H   UNL     1       1.064   8.193  22.755  0.00  0.00    +0.062 HD
ATOM     37  H   UNL     1      -0.394  10.165  23.125  0.00  0.00    +0.062 HD
ATOM     38  H   UNL     1      -1.019  11.619  21.216  0.00  0.00    +0.062 HD
ATOM     39  H   UNL     1      -0.191  11.111  18.941  0.00  0.00    +0.062 HD
ENDBRANCH  26  29
ENDBRANCH  24  26
ENDBRANCH   1  23
TORSDOF 4
ENDMDL
MODEL 14
REMARK VINA RESULT:    -6.370      2.029      4.984
REMARK INTER + INTRA:          -8.103
REMARK INTER:                  -8.863
REMARK INTRA:                   0.760
REMARK UNBOUND:                -0.244
REMARK  Name = 
REMARK  4 active torsions:
REMARK  status: ('A' for Active; 'I' for Inactive)
REMARK    1  A    between atoms: C_2  and  C_11
REMARK    2  A    between atoms: N_3  and  C_4
REMARK    3  A    between atoms: C_4  and  C_5
REMARK    4  A    between atoms: C_16  and  C_17
REMARK                            x       y       z     vdW  Elec       q    Type
REMARK                         _______ _______ _______ _____ _____    ______ ____
ROOT
ATOM      1  C   UNL     1       4.964   6.197  18.038  0.00  0.00    +0.068 C 
ATOM      2  C   UNL     1       5.841   6.878  16.995  0.00  0.00    +0.024 C 
ATOM      3  N   UNL     1       5.979   5.904  15.954  0.00  0.00    -0.314 N 
ATOM      4  C   UNL     1       5.664   4.629  16.373  0.00  0.00    +0.223 C 
ATOM      5  O   UNL     1       5.774   3.640  15.667  0.00  0.00    -0.275 OA
ATOM      6  C   UNL     1       5.265   4.696  17.832  0.00  0.00    +0.090 C 
ATOM      7  H   UNL     1       5.257   6.527  19.044  0.00  0.00    +0.042 HD
ATOM      8  H   UNL     1       6.843   7.077  17.390  0.00  0.00    +0.047 HD
ATOM      9  H   UNL     1       5.435   7.805  16.580  0.00  0.00    +0.047 HD
ATOM     10  H   UNL     1       6.315   6.083  15.015  0.00  0.00    +0.149 HD
ATOM     11  H   UNL     1       6.190   4.457  18.380  0.00  0.00    +0.047 HD
ENDROOT
BRANCH   6  12
ATOM     12  C   UNL     1       4.214   3.741  18.333  0.00  0.00    +0.054 A 
ATOM     13  C   UNL     1       3.957   3.495  19.679  0.00  0.00    -0.040 A 
ATOM     14  C   UNL     1       2.961   2.583  20.026  0.00  0.00    -0.059 A 
ATOM     15  C   UNL     1       2.244   1.935  19.030  0.00  0.00    -0.044 A 
ATOM     16  C   UNL     1       2.560   2.218  17.716  0.00  0.00    +0.028 A 
ATOM     17  N   UNL     1       3.531   3.087  17.349  0.00  0.00    -0.259 NA
ATOM     18  H   UNL     1       4.508   3.994  20.470  0.00  0.00    +0.064 HD
ATOM     19  H   UNL     1       2.747   2.388  21.074  0.00  0.00    +0.062 HD
ATOM     20  H   UNL     1       1.460   1.226  19.273  0.00  0.00    +0.063 HD
ATOM     21  H   UNL     1       2.036   1.733  16.899  0.00  0.00    +0.083 HD
ENDBRANCH   6  12
BRANCH   1  23
ATOM     22  O   UNL     1       2.599   5.755  17.724  0.00  0.00    -0.275 OA
ATOM     23  C   UNL     1       3.499   6.578  17.857  0.00  0.00    +0.219 C 
ATOM     24  N   UNL     1       3.271   7.935  17.831  0.00  0.00    -0.311 N 
ATOM     25  H   UNL     1       3.980   8.529  18.259  0.00  0.00    +0.149 HD
BRANCH  24  26
ATOM     26  C   UNL     1       1.920   8.445  17.825  0.00  0.00    +0.037 C 
ATOM     27  H   UNL     1       1.257   7.651  17.462  0.00  0.00    +0.051 HD
ATOM     28  H   UNL     1       1.854   9.273  17.109  0.00  0.00    +0.051 HD
BRANCH  26  29
ATOM     29  C   UNL     1       1.509   8.907  19.197  0.00  0.00    -0.030 A 
ATOM     30  C   UNL     1       0.958  10.182  19.387  0.00  0.00    -0.057 A 
ATOM     31  C   UNL     1       0.561  10.601  20.657  0.00  0.00    -0.061 A 
ATOM     32  C   UNL     1       0.708   9.749  21.750  0.00  0.00    -0.062 A 
ATOM     33  C   UNL     1       1.251   8.478  21.575  0.00  0.00    -0.061 A 
ATOM     34  C   UNL     1       1.649   8.058  20.305  0.00  0.00    -0.057 A 
ATOM     35  H   UNL     1       0.834  10.857  18.542  0.00  0.00    +0.062 HD
ATOM     36  H   UNL     1       0.140  11.594  20.794  0.00  0.00    +0.062 HD
ATOM     37  H   UNL     1       0.401  10.077  22.740  0.00  0.00    +0.062 HD
ATOM     38  H   UNL     1       1.365   7.814  22.427  0.00  0.00    +0.062 HD
ATOM     39  H   UNL     1       2.069   7.062  20.178  0.00  0.00    +0.062 HD
ENDBRANCH  26  29
ENDBRANCH  24  26
ENDBRANCH   1  23
TORSDOF 4
ENDMDL
MODEL 15
REMARK VINA RESULT:    -6.275      8.267     10.700
REMARK INTER + INTRA:          -7.986
REMARK INTER:                  -7.691
REMARK INTRA:                  -0.295
REMARK UNBOUND:                -0.244
REMARK  Name = 
REMARK  4 active torsions:
REMARK  status: ('A' for Active; 'I' for Inactive)
REMARK    1  A    between atoms: C_2  and  C_11
REMARK    2  A    between atoms: N_3  and  C_4
REMARK    3  A    between atoms: C_4  and  C_5
REMARK    4  A    between atoms: C_16  and  C_17
REMARK                            x       y       z     vdW  Elec       q    Type
REMARK                         _______ _______ _______ _____ _____    ______ ____
ROOT
ATOM      1  C   UNL     1      -2.301  13.897  21.529  0.00  0.00    +0.068 C 
ATOM      2  C   UNL     1      -2.256  15.194  20.731  0.00  0.00    +0.024 C 
ATOM      3  N   UNL     1      -1.221  14.983  19.764  0.00  0.00    -0.314 N 
ATOM      4  C   UNL     1      -0.383  13.941  20.100  0.00  0.00    +0.223 C 
ATOM      5  O   UNL     1       0.601  13.630  19.450  0.00  0.00    -0.275 OA
ATOM      6  C   UNL     1      -0.858  13.357  21.414  0.00  0.00    +0.090 C 
ATOM      7  H   UNL     1      -2.564  14.111  22.574  0.00  0.00    +0.042 HD
ATOM      8  H   UNL     1      -1.946  16.035  21.361  0.00  0.00    +0.047 HD
ATOM      9  H   UNL     1      -3.187  15.460  20.222  0.00  0.00    +0.047 HD
ATOM     10  H   UNL     1      -1.059  15.544  18.936  0.00  0.00    +0.149 HD
ATOM     11  H   UNL     1      -0.245  13.864  22.176  0.00  0.00    +0.047 HD
ENDROOT
BRANCH   6  12
ATOM     12  C   UNL     1      -0.690  11.879  21.645  0.00  0.00    +0.054 A 
ATOM     13  C   UNL     1      -0.362  10.963  20.650  0.00  0.00    -0.040 A 
ATOM     14  C   UNL     1      -0.239   9.614  20.979  0.00  0.00    -0.059 A 
ATOM     15  C   UNL     1      -0.447   9.204  22.289  0.00  0.00    -0.044 A 
ATOM     16  C   UNL     1      -0.783  10.165  23.222  0.00  0.00    +0.028 A 
ATOM     17  N   UNL     1      -0.924  11.478  22.929  0.00  0.00    -0.259 NA
ATOM     18  H   UNL     1      -0.195  11.268  19.621  0.00  0.00    +0.064 HD
ATOM     19  H   UNL     1       0.025   8.891  20.212  0.00  0.00    +0.062 HD
ATOM     20  H   UNL     1      -0.352   8.162  22.573  0.00  0.00    +0.063 HD
ATOM     21  H   UNL     1      -0.965   9.897  24.259  0.00  0.00    +0.083 HD
ENDBRANCH   6  12
BRANCH   1  23
ATOM     22  O   UNL     1      -4.199  12.394  21.697  0.00  0.00    -0.275 OA
ATOM     23  C   UNL     1      -3.372  12.956  20.987  0.00  0.00    +0.219 C 
ATOM     24  N   UNL     1      -3.319  12.772  19.624  0.00  0.00    -0.311 N 
ATOM     25  H   UNL     1      -2.843  13.492  19.080  0.00  0.00    +0.149 HD
BRANCH  24  26
ATOM     26  C   UNL     1      -4.362  12.037  18.949  0.00  0.00    +0.037 C 
ATOM     27  H   UNL     1      -5.132  12.749  18.632  0.00  0.00    +0.051 HD
ATOM     28  H   UNL     1      -4.831  11.348  19.661  0.00  0.00    +0.051 HD
BRANCH  26  29
ATOM     29  C   UNL     1      -3.812  11.276  17.771  0.00  0.00    -0.030 A 
ATOM     30  C   UNL     1      -4.415  11.382  16.509  0.00  0.00    -0.057 A 
ATOM     31  C   UNL     1      -3.893  10.691  15.415  0.00  0.00    -0.061 A 
ATOM     32  C   UNL     1      -2.762   9.890  15.570  0.00  0.00    -0.062 A 
ATOM     33  C   UNL     1      -2.153   9.780  16.818  0.00  0.00    -0.061 A 
ATOM     34  C   UNL     1      -2.674  10.470  17.914  0.00  0.00    -0.057 A 
ATOM     35  H   UNL     1      -5.295  12.006  16.373  0.00  0.00    +0.062 HD
ATOM     36  H   UNL     1      -4.370  10.775  14.442  0.00  0.00    +0.062 HD
ATOM     37  H   UNL     1      -2.358   9.350  14.718  0.00  0.00    +0.062 HD
ATOM     38  H   UNL     1      -1.272   9.155  16.939  0.00  0.00    +0.062 HD
ATOM     39  H   UNL     1      -2.189  10.379  18.883  0.00  0.00    +0.062 HD
ENDBRANCH  26  29
ENDBRANCH  24  26
ENDBRANCH   1  23
TORSDOF 4
ENDMDL
MODEL 16
REMARK VINA RESULT:    -6.245      2.313      5.798
REMARK INTER + INTRA:          -7.949
REMARK INTER:                  -7.667
REMARK INTRA:                  -0.282
REMARK UNBOUND:                -0.244
REMARK  Name = 
REMARK  4 active torsions:
REMARK  status: ('A' for Active; 'I' for Inactive)
REMARK    1  A    between atoms: C_2  and  C_11
REMARK    2  A    between atoms: N_3  and  C_4
REMARK    3  A    between atoms: C_4  and  C_5
REMARK    4  A    between atoms: C_16  and  C_17
REMARK                            x       y       z     vdW  Elec       q    Type
REMARK                         _______ _______ _______ _____ _____    ______ ____
ROOT
ATOM      1  C   UNL     1       2.524   6.404  17.786  0.00  0.00    +0.068 C 
ATOM      2  C   UNL     1       2.619   7.923  17.864  0.00  0.00    +0.024 C 
ATOM      3  N   UNL     1       2.468   8.219  19.257  0.00  0.00    -0.314 N 
ATOM      4  C   UNL     1       1.911   7.176  19.966  0.00  0.00    +0.223 C 
ATOM      5  O   UNL     1       1.635   7.237  21.152  0.00  0.00    -0.275 OA
ATOM      6  C   UNL     1       1.644   6.038  19.002  0.00  0.00    +0.090 C 
ATOM      7  H   UNL     1       2.044   6.108  16.844  0.00  0.00    +0.042 HD
ATOM      8  H   UNL     1       1.784   8.398  17.337  0.00  0.00    +0.047 HD
ATOM      9  H   UNL     1       3.556   8.350  17.497  0.00  0.00    +0.047 HD
ATOM     10  H   UNL     1       2.688   9.102  19.703  0.00  0.00    +0.149 HD
ATOM     11  H   UNL     1       0.590   6.170  18.709  0.00  0.00    +0.047 HD
ENDROOT
BRANCH   6  12
ATOM     12  C   UNL     1       1.774   4.625  19.505  0.00  0.00    +0.054 A 
ATOM     13  C   UNL     1       1.401   3.498  18.778  0.00  0.00    -0.040 A 
ATOM     14  C   UNL     1       1.562   2.237  19.350  0.00  0.00    -0.059 A 
ATOM     15  C   UNL     1       2.087   2.123  20.629  0.00  0.00    -0.044 A 
ATOM     16  C   UNL     1       2.423   3.284  21.297  0.00  0.00    +0.028 A 
ATOM     17  N   UNL     1       2.265   4.522  20.774  0.00  0.00    -0.259 NA
ATOM     18  H   UNL     1       0.990   3.570  17.777  0.00  0.00    +0.064 HD
ATOM     19  H   UNL     1       1.282   1.349  18.789  0.00  0.00    +0.062 HD
ATOM     20  H   UNL     1       2.228   1.153  21.094  0.00  0.00    +0.063 HD
ATOM     21  H   UNL     1       2.830   3.251  22.303  0.00  0.00    +0.083 HD
ENDBRANCH   6  12
BRANCH   1  23
ATOM     22  O   UNL     1       4.682   5.845  18.746  0.00  0.00    -0.275 OA
ATOM     23  C   UNL     1       3.910   5.767  17.795  0.00  0.00    +0.219 C 
ATOM     24  N   UNL     1       4.233   5.111  16.630  0.00  0.00    -0.311 N 
ATOM     25  H   UNL     1       3.458   4.814  16.038  0.00  0.00    +0.149 HD
BRANCH  24  26
ATOM     26  C   UNL     1       5.443   4.327  16.549  0.00  0.00    +0.037 C 
ATOM     27  H   UNL     1       5.212   3.308  16.881  0.00  0.00    +0.051 HD
ATOM     28  H   UNL     1       6.181   4.735  17.250  0.00  0.00    +0.051 HD
BRANCH  26  29
ATOM     29  C   UNL     1       5.996   4.327  15.149  0.00  0.00    -0.030 A 
ATOM     30  C   UNL     1       7.157   5.049  14.840  0.00  0.00    -0.057 A 
ATOM     31  C   UNL     1       7.678   5.032  13.545  0.00  0.00    -0.061 A 
ATOM     32  C   UNL     1       7.046   4.292  12.548  0.00  0.00    -0.062 A 
ATOM     33  C   UNL     1       5.893   3.567  12.843  0.00  0.00    -0.061 A 
ATOM     34  C   UNL     1       5.370   3.584  14.137  0.00  0.00    -0.057 A 
ATOM     35  H   UNL     1       7.663   5.628  15.609  0.00  0.00    +0.062 HD
ATOM     36  H   UNL     1       8.576   5.600  13.314  0.00  0.00    +0.062 HD
ATOM     37  H   UNL     1       7.451   4.282  11.539  0.00  0.00    +0.062 HD
ATOM     38  H   UNL     1       5.400   2.991  12.066  0.00  0.00    +0.062 HD
ATOM     39  H   UNL     1       4.471   3.012  14.358  0.00  0.00    +0.062 HD
ENDBRANCH  26  29
ENDBRANCH  24  26
ENDBRANCH   1  23
TORSDOF 4
ENDMDL
MODEL 17
REMARK VINA RESULT:    -6.121      2.828      5.727
REMARK INTER + INTRA:          -7.796
REMARK INTER:                  -8.390
REMARK INTRA:                   0.593
REMARK UNBOUND:                -0.244
REMARK  Name = 
REMARK  4 active torsions:
REMARK  status: ('A' for Active; 'I' for Inactive)
REMARK    1  A    between atoms: C_2  and  C_11
REMARK    2  A    between atoms: N_3  and  C_4
REMARK    3  A    between atoms: C_4  and  C_5
REMARK    4  A    between atoms: C_16  and  C_17
REMARK                            x       y       z     vdW  Elec       q    Type
REMARK                         _______ _______ _______ _____ _____    ______ ____
ROOT
ATOM      1  C   UNL     1       1.796   4.592  19.017  0.00  0.00    +0.068 C 
ATOM      2  C   UNL     1       1.085   4.254  20.321  0.00  0.00    +0.024 C 
ATOM      3  N   UNL     1       2.084   3.600  21.113  0.00  0.00    -0.314 N 
ATOM      4  C   UNL     1       3.146   3.145  20.361  0.00  0.00    +0.223 C 
ATOM      5  O   UNL     1       4.076   2.505  20.824  0.00  0.00    -0.275 OA
ATOM      6  C   UNL     1       2.888   3.504  18.912  0.00  0.00    +0.090 C 
ATOM      7  H   UNL     1       1.089   4.527  18.179  0.00  0.00    +0.042 HD
ATOM      8  H   UNL     1       0.278   3.532  20.156  0.00  0.00    +0.047 HD
ATOM      9  H   UNL     1       0.685   5.111  20.869  0.00  0.00    +0.047 HD
ATOM     10  H   UNL     1       2.032   3.429  22.110  0.00  0.00    +0.149 HD
ATOM     11  H   UNL     1       2.426   2.600  18.485  0.00  0.00    +0.047 HD
ENDROOT
BRANCH   6  12
ATOM     12  C   UNL     1       4.065   3.837  18.034  0.00  0.00    +0.054 A 
ATOM     13  C   UNL     1       4.043   3.788  16.644  0.00  0.00    -0.040 A 
ATOM     14  C   UNL     1       5.197   4.113  15.933  0.00  0.00    -0.059 A 
ATOM     15  C   UNL     1       6.348   4.476  16.618  0.00  0.00    -0.044 A 
ATOM     16  C   UNL     1       6.301   4.491  17.998  0.00  0.00    +0.028 A 
ATOM     17  N   UNL     1       5.201   4.166  18.715  0.00  0.00    -0.259 NA
ATOM     18  H   UNL     1       3.151   3.507  16.092  0.00  0.00    +0.064 HD
ATOM     19  H   UNL     1       5.190   4.086  14.846  0.00  0.00    +0.062 HD
ATOM     20  H   UNL     1       7.257   4.739  16.089  0.00  0.00    +0.063 HD
ATOM     21  H   UNL     1       7.176   4.759  18.584  0.00  0.00    +0.083 HD
ENDBRANCH   6  12
BRANCH   1  23
ATOM     22  O   UNL     1       3.275   6.398  18.353  0.00  0.00    -0.275 OA
ATOM     23  C   UNL     1       2.329   6.021  19.037  0.00  0.00    +0.219 C 
ATOM     24  N   UNL     1       1.669   6.854  19.912  0.00  0.00    -0.311 N 
ATOM     25  H   UNL     1       0.727   6.577  20.188  0.00  0.00    +0.149 HD
BRANCH  24  26
ATOM     26  C   UNL     1       1.957   8.269  19.925  0.00  0.00    +0.037 C 
ATOM     27  H   UNL     1       1.896   8.639  18.895  0.00  0.00    +0.051 HD
ATOM     28  H   UNL     1       2.989   8.420  20.263  0.00  0.00    +0.051 HD
BRANCH  26  29
ATOM     29  C   UNL     1       0.999   9.007  20.821  0.00  0.00    -0.030 A 
ATOM     30  C   UNL     1       0.636   8.479  22.068  0.00  0.00    -0.057 A 
ATOM     31  C   UNL     1      -0.237   9.174  22.906  0.00  0.00    -0.061 A 
ATOM     32  C   UNL     1      -0.754  10.405  22.507  0.00  0.00    -0.062 A 
ATOM     33  C   UNL     1      -0.399  10.942  21.271  0.00  0.00    -0.061 A 
ATOM     34  C   UNL     1       0.473  10.248  20.432  0.00  0.00    -0.057 A 
ATOM     35  H   UNL     1       1.035   7.521  22.395  0.00  0.00    +0.062 HD
ATOM     36  H   UNL     1      -0.516   8.753  23.868  0.00  0.00    +0.062 HD
ATOM     37  H   UNL     1      -1.437  10.945  23.159  0.00  0.00    +0.062 HD
ATOM     38  H   UNL     1      -0.803  11.902  20.960  0.00  0.00    +0.062 HD
ATOM     39  H   UNL     1       0.747  10.678  19.471  0.00  0.00    +0.062 HD
ENDBRANCH  26  29
ENDBRANCH  24  26
ENDBRANCH   1  23
TORSDOF 4
ENDMDL
MODEL 18
REMARK VINA RESULT:    -6.119      7.139      9.966
REMARK INTER + INTRA:          -7.794
REMARK INTER:                  -6.852
REMARK INTRA:                  -0.941
REMARK UNBOUND:                -0.244
REMARK  Name = 
REMARK  4 active torsions:
REMARK  status: ('A' for Active; 'I' for Inactive)
REMARK    1  A    between atoms: C_2  and  C_11
REMARK    2  A    between atoms: N_3  and  C_4
REMARK    3  A    between atoms: C_4  and  C_5
REMARK    4  A    between atoms: C_16  and  C_17
REMARK                            x       y       z     vdW  Elec       q    Type
REMARK                         _______ _______ _______ _____ _____    ______ ____
ROOT
ATOM      1  C   UNL     1      -0.693  13.235  22.104  0.00  0.00    +0.068 C 
ATOM      2  C   UNL     1      -1.023  13.946  23.410  0.00  0.00    +0.024 C 
ATOM      3  N   UNL     1      -2.416  14.262  23.302  0.00  0.00    -0.314 N 
ATOM      4  C   UNL     1      -2.874  14.212  22.003  0.00  0.00    +0.223 C 
ATOM      5  O   UNL     1      -4.012  14.507  21.676  0.00  0.00    -0.275 OA
ATOM      6  C   UNL     1      -1.715  13.825  21.107  0.00  0.00    +0.090 C 
ATOM      7  H   UNL     1       0.337  13.468  21.803  0.00  0.00    +0.042 HD
ATOM      8  H   UNL     1      -0.480  14.893  23.493  0.00  0.00    +0.047 HD
ATOM      9  H   UNL     1      -0.849  13.359  24.317  0.00  0.00    +0.047 HD
ATOM     10  H   UNL     1      -3.022  14.544  24.064  0.00  0.00    +0.149 HD
ATOM     11  H   UNL     1      -1.318  14.786  20.744  0.00  0.00    +0.047 HD
ENDROOT
BRANCH   6  12
ATOM     12  C   UNL     1      -1.999  12.991  19.887  0.00  0.00    +0.054 A 
ATOM     13  C   UNL     1      -3.164  12.254  19.695  0.00  0.00    -0.040 A 
ATOM     14  C   UNL     1      -3.315  11.511  18.525  0.00  0.00    -0.059 A 
ATOM     15  C   UNL     1      -2.305  11.515  17.572  0.00  0.00    -0.044 A 
ATOM     16  C   UNL     1      -1.171  12.258  17.834  0.00  0.00    +0.028 A 
ATOM     17  N   UNL     1      -0.990  12.976  18.967  0.00  0.00    -0.259 NA
ATOM     18  H   UNL     1      -3.963  12.241  20.429  0.00  0.00    +0.064 HD
ATOM     19  H   UNL     1      -4.224  10.938  18.361  0.00  0.00    +0.062 HD
ATOM     20  H   UNL     1      -2.400  10.951  16.651  0.00  0.00    +0.063 HD
ATOM     21  H   UNL     1      -0.348  12.289  17.127  0.00  0.00    +0.083 HD
ENDBRANCH   6  12
BRANCH   1  23
ATOM     22  O   UNL     1      -1.568  11.164  23.019  0.00  0.00    -0.275 OA
ATOM     23  C   UNL     1      -0.773  11.720  22.268  0.00  0.00    +0.219 C 
ATOM     24  N   UNL     1       0.144  11.025  21.514  0.00  0.00    -0.311 N 
ATOM     25  H   UNL     1       0.531  11.505  20.702  0.00  0.00    +0.149 HD
BRANCH  24  26
ATOM     26  C   UNL     1       0.084   9.584  21.444  0.00  0.00    +0.037 C 
ATOM     27  H   UNL     1      -0.970   9.289  21.372  0.00  0.00    +0.051 HD
ATOM     28  H   UNL     1       0.474   9.165  22.378  0.00  0.00    +0.051 HD
BRANCH  26  29
ATOM     29  C   UNL     1       0.870   9.066  20.269  0.00  0.00    -0.030 A 
ATOM     30  C   UNL     1       0.873   9.759  19.050  0.00  0.00    -0.057 A 
ATOM     31  C   UNL     1       1.618   9.288  17.969  0.00  0.00    -0.061 A 
ATOM     32  C   UNL     1       2.369   8.120  18.095  0.00  0.00    -0.062 A 
ATOM     33  C   UNL     1       2.376   7.423  19.302  0.00  0.00    -0.061 A 
ATOM     34  C   UNL     1       1.631   7.894  20.384  0.00  0.00    -0.057 A 
ATOM     35  H   UNL     1       0.295  10.674  18.939  0.00  0.00    +0.062 HD
ATOM     36  H   UNL     1       1.610   9.829  17.026  0.00  0.00    +0.062 HD
ATOM     37  H   UNL     1       2.947   7.751  17.251  0.00  0.00    +0.062 HD
ATOM     38  H   UNL     1       2.961   6.513  19.400  0.00  0.00    +0.062 HD
ATOM     39  H   UNL     1       1.647   7.344  21.323  0.00  0.00    +0.062 HD
ENDBRANCH  26  29
ENDBRANCH  24  26
ENDBRANCH   1  23
TORSDOF 4
ENDMDL
MODEL 19
REMARK VINA RESULT:    -6.000      2.010      5.552
REMARK INTER + INTRA:          -7.647
REMARK INTER:                  -8.175
REMARK INTRA:                   0.528
REMARK UNBOUND:                -0.244
REMARK  Name = 
REMARK  4 active torsions:
REMARK  status: ('A' for Active; 'I' for Inactive)
REMARK    1  A    between atoms: C_2  and  C_11
REMARK    2  A    between atoms: N_3  and  C_4
REMARK    3  A    between atoms: C_4  and  C_5
REMARK    4  A    between atoms: C_16  and  C_17
REMARK                            x       y       z     vdW  Elec       q    Type
REMARK                         _______ _______ _______ _____ _____    ______ ____
ROOT
ATOM      1  C   UNL     1       2.242   6.452  18.518  0.00  0.00    +0.068 C 
ATOM      2  C   UNL     1       2.009   7.571  19.526  0.00  0.00    +0.024 C 
ATOM      3  N   UNL     1       2.179   6.943  20.802  0.00  0.00    -0.314 N 
ATOM      4  C   UNL     1       2.087   5.569  20.737  0.00  0.00    +0.223 C 
ATOM      5  O   UNL     1       2.138   4.841  21.714  0.00  0.00    -0.275 OA
ATOM      6  C   UNL     1       1.831   5.180  19.295  0.00  0.00    +0.090 C 
ATOM      7  H   UNL     1       1.603   6.603  17.638  0.00  0.00    +0.042 HD
ATOM      8  H   UNL     1       0.977   7.936  19.478  0.00  0.00    +0.047 HD
ATOM      9  H   UNL     1       2.689   8.422  19.441  0.00  0.00    +0.047 HD
ATOM     10  H   UNL     1       2.307   7.421  21.686  0.00  0.00    +0.149 HD
ATOM     11  H   UNL     1       0.737   5.081  19.228  0.00  0.00    +0.047 HD
ENDROOT
BRANCH   6  12
ATOM     12  C   UNL     1       2.409   3.886  18.787  0.00  0.00    +0.054 A 
ATOM     13  C   UNL     1       2.130   3.341  17.538  0.00  0.00    -0.040 A 
ATOM     14  C   UNL     1       2.719   2.130  17.176  0.00  0.00    -0.059 A 
ATOM     15  C   UNL     1       3.570   1.487  18.063  0.00  0.00    -0.044 A 
ATOM     16  C   UNL     1       3.792   2.079  19.291  0.00  0.00    +0.028 A 
ATOM     17  N   UNL     1       3.223   3.245  19.676  0.00  0.00    -0.259 NA
ATOM     18  H   UNL     1       1.467   3.832  16.832  0.00  0.00    +0.064 HD
ATOM     19  H   UNL     1       2.514   1.699  16.200  0.00  0.00    +0.062 HD
ATOM     20  H   UNL     1       4.046   0.548  17.805  0.00  0.00    +0.063 HD
ATOM     21  H   UNL     1       4.443   1.614  20.026  0.00  0.00    +0.083 HD
ENDBRANCH   6  12
BRANCH   1  23
ATOM     22  O   UNL     1       4.082   7.154  17.101  0.00  0.00    -0.275 OA
ATOM     23  C   UNL     1       3.684   6.451  18.024  0.00  0.00    +0.219 C 
ATOM     24  N   UNL     1       4.505   5.570  18.691  0.00  0.00    -0.311 N 
ATOM     25  H   UNL     1       4.206   5.275  19.619  0.00  0.00    +0.149 HD
BRANCH  24  26
ATOM     26  C   UNL     1       5.928   5.572  18.441  0.00  0.00    +0.037 C 
ATOM     27  H   UNL     1       6.404   4.911  19.174  0.00  0.00    +0.051 HD
ATOM     28  H   UNL     1       6.319   6.581  18.614  0.00  0.00    +0.051 HD
BRANCH  26  29
ATOM     29  C   UNL     1       6.231   5.126  17.035  0.00  0.00    -0.030 A 
ATOM     30  C   UNL     1       5.587   4.009  16.486  0.00  0.00    -0.057 A 
ATOM     31  C   UNL     1       5.855   3.609  15.176  0.00  0.00    -0.061 A 
ATOM     32  C   UNL     1       6.768   4.323  14.402  0.00  0.00    -0.062 A 
ATOM     33  C   UNL     1       7.412   5.438  14.935  0.00  0.00    -0.061 A 
ATOM     34  C   UNL     1       7.145   5.838  16.245  0.00  0.00    -0.057 A 
ATOM     35  H   UNL     1       4.870   3.444  17.077  0.00  0.00    +0.062 HD
ATOM     36  H   UNL     1       5.355   2.738  14.761  0.00  0.00    +0.062 HD
ATOM     37  H   UNL     1       6.979   4.009  13.383  0.00  0.00    +0.062 HD
ATOM     38  H   UNL     1       8.123   5.994  14.332  0.00  0.00    +0.062 HD
ATOM     39  H   UNL     1       7.651   6.712  16.651  0.00  0.00    +0.062 HD
ENDBRANCH  26  29
ENDBRANCH  24  26
ENDBRANCH   1  23
TORSDOF 4
ENDMDL
MODEL 20
REMARK VINA RESULT:    -5.983      6.174      8.789
REMARK INTER + INTRA:          -7.626
REMARK INTER:                  -7.075
REMARK INTRA:                  -0.551
REMARK UNBOUND:                -0.244
REMARK  Name = 
REMARK  4 active torsions:
REMARK  status: ('A' for Active; 'I' for Inactive)
REMARK    1  A    between atoms: C_2  and  C_11
REMARK    2  A    between atoms: N_3  and  C_4
REMARK    3  A    between atoms: C_4  and  C_5
REMARK    4  A    between atoms: C_16  and  C_17
REMARK                            x       y       z     vdW  Elec       q    Type
REMARK                         _______ _______ _______ _____ _____    ______ ____
ROOT
ATOM      1  C   UNL     1      -0.042  12.499  20.517  0.00  0.00    +0.068 C 
ATOM      2  C   UNL     1      -0.030  13.542  21.628  0.00  0.00    +0.024 C 
ATOM      3  N   UNL     1      -1.402  13.923  21.776  0.00  0.00    -0.314 N 
ATOM      4  C   UNL     1      -2.172  13.577  20.685  0.00  0.00    +0.223 C 
ATOM      5  O   UNL     1      -3.352  13.863  20.574  0.00  0.00    -0.275 OA
ATOM      6  C   UNL     1      -1.277  12.890  19.674  0.00  0.00    +0.090 C 
ATOM      7  H   UNL     1       0.881  12.572  19.927  0.00  0.00    +0.042 HD
ATOM      8  H   UNL     1       0.525  14.436  21.324  0.00  0.00    +0.047 HD
ATOM      9  H   UNL     1       0.361  13.194  22.588  0.00  0.00    +0.047 HD
ATOM     10  H   UNL     1      -1.796  14.433  22.558  0.00  0.00    +0.149 HD
ATOM     11  H   UNL     1      -0.976  13.695  18.985  0.00  0.00    +0.047 HD
ENDROOT
BRANCH   6  12
ATOM     12  C   UNL     1      -1.864  11.796  18.823  0.00  0.00    +0.054 A 
ATOM     13  C   UNL     1      -3.227  11.548  18.698  0.00  0.00    -0.040 A 
ATOM     14  C   UNL     1      -3.656  10.500  17.884  0.00  0.00    -0.059 A 
ATOM     15  C   UNL     1      -2.722   9.722  17.214  0.00  0.00    -0.044 A 
ATOM     16  C   UNL     1      -1.386  10.017  17.395  0.00  0.00    +0.028 A 
ATOM     17  N   UNL     1      -0.939  11.017  18.189  0.00  0.00    -0.259 NA
ATOM     18  H   UNL     1      -3.970  12.147  19.214  0.00  0.00    +0.064 HD
ATOM     19  H   UNL     1      -4.719  10.302  17.772  0.00  0.00    +0.062 HD
ATOM     20  H   UNL     1      -3.030   8.906  16.570  0.00  0.00    +0.063 HD
ATOM     21  H   UNL     1      -0.614   9.435  16.901  0.00  0.00    +0.083 HD
ENDBRANCH   6  12
BRANCH   1  23
ATOM     22  O   UNL     1      -0.879  10.741  21.965  0.00  0.00    -0.275 OA
ATOM     23  C   UNL     1      -0.092  11.087  21.091  0.00  0.00    +0.219 C 
ATOM     24  N   UNL     1       0.844  10.231  20.556  0.00  0.00    -0.311 N 
ATOM     25  H   UNL     1       1.226  10.478  19.644  0.00  0.00    +0.149 HD
BRANCH  24  26
ATOM     26  C   UNL     1       0.815   8.826  20.885  0.00  0.00    +0.037 C 
ATOM     27  H   UNL     1      -0.229   8.494  20.872  0.00  0.00    +0.051 HD
ATOM     28  H   UNL     1       1.185   8.691  21.909  0.00  0.00    +0.051 HD
BRANCH  26  29
ATOM     29  C   UNL     1       1.648   8.027  19.918  0.00  0.00    -0.030 A 
ATOM     30  C   UNL     1       2.053   6.722  20.234  0.00  0.00    -0.057 A 
ATOM     31  C   UNL     1       2.809   5.976  19.328  0.00  0.00    -0.061 A 
ATOM     32  C   UNL     1       3.165   6.526  18.098  0.00  0.00    -0.062 A 
ATOM     33  C   UNL     1       2.766   7.820  17.771  0.00  0.00    -0.061 A 
ATOM     34  C   UNL     1       2.011   8.567  18.676  0.00  0.00    -0.057 A 
ATOM     35  H   UNL     1       1.779   6.279  21.189  0.00  0.00    +0.062 HD
ATOM     36  H   UNL     1       3.123   4.968  19.584  0.00  0.00    +0.062 HD
ATOM     37  H   UNL     1       3.757   5.945  17.394  0.00  0.00    +0.062 HD
ATOM     38  H   UNL     1       3.044   8.249  16.813  0.00  0.00    +0.062 HD
ATOM     39  H   UNL     1       1.702   9.576  18.410  0.00  0.00    +0.062 HD
ENDBRANCH  26  29
ENDBRANCH  24  26
ENDBRANCH   1  23
TORSDOF 4
ENDMDL
MODEL 21
REMARK VINA RESULT:    -5.955      6.221      8.901
REMARK INTER + INTRA:          -7.591
REMARK INTER:                  -7.043
REMARK INTRA:                  -0.549
REMARK UNBOUND:                -0.244
REMARK  Name = 
REMARK  4 active torsions:
REMARK  status: ('A' for Active; 'I' for Inactive)
REMARK    1  A    between atoms: C_2  and  C_11
REMARK    2  A    between atoms: N_3  and  C_4
REMARK    3  A    between atoms: C_4  and  C_5
REMARK    4  A    between atoms: C_16  and  C_17
REMARK                            x       y       z     vdW  Elec       q    Type
REMARK                         _______ _______ _______ _____ _____    ______ ____
ROOT
ATOM      1  C   UNL     1      -0.183  12.551  20.546  0.00  0.00    +0.068 C 
ATOM      2  C   UNL     1      -0.235  13.587  21.661  0.00  0.00    +0.024 C 
ATOM      3  N   UNL     1      -1.624  13.918  21.777  0.00  0.00    -0.314 N 
ATOM      4  C   UNL     1      -2.353  13.551  20.666  0.00  0.00    +0.223 C 
ATOM      5  O   UNL     1      -3.540  13.794  20.526  0.00  0.00    -0.275 OA
ATOM      6  C   UNL     1      -1.409  12.902  19.674  0.00  0.00    +0.090 C 
ATOM      7  H   UNL     1       0.752  12.660  19.980  0.00  0.00    +0.042 HD
ATOM      8  H   UNL     1       0.294  14.503  21.375  0.00  0.00    +0.047 HD
ATOM      9  H   UNL     1       0.144  13.249  22.630  0.00  0.00    +0.047 HD
ATOM     10  H   UNL     1      -2.055  14.410  22.551  0.00  0.00    +0.149 HD
ATOM     11  H   UNL     1      -1.120  13.720  18.996  0.00  0.00    +0.047 HD
ENDROOT
BRANCH   6  12
ATOM     12  C   UNL     1      -1.935  11.792  18.803  0.00  0.00    +0.054 A 
ATOM     13  C   UNL     1      -3.286  11.515  18.619  0.00  0.00    -0.040 A 
ATOM     14  C   UNL     1      -3.657  10.455  17.793  0.00  0.00    -0.059 A 
ATOM     15  C   UNL     1      -2.678   9.693  17.169  0.00  0.00    -0.044 A 
ATOM     16  C   UNL     1      -1.357  10.017  17.408  0.00  0.00    +0.028 A 
ATOM     17  N   UNL     1      -0.967  11.030  18.216  0.00  0.00    -0.259 NA
ATOM     18  H   UNL     1      -4.064  12.101  19.098  0.00  0.00    +0.064 HD
ATOM     19  H   UNL     1      -4.709  10.234  17.634  0.00  0.00    +0.062 HD
ATOM     20  H   UNL     1      -2.940   8.867  16.517  0.00  0.00    +0.063 HD
ATOM     21  H   UNL     1      -0.552   9.448  16.952  0.00  0.00    +0.083 HD
ENDBRANCH   6  12
BRANCH   1  23
ATOM     22  O   UNL     1      -1.015  10.745  21.937  0.00  0.00    -0.275 OA
ATOM     23  C   UNL     1      -0.195  11.135  21.112  0.00  0.00    +0.219 C 
ATOM     24  N   UNL     1       0.813  10.330  20.632  0.00  0.00    -0.311 N 
ATOM     25  H   UNL     1       1.235  10.601  19.745  0.00  0.00    +0.149 HD
BRANCH  24  26
ATOM     26  C   UNL     1       0.834   8.923  20.955  0.00  0.00    +0.037 C 
ATOM     27  H   UNL     1      -0.202   8.572  21.022  0.00  0.00    +0.051 HD
ATOM     28  H   UNL     1       1.285   8.791  21.946  0.00  0.00    +0.051 HD
BRANCH  26  29
ATOM     29  C   UNL     1       1.603   8.143  19.922  0.00  0.00    -0.030 A 
ATOM     30  C   UNL     1       1.948   8.728  18.696  0.00  0.00    -0.057 A 
ATOM     31  C   UNL     1       2.677   8.010  17.747  0.00  0.00    -0.061 A 
ATOM     32  C   UNL     1       3.071   6.700  18.016  0.00  0.00    -0.062 A 
ATOM     33  C   UNL     1       2.738   6.108  19.232  0.00  0.00    -0.061 A 
ATOM     34  C   UNL     1       2.008   6.825  20.181  0.00  0.00    -0.057 A 
ATOM     35  H   UNL     1       1.650   9.751  18.474  0.00  0.00    +0.062 HD
ATOM     36  H   UNL     1       2.934   8.470  16.797  0.00  0.00    +0.062 HD
ATOM     37  H   UNL     1       3.637   6.140  17.275  0.00  0.00    +0.062 HD
ATOM     38  H   UNL     1       3.045   5.087  19.441  0.00  0.00    +0.062 HD
ATOM     39  H   UNL     1       1.755   6.355  21.129  0.00  0.00    +0.062 HD
ENDBRANCH  26  29
ENDBRANCH  24  26
ENDBRANCH   1  23
TORSDOF 4
ENDMDL
MODEL 22
REMARK VINA RESULT:    -5.913      5.338      7.950
REMARK INTER + INTRA:          -7.540
REMARK INTER:                  -6.764
REMARK INTRA:                  -0.775
REMARK UNBOUND:                -0.244
REMARK  Name = 
REMARK  4 active torsions:
REMARK  status: ('A' for Active; 'I' for Inactive)
REMARK    1  A    between atoms: C_2  and  C_11
REMARK    2  A    between atoms: N_3  and  C_4
REMARK    3  A    between atoms: C_4  and  C_5
REMARK    4  A    between atoms: C_16  and  C_17
REMARK                            x       y       z     vdW  Elec       q    Type
REMARK                         _______ _______ _______ _____ _____    ______ ____
ROOT
ATOM      1  C   UNL     1       0.690  10.191  22.108  0.00  0.00    +0.068 C 
ATOM      2  C   UNL     1       0.101   9.548  23.358  0.00  0.00    +0.024 C 
ATOM      3  N   UNL     1      -1.227  10.076  23.440  0.00  0.00    -0.314 N 
ATOM      4  C   UNL     1      -1.395  11.216  22.682  0.00  0.00    +0.223 C 
ATOM      5  O   UNL     1      -2.428  11.864  22.657  0.00  0.00    -0.275 OA
ATOM      6  C   UNL     1      -0.079  11.527  21.998  0.00  0.00    +0.090 C 
ATOM      7  H   UNL     1       1.765  10.362  22.247  0.00  0.00    +0.042 HD
ATOM      8  H   UNL     1       0.637   9.871  24.257  0.00  0.00    +0.047 HD
ATOM      9  H   UNL     1       0.062   8.455  23.344  0.00  0.00    +0.047 HD
ATOM     10  H   UNL     1      -1.976   9.712  24.018  0.00  0.00    +0.149 HD
ATOM     11  H   UNL     1       0.409  12.255  22.664  0.00  0.00    +0.047 HD
ENDROOT
BRANCH   6  12
ATOM     12  C   UNL     1      -0.112  12.155  20.630  0.00  0.00    +0.054 A 
ATOM     13  C   UNL     1      -1.212  12.117  19.778  0.00  0.00    -0.040 A 
ATOM     14  C   UNL     1      -1.125  12.729  18.528  0.00  0.00    -0.059 A 
ATOM     15  C   UNL     1       0.051  13.364  18.153  0.00  0.00    -0.044 A 
ATOM     16  C   UNL     1       1.106  13.351  19.043  0.00  0.00    +0.028 A 
ATOM     17  N   UNL     1       1.056  12.752  20.256  0.00  0.00    -0.259 NA
ATOM     18  H   UNL     1      -2.139  11.627  20.057  0.00  0.00    +0.064 HD
ATOM     19  H   UNL     1      -1.980  12.713  17.857  0.00  0.00    +0.062 HD
ATOM     20  H   UNL     1       0.142  13.852  17.189  0.00  0.00    +0.063 HD
ATOM     21  H   UNL     1       2.051  13.824  18.796  0.00  0.00    +0.083 HD
ENDBRANCH   6  12
BRANCH   1  23
ATOM     22  O   UNL     1      -0.390   8.487  20.758  0.00  0.00    -0.275 OA
ATOM     23  C   UNL     1       0.540   9.275  20.897  0.00  0.00    +0.219 C 
ATOM     24  N   UNL     1       1.556   9.392  19.977  0.00  0.00    -0.311 N 
ATOM     25  H   UNL     1       2.093  10.259  19.991  0.00  0.00    +0.149 HD
BRANCH  24  26
ATOM     26  C   UNL     1       1.469   8.707  18.708  0.00  0.00    +0.037 C 
ATOM     27  H   UNL     1       1.623   9.444  17.911  0.00  0.00    +0.051 HD
ATOM     28  H   UNL     1       0.456   8.307  18.587  0.00  0.00    +0.051 HD
BRANCH  26  29
ATOM     29  C   UNL     1       2.484   7.599  18.622  0.00  0.00    -0.030 A 
ATOM     30  C   UNL     1       2.510   6.579  19.583  0.00  0.00    -0.057 A 
ATOM     31  C   UNL     1       3.439   5.542  19.491  0.00  0.00    -0.061 A 
ATOM     32  C   UNL     1       4.349   5.512  18.435  0.00  0.00    -0.062 A 
ATOM     33  C   UNL     1       4.331   6.518  17.471  0.00  0.00    -0.061 A 
ATOM     34  C   UNL     1       3.403   7.557  17.563  0.00  0.00    -0.057 A 
ATOM     35  H   UNL     1       1.804   6.587  20.410  0.00  0.00    +0.062 HD
ATOM     36  H   UNL     1       3.456   4.758  20.244  0.00  0.00    +0.062 HD
ATOM     37  H   UNL     1       5.075   4.705  18.365  0.00  0.00    +0.062 HD
ATOM     38  H   UNL     1       5.040   6.495  16.649  0.00  0.00    +0.062 HD
ATOM     39  H   UNL     1       3.395   8.336  16.804  0.00  0.00    +0.062 HD
ENDBRANCH  26  29
ENDBRANCH  24  26
ENDBRANCH   1  23
TORSDOF 4
ENDMDL
MODEL 23
REMARK VINA RESULT:    -5.802      2.269      3.181
REMARK INTER + INTRA:          -7.402
REMARK INTER:                  -7.066
REMARK INTRA:                  -0.336
REMARK UNBOUND:                -0.244
REMARK  Name = 
REMARK  4 active torsions:
REMARK  status: ('A' for Active; 'I' for Inactive)
REMARK    1  A    between atoms: C_2  and  C_11
REMARK    2  A    between atoms: N_3  and  C_4
REMARK    3  A    between atoms: C_4  and  C_5
REMARK    4  A    between atoms: C_16  and  C_17
REMARK                            x       y       z     vdW  Elec       q    Type
REMARK                         _______ _______ _______ _____ _____    ______ ____
ROOT
ATOM      1  C   UNL     1       5.068   4.737  15.027  0.00  0.00    +0.068 C 
ATOM      2  C   UNL     1       5.058   4.106  13.640  0.00  0.00    +0.024 C 
ATOM      3  N   UNL     1       6.439   4.040  13.268  0.00  0.00    -0.314 N 
ATOM      4  C   UNL     1       7.235   4.876  14.023  0.00  0.00    +0.223 C 
ATOM      5  O   UNL     1       8.431   5.024  13.832  0.00  0.00    -0.275 OA
ATOM      6  C   UNL     1       6.351   5.598  15.019  0.00  0.00    +0.090 C 
ATOM      7  H   UNL     1       4.173   5.359  15.160  0.00  0.00    +0.042 HD
ATOM      8  H   UNL     1       4.556   4.755  12.915  0.00  0.00    +0.047 HD
ATOM      9  H   UNL     1       4.614   3.108  13.586  0.00  0.00    +0.047 HD
ATOM     10  H   UNL     1       6.824   3.490  12.509  0.00  0.00    +0.149 HD
ATOM     11  H   UNL     1       6.114   6.555  14.530  0.00  0.00    +0.047 HD
ENDROOT
BRANCH   6  12
ATOM     12  C   UNL     1       6.921   5.939  16.370  0.00  0.00    +0.054 A 
ATOM     13  C   UNL     1       7.049   7.234  16.861  0.00  0.00    -0.040 A 
ATOM     14  C   UNL     1       7.599   7.431  18.127  0.00  0.00    -0.059 A 
ATOM     15  C   UNL     1       8.011   6.337  18.876  0.00  0.00    -0.044 A 
ATOM     16  C   UNL     1       7.867   5.081  18.320  0.00  0.00    +0.028 A 
ATOM     17  N   UNL     1       7.351   4.861  17.089  0.00  0.00    -0.259 NA
ATOM     18  H   UNL     1       6.730   8.100  16.290  0.00  0.00    +0.064 HD
ATOM     19  H   UNL     1       7.697   8.438  18.525  0.00  0.00    +0.062 HD
ATOM     20  H   UNL     1       8.437   6.462  19.865  0.00  0.00    +0.063 HD
ATOM     21  H   UNL     1       8.181   4.193  18.859  0.00  0.00    +0.083 HD
ENDBRANCH   6  12
BRANCH   1  23
ATOM     22  O   UNL     1       5.500   2.544  15.974  0.00  0.00    -0.275 OA
ATOM     23  C   UNL     1       5.031   3.669  16.116  0.00  0.00    +0.219 C 
ATOM     24  N   UNL     1       4.403   4.069  17.273  0.00  0.00    -0.311 N 
ATOM     25  H   UNL     1       4.336   5.074  17.437  0.00  0.00    +0.149 HD
BRANCH  24  26
ATOM     26  C   UNL     1       4.430   3.225  18.444  0.00  0.00    +0.037 C 
ATOM     27  H   UNL     1       5.229   3.581  19.104  0.00  0.00    +0.051 HD
ATOM     28  H   UNL     1       4.692   2.204  18.141  0.00  0.00    +0.051 HD
BRANCH  26  29
ATOM     29  C   UNL     1       3.101   3.237  19.150  0.00  0.00    -0.030 A 
ATOM     30  C   UNL     1       2.859   4.133  20.201  0.00  0.00    -0.057 A 
ATOM     31  C   UNL     1       1.619   4.155  20.842  0.00  0.00    -0.061 A 
ATOM     32  C   UNL     1       0.609   3.284  20.438  0.00  0.00    -0.062 A 
ATOM     33  C   UNL     1       0.836   2.390  19.393  0.00  0.00    -0.061 A 
ATOM     34  C   UNL     1       2.076   2.367  18.752  0.00  0.00    -0.057 A 
ATOM     35  H   UNL     1       3.636   4.821  20.524  0.00  0.00    +0.062 HD
ATOM     36  H   UNL     1       1.443   4.850  21.659  0.00  0.00    +0.062 HD
ATOM     37  H   UNL     1      -0.355   3.299  20.940  0.00  0.00    +0.062 HD
ATOM     38  H   UNL     1       0.049   1.711  19.079  0.00  0.00    +0.062 HD
ATOM     39  H   UNL     1       2.242   1.667  17.935  0.00  0.00    +0.062 HD
ENDBRANCH  26  29
ENDBRANCH  24  26
ENDBRANCH   1  23
TORSDOF 4
ENDMDL
MODEL 24
REMARK VINA RESULT:    -5.794      5.158      7.531
REMARK INTER + INTRA:          -7.393
REMARK INTER:                  -7.370
REMARK INTRA:                  -0.022
REMARK UNBOUND:                -0.244
REMARK  Name = 
REMARK  4 active torsions:
REMARK  status: ('A' for Active; 'I' for Inactive)
REMARK    1  A    between atoms: C_2  and  C_11
REMARK    2  A    between atoms: N_3  and  C_4
REMARK    3  A    between atoms: C_4  and  C_5
REMARK    4  A    between atoms: C_16  and  C_17
REMARK                            x       y       z     vdW  Elec       q    Type
REMARK                         _______ _______ _______ _____ _____    ______ ____
ROOT
ATOM      1  C   UNL     1      -0.946  10.301  18.149  0.00  0.00    +0.068 C 
ATOM      2  C   UNL     1      -1.403  11.322  17.115  0.00  0.00    +0.024 C 
ATOM      3  N   UNL     1      -1.646  12.513  17.871  0.00  0.00    -0.314 N 
ATOM      4  C   UNL     1      -1.787  12.268  19.221  0.00  0.00    +0.223 C 
ATOM      5  O   UNL     1      -2.062  13.130  20.039  0.00  0.00    -0.275 OA
ATOM      6  C   UNL     1      -1.631  10.779  19.449  0.00  0.00    +0.090 C 
ATOM      7  H   UNL     1      -1.292   9.299  17.863  0.00  0.00    +0.042 HD
ATOM      8  H   UNL     1      -2.355  11.025  16.661  0.00  0.00    +0.047 HD
ATOM      9  H   UNL     1      -0.683  11.532  16.319  0.00  0.00    +0.047 HD
ATOM     10  H   UNL     1      -1.755  13.446  17.491  0.00  0.00    +0.149 HD
ATOM     11  H   UNL     1      -2.663  10.393  19.450  0.00  0.00    +0.047 HD
ENDROOT
BRANCH   6  12
ATOM     12  C   UNL     1      -1.000  10.312  20.734  0.00  0.00    +0.054 A 
ATOM     13  C   UNL     1      -0.328   9.102  20.881  0.00  0.00    -0.040 A 
ATOM     14  C   UNL     1       0.212   8.770  22.123  0.00  0.00    -0.059 A 
ATOM     15  C   UNL     1       0.073   9.647  23.190  0.00  0.00    -0.044 A 
ATOM     16  C   UNL     1      -0.617  10.823  22.975  0.00  0.00    +0.028 A 
ATOM     17  N   UNL     1      -1.166  11.165  21.786  0.00  0.00    -0.259 NA
ATOM     18  H   UNL     1      -0.209   8.406  20.057  0.00  0.00    +0.064 HD
ATOM     19  H   UNL     1       0.746   7.832  22.248  0.00  0.00    +0.062 HD
ATOM     20  H   UNL     1       0.489   9.416  24.165  0.00  0.00    +0.063 HD
ATOM     21  H   UNL     1      -0.763  11.540  23.778  0.00  0.00    +0.083 HD
ENDBRANCH   6  12
BRANCH   1  23
ATOM     22  O   UNL     1       1.272  11.182  18.590  0.00  0.00    -0.275 OA
ATOM     23  C   UNL     1       0.576  10.240  18.224  0.00  0.00    +0.219 C 
ATOM     24  N   UNL     1       1.110   9.037  17.822  0.00  0.00    -0.311 N 
ATOM     25  H   UNL     1       0.490   8.227  17.847  0.00  0.00    +0.149 HD
BRANCH  24  26
ATOM     26  C   UNL     1       2.520   8.776  17.988  0.00  0.00    +0.037 C 
ATOM     27  H   UNL     1       2.912   9.477  18.733  0.00  0.00    +0.051 HD
ATOM     28  H   UNL     1       3.036   8.987  17.043  0.00  0.00    +0.051 HD
BRANCH  26  29
ATOM     29  C   UNL     1       2.761   7.350  18.407  0.00  0.00    -0.030 A 
ATOM     30  C   UNL     1       3.498   6.481  17.591  0.00  0.00    -0.057 A 
ATOM     31  C   UNL     1       3.736   5.165  17.990  0.00  0.00    -0.061 A 
ATOM     32  C   UNL     1       3.243   4.706  19.211  0.00  0.00    -0.062 A 
ATOM     33  C   UNL     1       2.512   5.562  20.033  0.00  0.00    -0.061 A 
ATOM     34  C   UNL     1       2.272   6.878  19.634  0.00  0.00    -0.057 A 
ATOM     35  H   UNL     1       3.892   6.826  16.638  0.00  0.00    +0.062 HD
ATOM     36  H   UNL     1       4.304   4.497  17.348  0.00  0.00    +0.062 HD
ATOM     37  H   UNL     1       3.426   3.680  19.520  0.00  0.00    +0.062 HD
ATOM     38  H   UNL     1       2.127   5.204  20.983  0.00  0.00    +0.062 HD
ATOM     39  H   UNL     1       1.703   7.538  20.284  0.00  0.00    +0.062 HD
ENDBRANCH  26  29
ENDBRANCH  24  26
ENDBRANCH   1  23
TORSDOF 4
ENDMDL
MODEL 25
REMARK VINA RESULT:    -5.777      8.072     10.812
REMARK INTER + INTRA:          -7.371
REMARK INTER:                  -5.766
REMARK INTRA:                  -1.605
REMARK UNBOUND:                -0.244
REMARK  Name = 
REMARK  4 active torsions:
REMARK  status: ('A' for Active; 'I' for Inactive)
REMARK    1  A    between atoms: C_2  and  C_11
REMARK    2  A    between atoms: N_3  and  C_4
REMARK    3  A    between atoms: C_4  and  C_5
REMARK    4  A    between atoms: C_16  and  C_17
REMARK                            x       y       z     vdW  Elec       q    Type
REMARK                         _______ _______ _______ _____ _____    ______ ____
ROOT
ATOM      1  C   UNL     1      -2.242  12.049  17.856  0.00  0.00    +0.068 C 
ATOM      2  C   UNL     1      -2.238  11.116  16.651  0.00  0.00    +0.024 C 
ATOM      3  N   UNL     1      -1.410  10.018  17.052  0.00  0.00    -0.314 N 
ATOM      4  C   UNL     1      -0.610  10.321  18.133  0.00  0.00    +0.223 C 
ATOM      5  O   UNL     1       0.216   9.554  18.598  0.00  0.00    -0.275 OA
ATOM      6  C   UNL     1      -0.889  11.753  18.541  0.00  0.00    +0.090 C 
ATOM      7  H   UNL     1      -2.298  13.093  17.520  0.00  0.00    +0.042 HD
ATOM      8  H   UNL     1      -1.756  11.589  15.788  0.00  0.00    +0.047 HD
ATOM      9  H   UNL     1      -3.220  10.745  16.347  0.00  0.00    +0.047 HD
ATOM     10  H   UNL     1      -1.354   9.118  16.591  0.00  0.00    +0.149 HD
ATOM     11  H   UNL     1      -0.113  12.340  18.026  0.00  0.00    +0.047 HD
ENDROOT
BRANCH   6  12
ATOM     12  C   UNL     1      -0.799  12.114  20.000  0.00  0.00    +0.054 A 
ATOM     13  C   UNL     1      -0.910  11.198  21.042  0.00  0.00    -0.040 A 
ATOM     14  C   UNL     1      -0.817  11.649  22.358  0.00  0.00    -0.059 A 
ATOM     15  C   UNL     1      -0.618  12.999  22.610  0.00  0.00    -0.044 A 
ATOM     16  C   UNL     1      -0.531  13.853  21.529  0.00  0.00    +0.028 A 
ATOM     17  N   UNL     1      -0.632  13.447  20.242  0.00  0.00    -0.259 NA
ATOM     18  H   UNL     1      -1.065  10.139  20.862  0.00  0.00    +0.064 HD
ATOM     19  H   UNL     1      -0.894  10.941  23.180  0.00  0.00    +0.062 HD
ATOM     20  H   UNL     1      -0.537  13.375  23.624  0.00  0.00    +0.063 HD
ATOM     21  H   UNL     1      -0.384  14.920  21.671  0.00  0.00    +0.083 HD
ENDBRANCH   6  12
BRANCH   1  23
ATOM     22  O   UNL     1      -4.158  10.794  18.659  0.00  0.00    -0.275 OA
ATOM     23  C   UNL     1      -3.462  11.801  18.737  0.00  0.00    +0.219 C 
ATOM     24  N   UNL     1      -3.734  12.823  19.618  0.00  0.00    -0.311 N 
ATOM     25  H   UNL     1      -2.963  13.448  19.851  0.00  0.00    +0.149 HD
BRANCH  24  26
ATOM     26  C   UNL     1      -4.760  12.663  20.622  0.00  0.00    +0.037 C 
ATOM     27  H   UNL     1      -4.947  11.590  20.751  0.00  0.00    +0.051 HD
ATOM     28  H   UNL     1      -5.691  13.111  20.255  0.00  0.00    +0.051 HD
BRANCH  26  29
ATOM     29  C   UNL     1      -4.349  13.300  21.922  0.00  0.00    -0.030 A 
ATOM     30  C   UNL     1      -4.015  14.660  21.976  0.00  0.00    -0.057 A 
ATOM     31  C   UNL     1      -3.652  15.253  23.186  0.00  0.00    -0.061 A 
ATOM     32  C   UNL     1      -3.623  14.494  24.355  0.00  0.00    -0.062 A 
ATOM     33  C   UNL     1      -3.956  13.141  24.315  0.00  0.00    -0.061 A 
ATOM     34  C   UNL     1      -4.318  12.546  23.105  0.00  0.00    -0.057 A 
ATOM     35  H   UNL     1      -4.037  15.266  21.073  0.00  0.00    +0.062 HD
ATOM     36  H   UNL     1      -3.389  16.307  23.217  0.00  0.00    +0.062 HD
ATOM     37  H   UNL     1      -3.338  14.955  25.296  0.00  0.00    +0.062 HD
ATOM     38  H   UNL     1      -3.933  12.549  25.225  0.00  0.00    +0.062 HD
ATOM     39  H   UNL     1      -4.580  11.490  23.085  0.00  0.00    +0.062 HD
ENDBRANCH  26  29
ENDBRANCH  24  26
ENDBRANCH   1  23
TORSDOF 4
ENDMDL
MODEL 26
REMARK VINA RESULT:    -5.767      6.944     10.008
REMARK INTER + INTRA:          -7.359
REMARK INTER:                  -7.020
REMARK INTRA:                  -0.339
REMARK UNBOUND:                -0.244
REMARK  Name = 
REMARK  4 active torsions:
REMARK  status: ('A' for Active; 'I' for Inactive)
REMARK    1  A    between atoms: C_2  and  C_11
REMARK    2  A    between atoms: N_3  and  C_4
REMARK    3  A    between atoms: C_4  and  C_5
REMARK    4  A    between atoms: C_16  and  C_17
REMARK                            x       y       z     vdW  Elec       q    Type
REMARK                         _______ _______ _______ _____ _____    ______ ____
ROOT
ATOM      1  C   UNL     1       0.571  12.374  18.816  0.00  0.00    +0.068 C 
ATOM      2  C   UNL     1      -0.371  13.362  18.140  0.00  0.00    +0.024 C 
ATOM      3  N   UNL     1      -1.660  12.744  18.225  0.00  0.00    -0.314 N 
ATOM      4  C   UNL     1      -1.586  11.392  18.483  0.00  0.00    +0.223 C 
ATOM      5  O   UNL     1      -2.560  10.660  18.533  0.00  0.00    -0.275 OA
ATOM      6  C   UNL     1      -0.124  11.011  18.594  0.00  0.00    +0.090 C 
ATOM      7  H   UNL     1       1.554  12.402  18.329  0.00  0.00    +0.042 HD
ATOM      8  H   UNL     1      -0.132  13.471  17.077  0.00  0.00    +0.047 HD
ATOM      9  H   UNL     1      -0.408  14.355  18.597  0.00  0.00    +0.047 HD
ATOM     10  H   UNL     1      -2.550  13.204  18.072  0.00  0.00    +0.149 HD
ATOM     11  H   UNL     1       0.143  10.654  17.587  0.00  0.00    +0.047 HD
ENDROOT
BRANCH   6  12
ATOM     12  C   UNL     1       0.262   9.914  19.551  0.00  0.00    +0.054 A 
ATOM     13  C   UNL     1      -0.384   9.667  20.759  0.00  0.00    -0.040 A 
ATOM     14  C   UNL     1       0.065   8.625  21.570  0.00  0.00    -0.059 A 
ATOM     15  C   UNL     1       1.146   7.855  21.164  0.00  0.00    -0.044 A 
ATOM     16  C   UNL     1       1.746   8.165  19.960  0.00  0.00    +0.028 A 
ATOM     17  N   UNL     1       1.343   9.179  19.160  0.00  0.00    -0.259 NA
ATOM     18  H   UNL     1      -1.231  10.259  21.090  0.00  0.00    +0.064 HD
ATOM     19  H   UNL     1      -0.436   8.417  22.512  0.00  0.00    +0.062 HD
ATOM     20  H   UNL     1       1.511   7.035  21.773  0.00  0.00    +0.063 HD
ATOM     21  H   UNL     1       2.601   7.599  19.600  0.00  0.00    +0.083 HD
ENDBRANCH   6  12
BRANCH   1  23
ATOM     22  O   UNL     1       1.847  12.545  20.873  0.00  0.00    -0.275 OA
ATOM     23  C   UNL     1       0.791  12.739  20.280  0.00  0.00    +0.219 C 
ATOM     24  N   UNL     1      -0.312  13.288  20.893  0.00  0.00    -0.311 N 
ATOM     25  H   UNL     1      -1.015  13.708  20.285  0.00  0.00    +0.149 HD
BRANCH  24  26
ATOM     26  C   UNL     1      -0.207  13.828  22.228  0.00  0.00    +0.037 C 
ATOM     27  H   UNL     1      -0.001  14.901  22.148  0.00  0.00    +0.051 HD
ATOM     28  H   UNL     1       0.652  13.371  22.732  0.00  0.00    +0.051 HD
BRANCH  26  29
ATOM     29  C   UNL     1      -1.468  13.578  23.013  0.00  0.00    -0.030 A 
ATOM     30  C   UNL     1      -2.102  12.329  22.965  0.00  0.00    -0.057 A 
ATOM     31  C   UNL     1      -3.260  12.093  23.708  0.00  0.00    -0.061 A 
ATOM     32  C   UNL     1      -3.793  13.102  24.508  0.00  0.00    -0.062 A 
ATOM     33  C   UNL     1      -3.170  14.347  24.567  0.00  0.00    -0.061 A 
ATOM     34  C   UNL     1      -2.012  14.584  23.823  0.00  0.00    -0.057 A 
ATOM     35  H   UNL     1      -1.695  11.530  22.348  0.00  0.00    +0.062 HD
ATOM     36  H   UNL     1      -3.747  11.123  23.661  0.00  0.00    +0.062 HD
ATOM     37  H   UNL     1      -4.696  12.919  25.085  0.00  0.00    +0.062 HD
ATOM     38  H   UNL     1      -3.586  15.134  25.190  0.00  0.00    +0.062 HD
ATOM     39  H   UNL     1      -1.532  15.559  23.879  0.00  0.00    +0.062 HD
ENDBRANCH  26  29
ENDBRANCH  24  26
ENDBRANCH   1  23
TORSDOF 4
ENDMDL
MODEL 27
REMARK VINA RESULT:    -5.762      8.922     11.337
REMARK INTER + INTRA:          -7.353
REMARK INTER:                  -6.222
REMARK INTRA:                  -1.131
REMARK UNBOUND:                -0.244
REMARK  Name = 
REMARK  4 active torsions:
REMARK  status: ('A' for Active; 'I' for Inactive)
REMARK    1  A    between atoms: C_2  and  C_11
REMARK    2  A    between atoms: N_3  and  C_4
REMARK    3  A    between atoms: C_4  and  C_5
REMARK    4  A    between atoms: C_16  and  C_17
REMARK                            x       y       z     vdW  Elec       q    Type
REMARK                         _______ _______ _______ _____ _____    ______ ____
ROOT
ATOM      1  C   UNL     1      -3.307  12.461  22.560  0.00  0.00    +0.068 C 
ATOM      2  C   UNL     1      -3.910  13.179  23.760  0.00  0.00    +0.024 C 
ATOM      3  N   UNL     1      -2.972  14.218  24.065  0.00  0.00    -0.314 N 
ATOM      4  C   UNL     1      -1.732  13.997  23.503  0.00  0.00    +0.223 C 
ATOM      5  O   UNL     1      -0.769  14.722  23.686  0.00  0.00    -0.275 OA
ATOM      6  C   UNL     1      -1.788  12.695  22.730  0.00  0.00    +0.090 C 
ATOM      7  H   UNL     1      -3.551  11.392  22.603  0.00  0.00    +0.042 HD
ATOM      8  H   UNL     1      -3.958  12.519  24.633  0.00  0.00    +0.047 HD
ATOM      9  H   UNL     1      -4.899  13.615  23.593  0.00  0.00    +0.047 HD
ATOM     10  H   UNL     1      -3.145  15.018  24.662  0.00  0.00    +0.149 HD
ATOM     11  H   UNL     1      -1.407  11.942  23.437  0.00  0.00    +0.047 HD
ENDROOT
BRANCH   6  12
ATOM     12  C   UNL     1      -0.960  12.566  21.480  0.00  0.00    +0.054 A 
ATOM     13  C   UNL     1      -0.788  13.583  20.546  0.00  0.00    -0.040 A 
ATOM     14  C   UNL     1      -0.002  13.347  19.419  0.00  0.00    -0.059 A 
ATOM     15  C   UNL     1       0.594  12.106  19.244  0.00  0.00    -0.044 A 
ATOM     16  C   UNL     1       0.370  11.139  20.204  0.00  0.00    +0.028 A 
ATOM     17  N   UNL     1      -0.400  11.334  21.300  0.00  0.00    -0.259 NA
ATOM     18  H   UNL     1      -1.247  14.559  20.669  0.00  0.00    +0.064 HD
ATOM     19  H   UNL     1       0.146  14.136  18.687  0.00  0.00    +0.062 HD
ATOM     20  H   UNL     1       1.216  11.898  18.380  0.00  0.00    +0.063 HD
ATOM     21  H   UNL     1       0.806  10.149  20.112  0.00  0.00    +0.083 HD
ENDBRANCH   6  12
BRANCH   1  23
ATOM     22  O   UNL     1      -4.037  14.190  21.021  0.00  0.00    -0.275 OA
ATOM     23  C   UNL     1      -3.884  12.995  21.254  0.00  0.00    +0.219 C 
ATOM     24  N   UNL     1      -4.245  12.015  20.357  0.00  0.00    -0.311 N 
ATOM     25  H   UNL     1      -3.805  11.102  20.472  0.00  0.00    +0.149 HD
BRANCH  24  26
ATOM     26  C   UNL     1      -4.657  12.369  19.020  0.00  0.00    +0.037 C 
ATOM     27  H   UNL     1      -4.462  13.438  18.874  0.00  0.00    +0.051 HD
ATOM     28  H   UNL     1      -5.740  12.223  18.930  0.00  0.00    +0.051 HD
BRANCH  26  29
ATOM     29  C   UNL     1      -3.931  11.543  17.993  0.00  0.00    -0.030 A 
ATOM     30  C   UNL     1      -4.414  11.449  16.680  0.00  0.00    -0.057 A 
ATOM     31  C   UNL     1      -3.729  10.697  15.724  0.00  0.00    -0.061 A 
ATOM     32  C   UNL     1      -2.553  10.034  16.070  0.00  0.00    -0.062 A 
ATOM     33  C   UNL     1      -2.060  10.122  17.371  0.00  0.00    -0.061 A 
ATOM     34  C   UNL     1      -2.745  10.873  18.328  0.00  0.00    -0.057 A 
ATOM     35  H   UNL     1      -5.329  11.964  16.395  0.00  0.00    +0.062 HD
ATOM     36  H   UNL     1      -4.115  10.626  14.711  0.00  0.00    +0.062 HD
ATOM     37  H   UNL     1      -2.021   9.447  15.326  0.00  0.00    +0.062 HD
ATOM     38  H   UNL     1      -1.144   9.605  17.641  0.00  0.00    +0.062 HD
ATOM     39  H   UNL     1      -2.350  10.938  19.340  0.00  0.00    +0.062 HD
ENDBRANCH  26  29
ENDBRANCH  24  26
ENDBRANCH   1  23
TORSDOF 4
ENDMDL
MODEL 28
REMARK VINA RESULT:    -5.735      8.469     10.833
REMARK INTER + INTRA:          -7.319
REMARK INTER:                  -7.104
REMARK INTRA:                  -0.215
REMARK UNBOUND:                -0.244
REMARK  Name = 
REMARK  4 active torsions:
REMARK  status: ('A' for Active; 'I' for Inactive)
REMARK    1  A    between atoms: C_2  and  C_11
REMARK    2  A    between atoms: N_3  and  C_4
REMARK    3  A    between atoms: C_4  and  C_5
REMARK    4  A    between atoms: C_16  and  C_17
REMARK                            x       y       z     vdW  Elec       q    Type
REMARK                         _______ _______ _______ _____ _____    ______ ____
ROOT
ATOM      1  C   UNL     1      -0.450  12.674  21.179  0.00  0.00    +0.068 C 
ATOM      2  C   UNL     1       0.307  11.512  20.550  0.00  0.00    +0.024 C 
ATOM      3  N   UNL     1      -0.110  10.365  21.299  0.00  0.00    -0.314 N 
ATOM      4  C   UNL     1      -0.681  10.698  22.509  0.00  0.00    +0.223 C 
ATOM      5  O   UNL     1      -1.048   9.876  23.332  0.00  0.00    -0.275 OA
ATOM      6  C   UNL     1      -0.673  12.208  22.636  0.00  0.00    +0.090 C 
ATOM      7  H   UNL     1       0.164  13.584  21.143  0.00  0.00    +0.042 HD
ATOM      8  H   UNL     1       1.388  11.620  20.695  0.00  0.00    +0.047 HD
ATOM      9  H   UNL     1       0.109  11.349  19.487  0.00  0.00    +0.047 HD
ATOM     10  H   UNL     1       0.023   9.398  21.027  0.00  0.00    +0.149 HD
ATOM     11  H   UNL     1       0.243  12.429  23.206  0.00  0.00    +0.047 HD
ENDROOT
BRANCH   6  12
ATOM     12  C   UNL     1      -1.806  12.873  23.372  0.00  0.00    +0.054 A 
ATOM     13  C   UNL     1      -3.073  12.318  23.523  0.00  0.00    -0.040 A 
ATOM     14  C   UNL     1      -4.048  13.029  24.221  0.00  0.00    -0.059 A 
ATOM     15  C   UNL     1      -3.744  14.275  24.751  0.00  0.00    -0.044 A 
ATOM     16  C   UNL     1      -2.471  14.770  24.551  0.00  0.00    +0.028 A 
ATOM     17  N   UNL     1      -1.508  14.110  23.866  0.00  0.00    -0.259 NA
ATOM     18  H   UNL     1      -3.327  11.344  23.116  0.00  0.00    +0.064 HD
ATOM     19  H   UNL     1      -5.040  12.602  24.353  0.00  0.00    +0.062 HD
ATOM     20  H   UNL     1      -4.483  14.846  25.303  0.00  0.00    +0.063 HD
ATOM     21  H   UNL     1      -2.183  15.743  24.937  0.00  0.00    +0.083 HD
ENDBRANCH   6  12
BRANCH   1  23
ATOM     22  O   UNL     1      -2.165  14.109  20.235  0.00  0.00    -0.275 OA
ATOM     23  C   UNL     1      -1.732  12.975  20.410  0.00  0.00    +0.219 C 
ATOM     24  N   UNL     1      -2.382  11.854  19.943  0.00  0.00    -0.311 N 
ATOM     25  H   UNL     1      -1.823  11.008  19.840  0.00  0.00    +0.149 HD
BRANCH  24  26
ATOM     26  C   UNL     1      -3.520  11.988  19.065  0.00  0.00    +0.037 C 
ATOM     27  H   UNL     1      -3.689  13.055  18.885  0.00  0.00    +0.051 HD
ATOM     28  H   UNL     1      -4.411  11.600  19.574  0.00  0.00    +0.051 HD
BRANCH  26  29
ATOM     29  C   UNL     1      -3.294  11.251  17.771  0.00  0.00    -0.030 A 
ATOM     30  C   UNL     1      -4.129  11.475  16.667  0.00  0.00    -0.057 A 
ATOM     31  C   UNL     1      -3.907  10.805  15.463  0.00  0.00    -0.061 A 
ATOM     32  C   UNL     1      -2.847   9.907  15.350  0.00  0.00    -0.062 A 
ATOM     33  C   UNL     1      -2.008   9.678  16.439  0.00  0.00    -0.061 A 
ATOM     34  C   UNL     1      -2.230  10.347  17.644  0.00  0.00    -0.057 A 
ATOM     35  H   UNL     1      -4.958  12.176  16.740  0.00  0.00    +0.062 HD
ATOM     36  H   UNL     1      -4.562  10.981  14.615  0.00  0.00    +0.062 HD
ATOM     37  H   UNL     1      -2.676   9.383  14.413  0.00  0.00    +0.062 HD
ATOM     38  H   UNL     1      -1.183   8.978  16.351  0.00  0.00    +0.062 HD
ATOM     39  H   UNL     1      -1.568  10.163  18.488  0.00  0.00    +0.062 HD
ENDBRANCH  26  29
ENDBRANCH  24  26
ENDBRANCH   1  23
TORSDOF 4
ENDMDL
MODEL 29
REMARK VINA RESULT:    -5.733      4.515      7.010
REMARK INTER + INTRA:          -7.317
REMARK INTER:                  -7.076
REMARK INTRA:                  -0.241
REMARK UNBOUND:                -0.244
REMARK  Name = 
REMARK  4 active torsions:
REMARK  status: ('A' for Active; 'I' for Inactive)
REMARK    1  A    between atoms: C_2  and  C_11
REMARK    2  A    between atoms: N_3  and  C_4
REMARK    3  A    between atoms: C_4  and  C_5
REMARK    4  A    between atoms: C_16  and  C_17
REMARK                            x       y       z     vdW  Elec       q    Type
REMARK                         _______ _______ _______ _____ _____    ______ ____
ROOT
ATOM      1  C   UNL     1       1.301   9.264  21.956  0.00  0.00    +0.068 C 
ATOM      2  C   UNL     1       1.196   9.270  23.475  0.00  0.00    +0.024 C 
ATOM      3  N   UNL     1      -0.098   9.822  23.742  0.00  0.00    -0.314 N 
ATOM      4  C   UNL     1      -0.619  10.504  22.663  0.00  0.00    +0.223 C 
ATOM      5  O   UNL     1      -1.680  11.105  22.692  0.00  0.00    -0.275 OA
ATOM      6  C   UNL     1       0.384  10.432  21.529  0.00  0.00    +0.090 C 
ATOM      7  H   UNL     1       2.341   9.444  21.653  0.00  0.00    +0.042 HD
ATOM      8  H   UNL     1       1.935   9.945  23.919  0.00  0.00    +0.047 HD
ATOM      9  H   UNL     1       1.283   8.290  23.952  0.00  0.00    +0.047 HD
ATOM     10  H   UNL     1      -0.591   9.780  24.627  0.00  0.00    +0.149 HD
ATOM     11  H   UNL     1       0.961  11.366  21.616  0.00  0.00    +0.047 HD
ENDROOT
BRANCH   6  12
ATOM     12  C   UNL     1      -0.133  10.379  20.116  0.00  0.00    +0.054 A 
ATOM     13  C   UNL     1      -1.410  10.778  19.734  0.00  0.00    -0.040 A 
ATOM     14  C   UNL     1      -1.782  10.678  18.394  0.00  0.00    -0.059 A 
ATOM     15  C   UNL     1      -0.879  10.184  17.464  0.00  0.00    -0.044 A 
ATOM     16  C   UNL     1       0.367   9.795  17.916  0.00  0.00    +0.028 A 
ATOM     17  N   UNL     1       0.751   9.866  19.212  0.00  0.00    -0.259 NA
ATOM     18  H   UNL     1      -2.129  11.168  20.449  0.00  0.00    +0.064 HD
ATOM     19  H   UNL     1      -2.775  10.994  18.083  0.00  0.00    +0.062 HD
ATOM     20  H   UNL     1      -1.141  10.101  16.415  0.00  0.00    +0.063 HD
ATOM     21  H   UNL     1       1.109   9.393  17.232  0.00  0.00    +0.083 HD
ENDBRANCH   6  12
BRANCH   1  23
ATOM     22  O   UNL     1      -0.232   7.446  21.469  0.00  0.00    -0.275 OA
ATOM     23  C   UNL     1       0.902   7.908  21.384  0.00  0.00    +0.219 C 
ATOM     24  N   UNL     1       1.934   7.229  20.778  0.00  0.00    -0.311 N 
ATOM     25  H   UNL     1       2.729   7.785  20.463  0.00  0.00    +0.149 HD
BRANCH  24  26
ATOM     26  C   UNL     1       1.674   6.007  20.054  0.00  0.00    +0.037 C 
ATOM     27  H   UNL     1       0.647   6.046  19.675  0.00  0.00    +0.051 HD
ATOM     28  H   UNL     1       1.731   5.161  20.749  0.00  0.00    +0.051 HD
BRANCH  26  29
ATOM     29  C   UNL     1       2.658   5.825  18.928  0.00  0.00    -0.030 A 
ATOM     30  C   UNL     1       3.228   6.937  18.293  0.00  0.00    -0.057 A 
ATOM     31  C   UNL     1       4.154   6.766  17.262  0.00  0.00    -0.061 A 
ATOM     32  C   UNL     1       4.520   5.483  16.858  0.00  0.00    -0.062 A 
ATOM     33  C   UNL     1       3.962   4.370  17.484  0.00  0.00    -0.061 A 
ATOM     34  C   UNL     1       3.036   4.539  18.514  0.00  0.00    -0.057 A 
ATOM     35  H   UNL     1       2.955   7.944  18.600  0.00  0.00    +0.062 HD
ATOM     36  H   UNL     1       4.587   7.634  16.772  0.00  0.00    +0.062 HD
ATOM     37  H   UNL     1       5.239   5.351  16.054  0.00  0.00    +0.062 HD
ATOM     38  H   UNL     1       4.247   3.370  17.169  0.00  0.00    +0.062 HD
ATOM     39  H   UNL     1       2.608   3.664  18.999  0.00  0.00    +0.062 HD
ENDBRANCH  26  29
ENDBRANCH  24  26
ENDBRANCH   1  23
TORSDOF 4
ENDMDL
MODEL 30
REMARK VINA RESULT:    -5.668      6.602      9.208
REMARK INTER + INTRA:          -7.238
REMARK INTER:                  -6.481
REMARK INTRA:                  -0.757
REMARK UNBOUND:                -0.244
REMARK  Name = 
REMARK  4 active torsions:
REMARK  status: ('A' for Active; 'I' for Inactive)
REMARK    1  A    between atoms: C_2  and  C_11
REMARK    2  A    between atoms: N_3  and  C_4
REMARK    3  A    between atoms: C_4  and  C_5
REMARK    4  A    between atoms: C_16  and  C_17
REMARK                            x       y       z     vdW  Elec       q    Type
REMARK                         _______ _______ _______ _____ _____    ______ ____
ROOT
ATOM      1  C   UNL     1      -0.315  11.658  22.153  0.00  0.00    +0.068 C 
ATOM      2  C   UNL     1      -1.445  11.155  23.043  0.00  0.00    +0.024 C 
ATOM      3  N   UNL     1      -2.484  12.128  22.884  0.00  0.00    -0.314 N 
ATOM      4  C   UNL     1      -2.024  13.319  22.363  0.00  0.00    +0.223 C 
ATOM      5  O   UNL     1      -2.726  14.303  22.205  0.00  0.00    -0.275 OA
ATOM      6  C   UNL     1      -0.533  13.187  22.128  0.00  0.00    +0.090 C 
ATOM      7  H   UNL     1       0.655  11.402  22.602  0.00  0.00    +0.042 HD
ATOM      8  H   UNL     1      -1.150  11.163  24.098  0.00  0.00    +0.047 HD
ATOM      9  H   UNL     1      -1.829  10.163  22.791  0.00  0.00    +0.047 HD
ATOM     10  H   UNL     1      -3.453  12.011  23.156  0.00  0.00    +0.149 HD
ATOM     11  H   UNL     1      -0.075  13.610  23.035  0.00  0.00    +0.047 HD
ENDROOT
BRANCH   6  12
ATOM     12  C   UNL     1       0.077  13.918  20.961  0.00  0.00    +0.054 A 
ATOM     13  C   UNL     1      -0.658  14.567  19.974  0.00  0.00    -0.040 A 
ATOM     14  C   UNL     1       0.016  15.208  18.935  0.00  0.00    -0.059 A 
ATOM     15  C   UNL     1       1.403  15.187  18.898  0.00  0.00    -0.044 A 
ATOM     16  C   UNL     1       2.067  14.513  19.904  0.00  0.00    +0.028 A 
ATOM     17  N   UNL     1       1.440  13.870  20.917  0.00  0.00    -0.259 NA
ATOM     18  H   UNL     1      -1.743  14.594  19.988  0.00  0.00    +0.064 HD
ATOM     19  H   UNL     1      -0.547  15.725  18.162  0.00  0.00    +0.062 HD
ATOM     20  H   UNL     1       1.952  15.682  18.104  0.00  0.00    +0.063 HD
ATOM     21  H   UNL     1       3.151  14.459  19.919  0.00  0.00    +0.083 HD
ENDBRANCH   6  12
BRANCH   1  23
ATOM     22  O   UNL     1      -1.395  10.808  20.153  0.00  0.00    -0.275 OA
ATOM     23  C   UNL     1      -0.358  10.991  20.782  0.00  0.00    +0.219 C 
ATOM     24  N   UNL     1       0.872  10.589  20.315  0.00  0.00    -0.311 N 
ATOM     25  H   UNL     1       1.690  11.048  20.716  0.00  0.00    +0.149 HD
BRANCH  24  26
ATOM     26  C   UNL     1       1.010  10.088  18.968  0.00  0.00    +0.037 C 
ATOM     27  H   UNL     1       1.540  10.842  18.375  0.00  0.00    +0.051 HD
ATOM     28  H   UNL     1       0.013   9.973  18.526  0.00  0.00    +0.051 HD
BRANCH  26  29
ATOM     29  C   UNL     1       1.744   8.774  18.951  0.00  0.00    -0.030 A 
ATOM     30  C   UNL     1       1.673   7.902  20.047  0.00  0.00    -0.057 A 
ATOM     31  C   UNL     1       2.339   6.676  20.022  0.00  0.00    -0.061 A 
ATOM     32  C   UNL     1       3.081   6.308  18.901  0.00  0.00    -0.062 A 
ATOM     33  C   UNL     1       3.157   7.164  17.804  0.00  0.00    -0.061 A 
ATOM     34  C   UNL     1       2.492   8.391  17.828  0.00  0.00    -0.057 A 
ATOM     35  H   UNL     1       1.094   8.175  20.927  0.00  0.00    +0.062 HD
ATOM     36  H   UNL     1       2.282   6.010  20.879  0.00  0.00    +0.062 HD
ATOM     37  H   UNL     1       3.602   5.354  18.883  0.00  0.00    +0.062 HD
ATOM     38  H   UNL     1       3.736   6.877  16.931  0.00  0.00    +0.062 HD
ATOM     39  H   UNL     1       2.555   9.051  16.965  0.00  0.00    +0.062 HD
ENDBRANCH  26  29
ENDBRANCH  24  26
ENDBRANCH   1  23
TORSDOF 4
ENDMDL
MODEL 31
REMARK VINA RESULT:    -5.644      5.153      7.412
REMARK INTER + INTRA:          -7.208
REMARK INTER:                  -6.964
REMARK INTRA:                  -0.244
REMARK UNBOUND:                -0.244
REMARK  Name = 
REMARK  4 active torsions:
REMARK  status: ('A' for Active; 'I' for Inactive)
REMARK    1  A    between atoms: C_2  and  C_11
REMARK    2  A    between atoms: N_3  and  C_4
REMARK    3  A    between atoms: C_4  and  C_5
REMARK    4  A    between atoms: C_16  and  C_17
REMARK                            x       y       z     vdW  Elec       q    Type
REMARK                         _______ _______ _______ _____ _____    ______ ____
ROOT
ATOM      1  C   UNL     1       0.897   9.932  22.136  0.00  0.00    +0.068 C 
ATOM      2  C   UNL     1       0.101   9.287  23.263  0.00  0.00    +0.024 C 
ATOM      3  N   UNL     1      -1.163   9.959  23.238  0.00  0.00    -0.314 N 
ATOM      4  C   UNL     1      -1.118  11.153  22.550  0.00  0.00    +0.223 C 
ATOM      5  O   UNL     1      -2.065  11.916  22.459  0.00  0.00    -0.275 OA
ATOM      6  C   UNL     1       0.294  11.352  22.039  0.00  0.00    +0.090 C 
ATOM      7  H   UNL     1       1.961   9.970  22.404  0.00  0.00    +0.042 HD
ATOM      8  H   UNL     1       0.559   9.493  24.237  0.00  0.00    +0.047 HD
ATOM      9  H   UNL     1      -0.053   8.209  23.167  0.00  0.00    +0.047 HD
ATOM     10  H   UNL     1      -2.009   9.649  23.702  0.00  0.00    +0.149 HD
ATOM     11  H   UNL     1       0.777  11.978  22.806  0.00  0.00    +0.047 HD
ENDROOT
BRANCH   6  12
ATOM     12  C   UNL     1       0.489  12.060  20.725  0.00  0.00    +0.054 A 
ATOM     13  C   UNL     1      -0.527  12.295  19.804  0.00  0.00    -0.040 A 
ATOM     14  C   UNL     1      -0.228  12.956  18.614  0.00  0.00    -0.059 A 
ATOM     15  C   UNL     1       1.074  13.368  18.364  0.00  0.00    -0.044 A 
ATOM     16  C   UNL     1       2.034  13.090  19.316  0.00  0.00    +0.028 A 
ATOM     17  N   UNL     1       1.777  12.437  20.473  0.00  0.00    -0.259 NA
ATOM     18  H   UNL     1      -1.550  11.980  19.984  0.00  0.00    +0.064 HD
ATOM     19  H   UNL     1      -1.015  13.152  17.890  0.00  0.00    +0.062 HD
ATOM     20  H   UNL     1       1.332  13.889  17.449  0.00  0.00    +0.063 HD
ATOM     21  H   UNL     1       3.070  13.382  19.167  0.00  0.00    +0.083 HD
ENDBRANCH   6  12
BRANCH   1  23
ATOM     22  O   UNL     1      -0.220   9.068  20.162  0.00  0.00    -0.275 OA
ATOM     23  C   UNL     1       0.793   9.114  20.853  0.00  0.00    +0.219 C 
ATOM     24  N   UNL     1       1.933   8.407  20.544  0.00  0.00    -0.311 N 
ATOM     25  H   UNL     1       2.805   8.736  20.959  0.00  0.00    +0.149 HD
BRANCH  24  26
ATOM     26  C   UNL     1       2.039   7.715  19.282  0.00  0.00    +0.037 C 
ATOM     27  H   UNL     1       2.954   8.052  18.783  0.00  0.00    +0.051 HD
ATOM     28  H   UNL     1       1.196   8.006  18.643  0.00  0.00    +0.051 HD
BRANCH  26  29
ATOM     29  C   UNL     1       2.052   6.223  19.482  0.00  0.00    -0.030 A 
ATOM     30  C   UNL     1       2.358   5.362  18.418  0.00  0.00    -0.057 A 
ATOM     31  C   UNL     1       2.388   3.980  18.611  0.00  0.00    -0.061 A 
ATOM     32  C   UNL     1       2.115   3.445  19.869  0.00  0.00    -0.062 A 
ATOM     33  C   UNL     1       1.813   4.290  20.935  0.00  0.00    -0.061 A 
ATOM     34  C   UNL     1       1.782   5.672  20.743  0.00  0.00    -0.057 A 
ATOM     35  H   UNL     1       2.576   5.766  17.432  0.00  0.00    +0.062 HD
ATOM     36  H   UNL     1       2.621   3.321  17.779  0.00  0.00    +0.062 HD
ATOM     37  H   UNL     1       2.136   2.368  20.017  0.00  0.00    +0.062 HD
ATOM     38  H   UNL     1       1.600   3.873  21.915  0.00  0.00    +0.062 HD
ATOM     39  H   UNL     1       1.548   6.323  21.583  0.00  0.00    +0.062 HD
ENDBRANCH  26  29
ENDBRANCH  24  26
ENDBRANCH   1  23
TORSDOF 4
ENDMDL
MODEL 32
REMARK VINA RESULT:    -5.643      8.334     10.261
REMARK INTER + INTRA:          -7.206
REMARK INTER:                  -6.873
REMARK INTRA:                  -0.334
REMARK UNBOUND:                -0.244
REMARK  Name = 
REMARK  4 active torsions:
REMARK  status: ('A' for Active; 'I' for Inactive)
REMARK    1  A    between atoms: C_2  and  C_11
REMARK    2  A    between atoms: N_3  and  C_4
REMARK    3  A    between atoms: C_4  and  C_5
REMARK    4  A    between atoms: C_16  and  C_17
REMARK                            x       y       z     vdW  Elec       q    Type
REMARK                         _______ _______ _______ _____ _____    ______ ____
ROOT
ATOM      1  C   UNL     1       0.653  11.158  19.913  0.00  0.00    +0.068 C 
ATOM      2  C   UNL     1       1.631  12.217  20.407  0.00  0.00    +0.024 C 
ATOM      3  N   UNL     1       1.037  13.461  20.020  0.00  0.00    -0.314 N 
ATOM      4  C   UNL     1       0.075  13.311  19.044  0.00  0.00    +0.223 C 
ATOM      5  O   UNL     1      -0.512  14.246  18.524  0.00  0.00    -0.275 OA
ATOM      6  C   UNL     1      -0.030  11.838  18.705  0.00  0.00    +0.090 C 
ATOM      7  H   UNL     1       1.201  10.258  19.606  0.00  0.00    +0.042 HD
ATOM      8  H   UNL     1       2.592  12.139  19.886  0.00  0.00    +0.047 HD
ATOM      9  H   UNL     1       1.813  12.215  21.485  0.00  0.00    +0.047 HD
ATOM     10  H   UNL     1       1.298  14.377  20.366  0.00  0.00    +0.149 HD
ATOM     11  H   UNL     1       0.627  11.712  17.830  0.00  0.00    +0.047 HD
ENDROOT
BRANCH   6  12
ATOM     12  C   UNL     1      -1.374  11.285  18.314  0.00  0.00    +0.054 A 
ATOM     13  C   UNL     1      -1.555  10.160  17.515  0.00  0.00    -0.040 A 
ATOM     14  C   UNL     1      -2.850   9.742  17.211  0.00  0.00    -0.059 A 
ATOM     15  C   UNL     1      -3.936  10.451  17.706  0.00  0.00    -0.044 A 
ATOM     16  C   UNL     1      -3.682  11.566  18.481  0.00  0.00    +0.028 A 
ATOM     17  N   UNL     1      -2.437  12.004  18.780  0.00  0.00    -0.259 NA
ATOM     18  H   UNL     1      -0.717   9.593  17.121  0.00  0.00    +0.064 HD
ATOM     19  H   UNL     1      -3.004   8.860  16.595  0.00  0.00    +0.062 HD
ATOM     20  H   UNL     1      -4.953  10.144  17.489  0.00  0.00    +0.063 HD
ATOM     21  H   UNL     1      -4.495  12.161  18.886  0.00  0.00    +0.083 HD
ENDBRANCH   6  12
BRANCH   1  23
ATOM     22  O   UNL     1      -0.666   9.577  21.199  0.00  0.00    -0.275 OA
ATOM     23  C   UNL     1      -0.305  10.736  21.023  0.00  0.00    +0.219 C 
ATOM     24  N   UNL     1      -0.751  11.778  21.805  0.00  0.00    -0.311 N 
ATOM     25  H   UNL     1      -0.181  12.623  21.814  0.00  0.00    +0.149 HD
BRANCH  24  26
ATOM     26  C   UNL     1      -1.535  11.513  22.988  0.00  0.00    +0.037 C 
ATOM     27  H   UNL     1      -0.919  11.746  23.865  0.00  0.00    +0.051 HD
ATOM     28  H   UNL     1      -1.766  10.443  23.031  0.00  0.00    +0.051 HD
BRANCH  26  29
ATOM     29  C   UNL     1      -2.803  12.324  22.989  0.00  0.00    -0.030 A 
ATOM     30  C   UNL     1      -3.673  12.288  24.089  0.00  0.00    -0.057 A 
ATOM     31  C   UNL     1      -4.839  13.054  24.096  0.00  0.00    -0.061 A 
ATOM     32  C   UNL     1      -5.147  13.866  23.005  0.00  0.00    -0.062 A 
ATOM     33  C   UNL     1      -4.289  13.913  21.908  0.00  0.00    -0.061 A 
ATOM     34  C   UNL     1      -3.123  13.146  21.899  0.00  0.00    -0.057 A 
ATOM     35  H   UNL     1      -3.444  11.662  24.948  0.00  0.00    +0.062 HD
ATOM     36  H   UNL     1      -5.509  13.015  24.950  0.00  0.00    +0.062 HD
ATOM     37  H   UNL     1      -6.056  14.461  23.010  0.00  0.00    +0.062 HD
ATOM     38  H   UNL     1      -4.529  14.546  21.058  0.00  0.00    +0.062 HD
ATOM     39  H   UNL     1      -2.458  13.193  21.039  0.00  0.00    +0.062 HD
ENDBRANCH  26  29
ENDBRANCH  24  26
ENDBRANCH   1  23
TORSDOF 4
ENDMDL
MODEL 33
REMARK VINA RESULT:    -5.548      7.771     10.780
REMARK INTER + INTRA:          -7.089
REMARK INTER:                  -6.643
REMARK INTRA:                  -0.445
REMARK UNBOUND:                -0.244
REMARK  Name = 
REMARK  4 active torsions:
REMARK  status: ('A' for Active; 'I' for Inactive)
REMARK    1  A    between atoms: C_2  and  C_11
REMARK    2  A    between atoms: N_3  and  C_4
REMARK    3  A    between atoms: C_4  and  C_5
REMARK    4  A    between atoms: C_16  and  C_17
REMARK                            x       y       z     vdW  Elec       q    Type
REMARK                         _______ _______ _______ _____ _____    ______ ____
ROOT
ATOM      1  C   UNL     1       0.388  12.946  19.438  0.00  0.00    +0.068 C 
ATOM      2  C   UNL     1      -0.174  13.442  18.112  0.00  0.00    +0.024 C 
ATOM      3  N   UNL     1      -1.304  12.597  17.864  0.00  0.00    -0.314 N 
ATOM      4  C   UNL     1      -1.277  11.439  18.612  0.00  0.00    +0.223 C 
ATOM      5  O   UNL     1      -2.106  10.550  18.511  0.00  0.00    -0.275 OA
ATOM      6  C   UNL     1      -0.026  11.457  19.467  0.00  0.00    +0.090 C 
ATOM      7  H   UNL     1       1.481  13.054  19.443  0.00  0.00    +0.042 HD
ATOM      8  H   UNL     1       0.538  13.280  17.295  0.00  0.00    +0.047 HD
ATOM      9  H   UNL     1      -0.489  14.489  18.102  0.00  0.00    +0.047 HD
ATOM     10  H   UNL     1      -2.038  12.771  17.188  0.00  0.00    +0.149 HD
ATOM     11  H   UNL     1       0.713  10.888  18.882  0.00  0.00    +0.047 HD
ENDROOT
BRANCH   6  12
ATOM     12  C   UNL     1      -0.078  10.817  20.829  0.00  0.00    +0.054 A 
ATOM     13  C   UNL     1      -1.050  11.092  21.786  0.00  0.00    -0.040 A 
ATOM     14  C   UNL     1      -0.995  10.442  23.018  0.00  0.00    -0.059 A 
ATOM     15  C   UNL     1       0.025   9.536  23.273  0.00  0.00    -0.044 A 
ATOM     16  C   UNL     1       0.963   9.322  22.282  0.00  0.00    +0.028 A 
ATOM     17  N   UNL     1       0.943   9.949  21.083  0.00  0.00    -0.259 NA
ATOM     18  H   UNL     1      -1.855  11.797  21.603  0.00  0.00    +0.064 HD
ATOM     19  H   UNL     1      -1.753  10.643  23.771  0.00  0.00    +0.062 HD
ATOM     20  H   UNL     1       0.088   9.012  24.221  0.00  0.00    +0.063 HD
ATOM     21  H   UNL     1       1.786   8.629  22.432  0.00  0.00    +0.083 HD
ENDBRANCH   6  12
BRANCH   1  23
ATOM     22  O   UNL     1       0.503  14.003  21.619  0.00  0.00    -0.275 OA
ATOM     23  C   UNL     1      -0.145  13.772  20.603  0.00  0.00    +0.219 C 
ATOM     24  N   UNL     1      -1.434  14.223  20.428  0.00  0.00    -0.311 N 
ATOM     25  H   UNL     1      -1.776  14.276  19.469  0.00  0.00    +0.149 HD
BRANCH  24  26
ATOM     26  C   UNL     1      -2.015  15.147  21.373  0.00  0.00    +0.037 C 
ATOM     27  H   UNL     1      -2.628  15.865  20.816  0.00  0.00    +0.051 HD
ATOM     28  H   UNL     1      -1.211  15.716  21.856  0.00  0.00    +0.051 HD
BRANCH  26  29
ATOM     29  C   UNL     1      -2.836  14.421  22.405  0.00  0.00    -0.030 A 
ATOM     30  C   UNL     1      -3.830  13.513  22.015  0.00  0.00    -0.057 A 
ATOM     31  C   UNL     1      -4.578  12.826  22.973  0.00  0.00    -0.061 A 
ATOM     32  C   UNL     1      -4.337  13.040  24.330  0.00  0.00    -0.062 A 
ATOM     33  C   UNL     1      -3.350  13.938  24.730  0.00  0.00    -0.061 A 
ATOM     34  C   UNL     1      -2.602  14.626  23.772  0.00  0.00    -0.057 A 
ATOM     35  H   UNL     1      -4.026  13.333  20.960  0.00  0.00    +0.062 HD
ATOM     36  H   UNL     1      -5.349  12.128  22.662  0.00  0.00    +0.062 HD
ATOM     37  H   UNL     1      -4.922  12.507  25.076  0.00  0.00    +0.062 HD
ATOM     38  H   UNL     1      -3.163  14.105  25.787  0.00  0.00    +0.062 HD
ATOM     39  H   UNL     1      -1.832  15.323  24.095  0.00  0.00    +0.062 HD
ENDBRANCH  26  29
ENDBRANCH  24  26
ENDBRANCH   1  23
TORSDOF 4
ENDMDL
