MODEL 1
REMARK VINA RESULT:    -9.296      0.000      0.000
REMARK INTER + INTRA:         -13.256
REMARK INTER:                 -12.044
REMARK INTRA:                  -1.212
REMARK UNBOUND:                -0.157
REMARK  Name = 
REMARK  8 active torsions:
REMARK  status: ('A' for Active; 'I' for Inactive)
REMARK    1  A    between atoms: C_1  and  C_2
REMARK    2  A    between atoms: C_2  and  C_3
REMARK    3  A    between atoms: C_2  and  C_10
REMARK    4  A    between atoms: C_3  and  C_4
REMARK    5  A    between atoms: N_8  and  C_9
REMARK    6  A    between atoms: N_13  and  C_14
REMARK    7  A    between atoms: C_18  and  N_19
REMARK    8  A    between atoms: C_26  and  C_27
REMARK                            x       y       z     vdW  Elec       q    Type
REMARK                         _______ _______ _______ _____ _____    ______ ____
ROOT
ATOM      1  C   UNL     1       4.511   5.696  17.332  0.00  0.00    -0.038 A 
ATOM      2  C   UNL     1       4.328   4.581  18.154  0.00  0.00    -0.018 A 
ATOM      3  C   UNL     1       3.429   4.645  19.214  0.00  0.00    +0.121 A 
ATOM      4  N   UNL     1       3.291   3.501  20.041  0.00  0.00    -0.326 N 
ATOM      5  N   UNL     1       2.746   5.771  19.496  0.00  0.00    -0.217 NA
ATOM      6  C   UNL     1       2.909   6.862  18.711  0.00  0.00    +0.130 A 
ATOM      7  C   UNL     1       3.780   6.854  17.627  0.00  0.00    -0.018 A 
ATOM      8  H   UNL     1       4.889   3.668  17.985  0.00  0.00    +0.065 HD
ATOM      9  H   UNL     1       3.174   2.685  19.444  0.00  0.00    +0.148 HD
ATOM     10  H   UNL     1       3.913   7.734  17.008  0.00  0.00    +0.065 HD
ENDROOT
BRANCH   6  11
ATOM     11  N   UNL     1       2.152   7.995  19.058  0.00  0.00    -0.248 N 
ATOM     12  C   UNL     1       1.533   8.066  20.371  0.00  0.00    +0.048 C 
ATOM     13  C   UNL     1       0.837   9.390  20.342  0.00  0.00    -0.006 A 
ATOM     14  C   UNL     1       1.054  10.003  19.109  0.00  0.00    +0.042 A 
ATOM     15  C   UNL     1       0.532  11.241  18.789  0.00  0.00    -0.049 A 
ATOM     16  C   UNL     1      -0.243  11.882  19.757  0.00  0.00    -0.060 A 
ATOM     17  C   UNL     1      -0.473  11.277  21.007  0.00  0.00    -0.050 A 
ATOM     18  C   UNL     1       0.066  10.014  21.320  0.00  0.00    +0.060 A 
ATOM     19  C   UNL     1       1.890   9.117  18.286  0.00  0.00    +0.253 C 
ATOM     20  O   UNL     1       2.227   9.405  17.154  0.00  0.00    -0.270 OA
ATOM     21  H   UNL     1       0.815   7.248  20.490  0.00  0.00    +0.052 HD
ATOM     22  H   UNL     1       2.304   8.046  21.148  0.00  0.00    +0.052 HD
ATOM     23  H   UNL     1       0.718  11.692  17.820  0.00  0.00    +0.063 HD
ATOM     24  H   UNL     1      -0.672  12.858  19.544  0.00  0.00    +0.062 HD
ATOM     25  H   UNL     1      -1.084  11.805  21.739  0.00  0.00    +0.062 HD
BRANCH  18  26
ATOM     26  C   UNL     1      -0.178   9.355  22.651  0.00  0.00    +0.418 C 
ATOM     27  F   UNL     1       0.955   9.160  23.382  0.00  0.00    -0.166 F 
ATOM     28  F   UNL     1      -0.757   8.130  22.524  0.00  0.00    -0.166 F 
ATOM     29  F   UNL     1      -1.014  10.083  23.441  0.00  0.00    -0.166 F 
ENDBRANCH  18  26
ENDBRANCH   6  11
BRANCH   4  30
ATOM     30  C   UNL     1       2.351   3.579  21.165  0.00  0.00    +0.022 C 
ATOM     31  C   UNL     1       1.961   2.339  21.920  0.00  0.00    -0.033 C 
ATOM     32  C   UNL     1       0.953   3.038  21.053  0.00  0.00    -0.033 C 
ATOM     33  H   UNL     1       2.489   4.479  21.760  0.00  0.00    +0.050 HD
ATOM     34  H   UNL     1       2.348   1.384  21.585  0.00  0.00    +0.028 HD
ATOM     35  H   UNL     1       1.849   2.420  22.994  0.00  0.00    +0.028 HD
ATOM     36  H   UNL     1       0.162   3.600  21.535  0.00  0.00    +0.028 HD
ATOM     37  H   UNL     1       0.658   2.567  20.123  0.00  0.00    +0.028 HD
ENDBRANCH   4  30
BRANCH   1  38
ATOM     38  C   UNL     1       5.494   5.696  16.169  0.00  0.00    -0.012 C 
ATOM     39  H   UNL     1       5.443   6.681  15.681  0.00  0.00    +0.035 HD
BRANCH  38  40
ATOM     40  C   UNL     1       5.099   4.664  15.101  0.00  0.00    -0.058 C 
ATOM     41  H   UNL     1       5.454   3.659  15.352  0.00  0.00    +0.024 HD
ATOM     42  H   UNL     1       5.521   4.928  14.125  0.00  0.00    +0.024 HD
ATOM     43  H   UNL     1       4.010   4.618  14.984  0.00  0.00    +0.024 HD
ENDBRANCH  38  40
BRANCH  38  44
ATOM     44  C   UNL     1       6.928   5.478  16.693  0.00  0.00    +0.014 C 
ATOM     45  H   UNL     1       6.934   4.646  17.411  0.00  0.00    +0.035 HD
ATOM     46  H   UNL     1       7.586   5.171  15.872  0.00  0.00    +0.035 HD
BRANCH  44  47
ATOM     47  C   UNL     1       7.470   6.679  17.391  0.00  0.00    +0.134 A 
ATOM     48  N   UNL     1       7.544   7.899  16.898  0.00  0.00    -0.135 NA
ATOM     49  N   UNL     1       8.104   8.717  17.851  0.00  0.00    -0.138 NA
ATOM     50  C   UNL     1       8.356   7.981  18.906  0.00  0.00    +0.120 A 
ATOM     51  N   UNL     1       7.976   6.698  18.666  0.00  0.00    -0.320 N 
ATOM     52  H   UNL     1       8.798   8.326  19.831  0.00  0.00    +0.105 HD
BRANCH  51  53
ATOM     53  C   UNL     1       8.095   5.596  19.582  0.00  0.00    +0.014 C 
ATOM     54  H   UNL     1       8.340   5.971  20.578  0.00  0.00    +0.046 HD
ATOM     55  H   UNL     1       8.892   4.936  19.231  0.00  0.00    +0.046 HD
ATOM     56  H   UNL     1       7.140   5.065  19.614  0.00  0.00    +0.046 HD
ENDBRANCH  51  53
ENDBRANCH  44  47
ENDBRANCH  38  44
ENDBRANCH   1  38
TORSDOF 8
ENDMDL
MODEL 2
REMARK VINA RESULT:    -8.617      1.854      2.714
REMARK INTER + INTRA:         -12.299
REMARK INTER:                 -11.471
REMARK INTRA:                  -0.829
REMARK UNBOUND:                -0.157
REMARK  Name = 
REMARK  8 active torsions:
REMARK  status: ('A' for Active; 'I' for Inactive)
REMARK    1  A    between atoms: C_1  and  C_2
REMARK    2  A    between atoms: C_2  and  C_3
REMARK    3  A    between atoms: C_2  and  C_10
REMARK    4  A    between atoms: C_3  and  C_4
REMARK    5  A    between atoms: N_8  and  C_9
REMARK    6  A    between atoms: N_13  and  C_14
REMARK    7  A    between atoms: C_18  and  N_19
REMARK    8  A    between atoms: C_26  and  C_27
REMARK                            x       y       z     vdW  Elec       q    Type
REMARK                         _______ _______ _______ _____ _____    ______ ____
ROOT
ATOM      1  C   UNL     1       4.378   5.928  17.318  0.00  0.00    -0.038 A 
ATOM      2  C   UNL     1       4.182   4.780  18.090  0.00  0.00    -0.018 A 
ATOM      3  C   UNL     1       3.263   4.801  19.135  0.00  0.00    +0.121 A 
ATOM      4  N   UNL     1       3.111   3.624  19.911  0.00  0.00    -0.326 N 
ATOM      5  N   UNL     1       2.573   5.915  19.449  0.00  0.00    -0.217 NA
ATOM      6  C   UNL     1       2.750   7.036  18.712  0.00  0.00    +0.130 A 
ATOM      7  C   UNL     1       3.641   7.073  17.646  0.00  0.00    -0.018 A 
ATOM      8  H   UNL     1       4.747   3.876  17.895  0.00  0.00    +0.065 HD
ATOM      9  H   UNL     1       3.005   2.833  19.280  0.00  0.00    +0.148 HD
ATOM     10  H   UNL     1       3.785   7.978  17.065  0.00  0.00    +0.065 HD
ENDROOT
BRANCH   6  11
ATOM     11  N   UNL     1       1.985   8.155  19.091  0.00  0.00    -0.248 N 
ATOM     12  C   UNL     1       1.386   8.196  20.415  0.00  0.00    +0.048 C 
ATOM     13  C   UNL     1       0.674   9.511  20.419  0.00  0.00    -0.006 A 
ATOM     14  C   UNL     1       0.864  10.147  19.194  0.00  0.00    +0.042 A 
ATOM     15  C   UNL     1       0.322  11.384  18.904  0.00  0.00    -0.049 A 
ATOM     16  C   UNL     1      -0.444  11.999  19.895  0.00  0.00    -0.060 A 
ATOM     17  C   UNL     1      -0.647  11.370  21.138  0.00  0.00    -0.050 A 
ATOM     18  C   UNL     1      -0.088  10.109  21.420  0.00  0.00    +0.060 A 
ATOM     19  C   UNL     1       1.697   9.286  18.343  0.00  0.00    +0.253 C 
ATOM     20  O   UNL     1       2.012   9.597  17.210  0.00  0.00    -0.270 OA
ATOM     21  H   UNL     1       0.680   7.367  20.531  0.00  0.00    +0.052 HD
ATOM     22  H   UNL     1       2.170   8.172  21.179  0.00  0.00    +0.052 HD
ATOM     23  H   UNL     1       0.487  11.854  17.939  0.00  0.00    +0.063 HD
ATOM     24  H   UNL     1      -0.889  12.974  19.705  0.00  0.00    +0.062 HD
ATOM     25  H   UNL     1      -1.253  11.878  21.888  0.00  0.00    +0.062 HD
BRANCH  18  26
ATOM     26  C   UNL     1      -0.302   9.424  22.744  0.00  0.00    +0.418 C 
ATOM     27  F   UNL     1       0.845   9.226  23.450  0.00  0.00    -0.166 F 
ATOM     28  F   UNL     1      -0.875   8.198  22.605  0.00  0.00    -0.166 F 
ATOM     29  F   UNL     1      -1.130  10.132  23.562  0.00  0.00    -0.166 F 
ENDBRANCH  18  26
ENDBRANCH   6  11
BRANCH   4  30
ATOM     30  C   UNL     1       2.149   3.656  21.020  0.00  0.00    +0.022 C 
ATOM     31  C   UNL     1       1.928   2.438  21.872  0.00  0.00    -0.033 C 
ATOM     32  C   UNL     1       0.846   2.911  20.945  0.00  0.00    -0.033 C 
ATOM     33  H   UNL     1       2.146   4.612  21.539  0.00  0.00    +0.050 HD
ATOM     34  H   UNL     1       2.455   1.526  21.620  0.00  0.00    +0.028 HD
ATOM     35  H   UNL     1       1.787   2.589  22.936  0.00  0.00    +0.028 HD
ATOM     36  H   UNL     1      -0.026   3.390  21.374  0.00  0.00    +0.028 HD
ATOM     37  H   UNL     1       0.638   2.329  20.055  0.00  0.00    +0.028 HD
ENDBRANCH   4  30
BRANCH   1  38
ATOM     38  C   UNL     1       5.383   5.976  16.175  0.00  0.00    -0.012 C 
ATOM     39  H   UNL     1       6.356   6.280  16.589  0.00  0.00    +0.035 HD
BRANCH  38  40
ATOM     40  C   UNL     1       5.003   7.045  15.138  0.00  0.00    -0.058 C 
ATOM     41  H   UNL     1       5.737   7.109  14.328  0.00  0.00    +0.024 HD
ATOM     42  H   UNL     1       4.937   8.035  15.602  0.00  0.00    +0.024 HD
ATOM     43  H   UNL     1       4.026   6.828  14.691  0.00  0.00    +0.024 HD
ENDBRANCH  38  40
BRANCH  38  44
ATOM     44  C   UNL     1       5.531   4.575  15.545  0.00  0.00    +0.014 C 
ATOM     45  H   UNL     1       6.005   3.896  16.267  0.00  0.00    +0.035 HD
ATOM     46  H   UNL     1       4.542   4.150  15.338  0.00  0.00    +0.035 HD
BRANCH  44  47
ATOM     47  C   UNL     1       6.375   4.587  14.316  0.00  0.00    +0.134 A 
ATOM     48  N   UNL     1       7.563   5.144  14.193  0.00  0.00    -0.135 NA
ATOM     49  N   UNL     1       8.007   4.935  12.909  0.00  0.00    -0.138 NA
ATOM     50  C   UNL     1       7.083   4.254  12.276  0.00  0.00    +0.120 A 
ATOM     51  N   UNL     1       6.042   4.011  13.117  0.00  0.00    -0.320 N 
ATOM     52  H   UNL     1       7.126   3.928  11.246  0.00  0.00    +0.105 HD
BRANCH  51  53
ATOM     53  C   UNL     1       4.839   3.294  12.788  0.00  0.00    +0.014 C 
ATOM     54  H   UNL     1       4.122   3.386  13.607  0.00  0.00    +0.046 HD
ATOM     55  H   UNL     1       5.091   2.242  12.636  0.00  0.00    +0.046 HD
ATOM     56  H   UNL     1       4.415   3.725  11.878  0.00  0.00    +0.046 HD
ENDBRANCH  51  53
ENDBRANCH  44  47
ENDBRANCH  38  44
ENDBRANCH   1  38
TORSDOF 8
ENDMDL
MODEL 3
REMARK VINA RESULT:    -8.544      1.611      2.599
REMARK INTER + INTRA:         -12.197
REMARK INTER:                 -11.822
REMARK INTRA:                  -0.375
REMARK UNBOUND:                -0.157
REMARK  Name = 
REMARK  8 active torsions:
REMARK  status: ('A' for Active; 'I' for Inactive)
REMARK    1  A    between atoms: C_1  and  C_2
REMARK    2  A    between atoms: C_2  and  C_3
REMARK    3  A    between atoms: C_2  and  C_10
REMARK    4  A    between atoms: C_3  and  C_4
REMARK    5  A    between atoms: N_8  and  C_9
REMARK    6  A    between atoms: N_13  and  C_14
REMARK    7  A    between atoms: C_18  and  N_19
REMARK    8  A    between atoms: C_26  and  C_27
REMARK                            x       y       z     vdW  Elec       q    Type
REMARK                         _______ _______ _______ _____ _____    ______ ____
ROOT
ATOM      1  C   UNL     1       5.565   5.100  18.901  0.00  0.00    -0.038 A 
ATOM      2  C   UNL     1       4.963   3.885  19.239  0.00  0.00    -0.018 A 
ATOM      3  C   UNL     1       3.611   3.854  19.566  0.00  0.00    +0.121 A 
ATOM      4  N   UNL     1       3.042   2.606  19.928  0.00  0.00    -0.326 N 
ATOM      5  N   UNL     1       2.864   4.975  19.600  0.00  0.00    -0.217 NA
ATOM      6  C   UNL     1       3.430   6.161  19.276  0.00  0.00    +0.130 A 
ATOM      7  C   UNL     1       4.772   6.254  18.924  0.00  0.00    -0.018 A 
ATOM      8  H   UNL     1       5.538   2.967  19.262  0.00  0.00    +0.065 HD
ATOM      9  H   UNL     1       3.319   1.914  19.236  0.00  0.00    +0.148 HD
ATOM     10  H   UNL     1       5.221   7.209  18.674  0.00  0.00    +0.065 HD
ENDROOT
BRANCH   6  11
ATOM     11  N   UNL     1       2.585   7.285  19.321  0.00  0.00    -0.248 N 
ATOM     12  C   UNL     1       1.896   7.612  20.559  0.00  0.00    +0.048 C 
ATOM     13  C   UNL     1       1.119   8.838  20.194  0.00  0.00    -0.006 A 
ATOM     14  C   UNL     1       1.359   9.161  18.860  0.00  0.00    +0.042 A 
ATOM     15  C   UNL     1       0.775  10.249  18.240  0.00  0.00    -0.049 A 
ATOM     16  C   UNL     1      -0.087  11.037  19.003  0.00  0.00    -0.060 A 
ATOM     17  C   UNL     1      -0.341  10.724  20.351  0.00  0.00    -0.050 A 
ATOM     18  C   UNL     1       0.261   9.612  20.971  0.00  0.00    +0.060 A 
ATOM     19  C   UNL     1       2.291   8.173  18.299  0.00  0.00    +0.253 C 
ATOM     20  O   UNL     1       2.666   8.215  17.142  0.00  0.00    -0.270 OA
ATOM     21  H   UNL     1       1.228   6.793  20.841  0.00  0.00    +0.052 HD
ATOM     22  H   UNL     1       2.627   7.831  21.345  0.00  0.00    +0.052 HD
ATOM     23  H   UNL     1       0.981  10.475  17.199  0.00  0.00    +0.063 HD
ATOM     24  H   UNL     1      -0.568  11.903  18.551  0.00  0.00    +0.062 HD
ATOM     25  H   UNL     1      -1.022  11.360  20.917  0.00  0.00    +0.062 HD
BRANCH  18  26
ATOM     26  C   UNL     1      -0.008   9.264  22.411  0.00  0.00    +0.418 C 
ATOM     27  F   UNL     1       1.122   9.095  23.153  0.00  0.00    -0.166 F 
ATOM     28  F   UNL     1      -0.718   8.111  22.541  0.00  0.00    -0.166 F 
ATOM     29  F   UNL     1      -0.735  10.224  23.046  0.00  0.00    -0.166 F 
ENDBRANCH  18  26
ENDBRANCH   6  11
BRANCH   4  30
ATOM     30  C   UNL     1       1.619   2.581  20.285  0.00  0.00    +0.022 C 
ATOM     31  C   UNL     1       0.585   2.180  19.271  0.00  0.00    -0.033 C 
ATOM     32  C   UNL     1       0.660   3.603  19.743  0.00  0.00    -0.033 C 
ATOM     33  H   UNL     1       1.452   2.234  21.303  0.00  0.00    +0.050 HD
ATOM     34  H   UNL     1       0.908   1.959  18.261  0.00  0.00    +0.028 HD
ATOM     35  H   UNL     1      -0.245   1.574  19.613  0.00  0.00    +0.028 HD
ATOM     36  H   UNL     1      -0.113   3.964  20.411  0.00  0.00    +0.028 HD
ATOM     37  H   UNL     1       1.040   4.354  19.061  0.00  0.00    +0.028 HD
ENDBRANCH   4  30
BRANCH   1  38
ATOM     38  C   UNL     1       7.044   5.204  18.552  0.00  0.00    -0.012 C 
ATOM     39  H   UNL     1       7.436   4.184  18.422  0.00  0.00    +0.035 HD
BRANCH  38  40
ATOM     40  C   UNL     1       7.848   5.832  19.701  0.00  0.00    -0.058 C 
ATOM     41  H   UNL     1       8.821   5.347  19.833  0.00  0.00    +0.024 HD
ATOM     42  H   UNL     1       7.307   5.748  20.650  0.00  0.00    +0.024 HD
ATOM     43  H   UNL     1       8.025   6.898  19.519  0.00  0.00    +0.024 HD
ENDBRANCH  38  40
BRANCH  38  44
ATOM     44  C   UNL     1       7.219   5.973  17.226  0.00  0.00    +0.014 C 
ATOM     45  H   UNL     1       6.675   6.927  17.280  0.00  0.00    +0.035 HD
ATOM     46  H   UNL     1       8.273   6.236  17.079  0.00  0.00    +0.035 HD
BRANCH  44  47
ATOM     47  C   UNL     1       6.689   5.219  16.054  0.00  0.00    +0.134 A 
ATOM     48  N   UNL     1       7.110   4.044  15.629  0.00  0.00    -0.135 NA
ATOM     49  N   UNL     1       6.368   3.693  14.526  0.00  0.00    -0.138 NA
ATOM     50  C   UNL     1       5.509   4.657  14.303  0.00  0.00    +0.120 A 
ATOM     51  N   UNL     1       5.670   5.635  15.235  0.00  0.00    -0.320 N 
ATOM     52  H   UNL     1       4.778   4.687  13.506  0.00  0.00    +0.105 HD
BRANCH  51  53
ATOM     53  C   UNL     1       4.915   6.855  15.319  0.00  0.00    +0.014 C 
ATOM     54  H   UNL     1       3.916   6.697  14.905  0.00  0.00    +0.046 HD
ATOM     55  H   UNL     1       5.433   7.627  14.745  0.00  0.00    +0.046 HD
ATOM     56  H   UNL     1       4.835   7.143  16.370  0.00  0.00    +0.046 HD
ENDBRANCH  51  53
ENDBRANCH  44  47
ENDBRANCH  38  44
ENDBRANCH   1  38
TORSDOF 8
ENDMDL
MODEL 4
REMARK VINA RESULT:    -8.084      4.209      8.868
REMARK INTER + INTRA:         -11.548
REMARK INTER:                 -10.367
REMARK INTRA:                  -1.181
REMARK UNBOUND:                -0.157
REMARK  Name = 
REMARK  8 active torsions:
REMARK  status: ('A' for Active; 'I' for Inactive)
REMARK    1  A    between atoms: C_1  and  C_2
REMARK    2  A    between atoms: C_2  and  C_3
REMARK    3  A    between atoms: C_2  and  C_10
REMARK    4  A    between atoms: C_3  and  C_4
REMARK    5  A    between atoms: N_8  and  C_9
REMARK    6  A    between atoms: N_13  and  C_14
REMARK    7  A    between atoms: C_18  and  N_19
REMARK    8  A    between atoms: C_26  and  C_27
REMARK                            x       y       z     vdW  Elec       q    Type
REMARK                         _______ _______ _______ _____ _____    ______ ____
ROOT
ATOM      1  C   UNL     1       0.241  12.764  19.927  0.00  0.00    -0.038 A 
ATOM      2  C   UNL     1      -0.694  12.865  18.894  0.00  0.00    -0.018 A 
ATOM      3  C   UNL     1      -1.009  11.741  18.136  0.00  0.00    +0.121 A 
ATOM      4  N   UNL     1      -1.944  11.890  17.080  0.00  0.00    -0.326 N 
ATOM      5  N   UNL     1      -0.409  10.553  18.348  0.00  0.00    -0.217 NA
ATOM      6  C   UNL     1       0.500  10.436  19.344  0.00  0.00    +0.130 A 
ATOM      7  C   UNL     1       0.843  11.518  20.146  0.00  0.00    -0.018 A 
ATOM      8  H   UNL     1      -1.170  13.812  18.665  0.00  0.00    +0.065 HD
ATOM      9  H   UNL     1      -2.754  12.392  17.437  0.00  0.00    +0.148 HD
ATOM     10  H   UNL     1       1.579  11.420  20.937  0.00  0.00    +0.065 HD
ENDROOT
BRANCH   6  11
ATOM     11  N   UNL     1       1.073   9.163  19.514  0.00  0.00    -0.248 N 
ATOM     12  C   UNL     1       2.071   8.696  18.566  0.00  0.00    +0.048 C 
ATOM     13  C   UNL     1       2.415   7.335  19.085  0.00  0.00    -0.006 A 
ATOM     14  C   UNL     1       1.666   7.071  20.230  0.00  0.00    +0.042 A 
ATOM     15  C   UNL     1       1.769   5.886  20.932  0.00  0.00    -0.049 A 
ATOM     16  C   UNL     1       2.667   4.931  20.452  0.00  0.00    -0.060 A 
ATOM     17  C   UNL     1       3.431   5.181  19.297  0.00  0.00    -0.050 A 
ATOM     18  C   UNL     1       3.315   6.395  18.591  0.00  0.00    +0.060 A 
ATOM     19  C   UNL     1       0.807   8.232  20.506  0.00  0.00    +0.253 C 
ATOM     20  O   UNL     1       0.040   8.265  21.449  0.00  0.00    -0.270 OA
ATOM     21  H   UNL     1       1.634   8.635  17.564  0.00  0.00    +0.052 HD
ATOM     22  H   UNL     1       2.944   9.356  18.589  0.00  0.00    +0.052 HD
ATOM     23  H   UNL     1       1.171   5.709  21.820  0.00  0.00    +0.063 HD
ATOM     24  H   UNL     1       2.777   3.984  20.977  0.00  0.00    +0.062 HD
ATOM     25  H   UNL     1       4.120   4.413  18.949  0.00  0.00    +0.062 HD
BRANCH  18  26
ATOM     26  C   UNL     1       4.123   6.671  17.351  0.00  0.00    +0.418 C 
ATOM     27  F   UNL     1       3.569   7.610  16.535  0.00  0.00    -0.166 F 
ATOM     28  F   UNL     1       4.291   5.560  16.585  0.00  0.00    -0.166 F 
ATOM     29  F   UNL     1       5.376   7.118  17.642  0.00  0.00    -0.166 F 
ENDBRANCH  18  26
ENDBRANCH   6  11
BRANCH   4  30
ATOM     30  C   UNL     1      -2.262  10.704  16.276  0.00  0.00    +0.022 C 
ATOM     31  C   UNL     1      -3.356  10.753  15.246  0.00  0.00    -0.033 C 
ATOM     32  C   UNL     1      -3.533   9.933  16.491  0.00  0.00    -0.033 C 
ATOM     33  H   UNL     1      -1.375  10.135  16.007  0.00  0.00    +0.050 HD
ATOM     34  H   UNL     1      -3.934  11.663  15.146  0.00  0.00    +0.028 HD
ATOM     35  H   UNL     1      -3.189  10.229  14.313  0.00  0.00    +0.028 HD
ATOM     36  H   UNL     1      -3.481   8.854  16.408  0.00  0.00    +0.028 HD
ATOM     37  H   UNL     1      -4.226  10.285  17.246  0.00  0.00    +0.028 HD
ENDBRANCH   4  30
BRANCH   1  38
ATOM     38  C   UNL     1       0.643  13.960  20.779  0.00  0.00    -0.012 C 
ATOM     39  H   UNL     1       0.201  14.862  20.330  0.00  0.00    +0.035 HD
BRANCH  38  40
ATOM     40  C   UNL     1       2.165  14.172  20.766  0.00  0.00    -0.058 C 
ATOM     41  H   UNL     1       2.553  14.293  19.749  0.00  0.00    +0.024 HD
ATOM     42  H   UNL     1       2.684  13.319  21.217  0.00  0.00    +0.024 HD
ATOM     43  H   UNL     1       2.441  15.064  21.340  0.00  0.00    +0.024 HD
ENDBRANCH  38  40
BRANCH  38  44
ATOM     44  C   UNL     1       0.086  13.798  22.209  0.00  0.00    +0.014 C 
ATOM     45  H   UNL     1       0.568  12.939  22.696  0.00  0.00    +0.035 HD
ATOM     46  H   UNL     1       0.348  14.672  22.816  0.00  0.00    +0.035 HD
BRANCH  44  47
ATOM     47  C   UNL     1      -1.385  13.557  22.226  0.00  0.00    +0.134 A 
ATOM     48  N   UNL     1      -2.319  14.418  21.873  0.00  0.00    -0.135 NA
ATOM     49  N   UNL     1      -3.544  13.815  22.032  0.00  0.00    -0.138 NA
ATOM     50  C   UNL     1      -3.333  12.599  22.474  0.00  0.00    +0.120 A 
ATOM     51  N   UNL     1      -1.996  12.391  22.610  0.00  0.00    -0.320 N 
ATOM     52  H   UNL     1      -4.093  11.863  22.701  0.00  0.00    +0.105 HD
BRANCH  51  53
ATOM     53  C   UNL     1      -1.372  11.181  23.073  0.00  0.00    +0.014 C 
ATOM     54  H   UNL     1      -1.894  10.814  23.960  0.00  0.00    +0.046 HD
ATOM     55  H   UNL     1      -0.331  11.399  23.323  0.00  0.00    +0.046 HD
ATOM     56  H   UNL     1      -1.429  10.433  22.278  0.00  0.00    +0.046 HD
ENDBRANCH  51  53
ENDBRANCH  44  47
ENDBRANCH  38  44
ENDBRANCH   1  38
TORSDOF 8
ENDMDL
MODEL 5
REMARK VINA RESULT:    -7.915      4.193      9.173
REMARK INTER + INTRA:         -11.311
REMARK INTER:                 -10.420
REMARK INTRA:                  -0.891
REMARK UNBOUND:                -0.157
REMARK  Name = 
REMARK  8 active torsions:
REMARK  status: ('A' for Active; 'I' for Inactive)
REMARK    1  A    between atoms: C_1  and  C_2
REMARK    2  A    between atoms: C_2  and  C_3
REMARK    3  A    between atoms: C_2  and  C_10
REMARK    4  A    between atoms: C_3  and  C_4
REMARK    5  A    between atoms: N_8  and  C_9
REMARK    6  A    between atoms: N_13  and  C_14
REMARK    7  A    between atoms: C_18  and  N_19
REMARK    8  A    between atoms: C_26  and  C_27
REMARK                            x       y       z     vdW  Elec       q    Type
REMARK                         _______ _______ _______ _____ _____    ______ ____
ROOT
ATOM      1  C   UNL     1      -0.736  11.513  21.099  0.00  0.00    -0.038 A 
ATOM      2  C   UNL     1      -1.620  11.897  20.087  0.00  0.00    -0.018 A 
ATOM      3  C   UNL     1      -1.544  11.290  18.838  0.00  0.00    +0.121 A 
ATOM      4  N   UNL     1      -2.441  11.726  17.830  0.00  0.00    -0.326 N 
ATOM      5  N   UNL     1      -0.612  10.357  18.559  0.00  0.00    -0.217 NA
ATOM      6  C   UNL     1       0.253   9.972  19.526  0.00  0.00    +0.130 A 
ATOM      7  C   UNL     1       0.215  10.529  20.799  0.00  0.00    -0.018 A 
ATOM      8  H   UNL     1      -2.358  12.673  20.259  0.00  0.00    +0.065 HD
ATOM      9  H   UNL     1      -3.379  11.751  18.223  0.00  0.00    +0.148 HD
ATOM     10  H   UNL     1       0.917  10.223  21.567  0.00  0.00    +0.065 HD
ENDROOT
BRANCH   6  11
ATOM     11  N   UNL     1       1.187   8.984  19.165  0.00  0.00    -0.248 N 
ATOM     12  C   UNL     1       1.187   7.710  19.865  0.00  0.00    +0.048 C 
ATOM     13  C   UNL     1       2.301   6.964  19.202  0.00  0.00    -0.006 A 
ATOM     14  C   UNL     1       2.873   7.763  18.214  0.00  0.00    +0.042 A 
ATOM     15  C   UNL     1       3.930   7.340  17.431  0.00  0.00    -0.049 A 
ATOM     16  C   UNL     1       4.426   6.056  17.661  0.00  0.00    -0.060 A 
ATOM     17  C   UNL     1       3.861   5.236  18.656  0.00  0.00    -0.050 A 
ATOM     18  C   UNL     1       2.784   5.681  19.447  0.00  0.00    +0.060 A 
ATOM     19  C   UNL     1       2.168   9.053  18.188  0.00  0.00    +0.253 C 
ATOM     20  O   UNL     1       2.470   9.946  17.419  0.00  0.00    -0.270 OA
ATOM     21  H   UNL     1       1.398   7.868  20.927  0.00  0.00    +0.052 HD
ATOM     22  H   UNL     1       0.229   7.202  19.712  0.00  0.00    +0.052 HD
ATOM     23  H   UNL     1       4.354   7.986  16.669  0.00  0.00    +0.063 HD
ATOM     24  H   UNL     1       5.258   5.686  17.066  0.00  0.00    +0.062 HD
ATOM     25  H   UNL     1       4.275   4.240  18.810  0.00  0.00    +0.062 HD
BRANCH  18  26
ATOM     26  C   UNL     1       2.175   4.815  20.517  0.00  0.00    +0.418 C 
ATOM     27  F   UNL     1       0.836   4.620  20.367  0.00  0.00    -0.166 F 
ATOM     28  F   UNL     1       2.341   5.338  21.762  0.00  0.00    -0.166 F 
ATOM     29  F   UNL     1       2.734   3.574  20.556  0.00  0.00    -0.166 F 
ENDBRANCH  18  26
ENDBRANCH   6  11
BRANCH   4  30
ATOM     30  C   UNL     1      -2.347  11.091  16.510  0.00  0.00    +0.022 C 
ATOM     31  C   UNL     1      -3.566  10.957  15.640  0.00  0.00    -0.033 C 
ATOM     32  C   UNL     1      -2.941   9.735  16.251  0.00  0.00    -0.033 C 
ATOM     33  H   UNL     1      -1.417  11.331  15.999  0.00  0.00    +0.050 HD
ATOM     34  H   UNL     1      -4.520  11.292  16.028  0.00  0.00    +0.028 HD
ATOM     35  H   UNL     1      -3.442  11.112  14.575  0.00  0.00    +0.028 HD
ATOM     36  H   UNL     1      -2.388   9.064  15.606  0.00  0.00    +0.028 HD
ATOM     37  H   UNL     1      -3.463   9.240  17.061  0.00  0.00    +0.028 HD
ENDBRANCH   4  30
BRANCH   1  38
ATOM     38  C   UNL     1      -0.755  12.152  22.481  0.00  0.00    -0.012 C 
ATOM     39  H   UNL     1       0.211  11.946  22.965  0.00  0.00    +0.035 HD
BRANCH  38  40
ATOM     40  C   UNL     1      -1.830  11.518  23.377  0.00  0.00    -0.058 C 
ATOM     41  H   UNL     1      -2.841  11.703  22.998  0.00  0.00    +0.024 HD
ATOM     42  H   UNL     1      -1.782  11.923  24.394  0.00  0.00    +0.024 HD
ATOM     43  H   UNL     1      -1.691  10.434  23.450  0.00  0.00    +0.024 HD
ENDBRANCH  38  40
BRANCH  38  44
ATOM     44  C   UNL     1      -0.926  13.680  22.351  0.00  0.00    +0.014 C 
ATOM     45  H   UNL     1       0.050  14.170  22.465  0.00  0.00    +0.035 HD
ATOM     46  H   UNL     1      -1.275  13.935  21.344  0.00  0.00    +0.035 HD
BRANCH  44  47
ATOM     47  C   UNL     1      -1.836  14.244  23.390  0.00  0.00    +0.134 A 
ATOM     48  N   UNL     1      -1.492  14.619  24.605  0.00  0.00    -0.135 NA
ATOM     49  N   UNL     1      -2.616  15.080  25.249  0.00  0.00    -0.138 NA
ATOM     50  C   UNL     1      -3.621  14.980  24.413  0.00  0.00    +0.120 A 
ATOM     51  N   UNL     1      -3.181  14.462  23.235  0.00  0.00    -0.320 N 
ATOM     52  H   UNL     1      -4.645  15.261  24.614  0.00  0.00    +0.105 HD
BRANCH  51  53
ATOM     53  C   UNL     1      -3.988  14.200  22.074  0.00  0.00    +0.014 C 
ATOM     54  H   UNL     1      -3.415  13.611  21.354  0.00  0.00    +0.046 HD
ATOM     55  H   UNL     1      -4.272  15.155  21.624  0.00  0.00    +0.046 HD
ATOM     56  H   UNL     1      -4.874  13.641  22.384  0.00  0.00    +0.046 HD
ENDBRANCH  51  53
ENDBRANCH  44  47
ENDBRANCH  38  44
ENDBRANCH   1  38
TORSDOF 8
ENDMDL
MODEL 6
REMARK VINA RESULT:    -7.900      4.470      7.990
REMARK INTER + INTRA:         -11.289
REMARK INTER:                 -10.260
REMARK INTRA:                  -1.029
REMARK UNBOUND:                -0.157
REMARK  Name = 
REMARK  8 active torsions:
REMARK  status: ('A' for Active; 'I' for Inactive)
REMARK    1  A    between atoms: C_1  and  C_2
REMARK    2  A    between atoms: C_2  and  C_3
REMARK    3  A    between atoms: C_2  and  C_10
REMARK    4  A    between atoms: C_3  and  C_4
REMARK    5  A    between atoms: N_8  and  C_9
REMARK    6  A    between atoms: N_13  and  C_14
REMARK    7  A    between atoms: C_18  and  N_19
REMARK    8  A    between atoms: C_26  and  C_27
REMARK                            x       y       z     vdW  Elec       q    Type
REMARK                         _______ _______ _______ _____ _____    ______ ____
ROOT
ATOM      1  C   UNL     1       0.720  12.925  19.385  0.00  0.00    -0.038 A 
ATOM      2  C   UNL     1      -0.404  12.974  18.556  0.00  0.00    -0.018 A 
ATOM      3  C   UNL     1      -0.918  11.797  18.021  0.00  0.00    +0.121 A 
ATOM      4  N   UNL     1      -2.044  11.892  17.164  0.00  0.00    -0.326 N 
ATOM      5  N   UNL     1      -0.341  10.602  18.253  0.00  0.00    -0.217 NA
ATOM      6  C   UNL     1       0.749  10.535  19.053  0.00  0.00    +0.130 A 
ATOM      7  C   UNL     1       1.299  11.673  19.630  0.00  0.00    -0.018 A 
ATOM      8  H   UNL     1      -0.874  13.921  18.312  0.00  0.00    +0.065 HD
ATOM      9  H   UNL     1      -2.740  12.484  17.611  0.00  0.00    +0.148 HD
ATOM     10  H   UNL     1       2.177  11.613  20.264  0.00  0.00    +0.065 HD
ENDROOT
BRANCH   6  11
ATOM     11  N   UNL     1       1.288   9.251  19.260  0.00  0.00    -0.248 N 
ATOM     12  C   UNL     1       2.289   8.740  18.339  0.00  0.00    +0.048 C 
ATOM     13  C   UNL     1       2.590   7.383  18.893  0.00  0.00    -0.006 A 
ATOM     14  C   UNL     1       1.816   7.163  20.031  0.00  0.00    +0.042 A 
ATOM     15  C   UNL     1       1.879   5.991  20.760  0.00  0.00    -0.049 A 
ATOM     16  C   UNL     1       2.761   5.004  20.316  0.00  0.00    -0.060 A 
ATOM     17  C   UNL     1       3.549   5.210  19.169  0.00  0.00    -0.050 A 
ATOM     18  C   UNL     1       3.474   6.410  18.435  0.00  0.00    +0.060 A 
ATOM     19  C   UNL     1       0.983   8.350  20.267  0.00  0.00    +0.253 C 
ATOM     20  O   UNL     1       0.201   8.423  21.197  0.00  0.00    -0.270 OA
ATOM     21  H   UNL     1       1.867   8.667  17.332  0.00  0.00    +0.052 HD
ATOM     22  H   UNL     1       3.178   9.379  18.362  0.00  0.00    +0.052 HD
ATOM     23  H   UNL     1       1.263   5.848  21.642  0.00  0.00    +0.063 HD
ATOM     24  H   UNL     1       2.839   4.067  20.863  0.00  0.00    +0.062 HD
ATOM     25  H   UNL     1       4.225   4.417  18.850  0.00  0.00    +0.062 HD
BRANCH  18  26
ATOM     26  C   UNL     1       4.309   6.639  17.203  0.00  0.00    +0.418 C 
ATOM     27  F   UNL     1       3.712   7.441  16.278  0.00  0.00    -0.166 F 
ATOM     28  F   UNL     1       4.608   5.480  16.557  0.00  0.00    -0.166 F 
ATOM     29  F   UNL     1       5.504   7.224  17.492  0.00  0.00    -0.166 F 
ENDBRANCH  18  26
ENDBRANCH   6  11
BRANCH   4  30
ATOM     30  C   UNL     1      -2.574  10.648  16.592  0.00  0.00    +0.022 C 
ATOM     31  C   UNL     1      -2.867  10.550  15.121  0.00  0.00    -0.033 C 
ATOM     32  C   UNL     1      -3.995  10.553  16.112  0.00  0.00    -0.033 C 
ATOM     33  H   UNL     1      -2.146   9.762  17.056  0.00  0.00    +0.050 HD
ATOM     34  H   UNL     1      -2.726  11.429  14.504  0.00  0.00    +0.028 HD
ATOM     35  H   UNL     1      -2.631   9.617  14.623  0.00  0.00    +0.028 HD
ATOM     36  H   UNL     1      -4.521   9.624  16.295  0.00  0.00    +0.028 HD
ATOM     37  H   UNL     1      -4.620  11.435  16.179  0.00  0.00    +0.028 HD
ENDBRANCH   4  30
BRANCH   1  38
ATOM     38  C   UNL     1       1.343  14.178  19.985  0.00  0.00    -0.012 C 
ATOM     39  H   UNL     1       1.764  13.913  20.967  0.00  0.00    +0.035 HD
BRANCH  38  40
ATOM     40  C   UNL     1       0.284  15.259  20.248  0.00  0.00    -0.058 C 
ATOM     41  H   UNL     1      -0.711  14.951  19.908  0.00  0.00    +0.024 HD
ATOM     42  H   UNL     1       0.535  16.190  19.727  0.00  0.00    +0.024 HD
ATOM     43  H   UNL     1       0.217  15.491  21.317  0.00  0.00    +0.024 HD
ENDBRANCH  38  40
BRANCH  38  44
ATOM     44  C   UNL     1       2.484  14.684  19.079  0.00  0.00    +0.014 C 
ATOM     45  H   UNL     1       2.645  13.972  18.258  0.00  0.00    +0.035 HD
ATOM     46  H   UNL     1       2.198  15.630  18.605  0.00  0.00    +0.035 HD
BRANCH  44  47
ATOM     47  C   UNL     1       3.776  14.824  19.811  0.00  0.00    +0.134 A 
ATOM     48  N   UNL     1       3.928  14.873  21.120  0.00  0.00    -0.135 NA
ATOM     49  N   UNL     1       5.268  15.006  21.394  0.00  0.00    -0.138 NA
ATOM     50  C   UNL     1       5.907  15.032  20.249  0.00  0.00    +0.120 A 
ATOM     51  N   UNL     1       5.014  14.919  19.229  0.00  0.00    -0.320 N 
ATOM     52  H   UNL     1       6.976  15.127  20.119  0.00  0.00    +0.105 HD
BRANCH  51  53
ATOM     53  C   UNL     1       5.331  14.911  17.826  0.00  0.00    +0.014 C 
ATOM     54  H   UNL     1       6.361  15.243  17.681  0.00  0.00    +0.046 HD
ATOM     55  H   UNL     1       4.649  15.592  17.311  0.00  0.00    +0.046 HD
ATOM     56  H   UNL     1       5.216  13.892  17.450  0.00  0.00    +0.046 HD
ENDBRANCH  51  53
ENDBRANCH  44  47
ENDBRANCH  38  44
ENDBRANCH   1  38
TORSDOF 8
ENDMDL
MODEL 7
REMARK VINA RESULT:    -7.823      3.343      7.960
REMARK INTER + INTRA:         -11.180
REMARK INTER:                  -9.787
REMARK INTRA:                  -1.394
REMARK UNBOUND:                -0.157
REMARK  Name = 
REMARK  8 active torsions:
REMARK  status: ('A' for Active; 'I' for Inactive)
REMARK    1  A    between atoms: C_1  and  C_2
REMARK    2  A    between atoms: C_2  and  C_3
REMARK    3  A    between atoms: C_2  and  C_10
REMARK    4  A    between atoms: C_3  and  C_4
REMARK    5  A    between atoms: N_8  and  C_9
REMARK    6  A    between atoms: N_13  and  C_14
REMARK    7  A    between atoms: C_18  and  N_19
REMARK    8  A    between atoms: C_26  and  C_27
REMARK                            x       y       z     vdW  Elec       q    Type
REMARK                         _______ _______ _______ _____ _____    ______ ____
ROOT
ATOM      1  C   UNL     1      -0.356  11.316  20.803  0.00  0.00    -0.038 A 
ATOM      2  C   UNL     1      -1.318  11.561  19.819  0.00  0.00    -0.018 A 
ATOM      3  C   UNL     1      -1.340  10.782  18.667  0.00  0.00    +0.121 A 
ATOM      4  N   UNL     1      -2.315  11.079  17.680  0.00  0.00    -0.326 N 
ATOM      5  N   UNL     1      -0.432   9.810  18.452  0.00  0.00    -0.217 NA
ATOM      6  C   UNL     1       0.507   9.558  19.393  0.00  0.00    +0.130 A 
ATOM      7  C   UNL     1       0.569  10.290  20.573  0.00  0.00    -0.018 A 
ATOM      8  H   UNL     1      -2.041  12.361  19.936  0.00  0.00    +0.065 HD
ATOM      9  H   UNL     1      -3.218  11.169  18.138  0.00  0.00    +0.148 HD
ATOM     10  H   UNL     1       1.330  10.089  21.320  0.00  0.00    +0.065 HD
ENDROOT
BRANCH   6  11
ATOM     11  N   UNL     1       1.411   8.519  19.105  0.00  0.00    -0.248 N 
ATOM     12  C   UNL     1       1.331   7.274  19.850  0.00  0.00    +0.048 C 
ATOM     13  C   UNL     1       2.437   6.458  19.258  0.00  0.00    -0.006 A 
ATOM     14  C   UNL     1       3.078   7.195  18.264  0.00  0.00    +0.042 A 
ATOM     15  C   UNL     1       4.144   6.700  17.538  0.00  0.00    -0.049 A 
ATOM     16  C   UNL     1       4.577   5.406  17.834  0.00  0.00    -0.060 A 
ATOM     17  C   UNL     1       3.941   4.648  18.835  0.00  0.00    -0.050 A 
ATOM     18  C   UNL     1       2.855   5.167  19.567  0.00  0.00    +0.060 A 
ATOM     19  C   UNL     1       2.430   8.511  18.164  0.00  0.00    +0.253 C 
ATOM     20  O   UNL     1       2.798   9.361  17.376  0.00  0.00    -0.270 OA
ATOM     21  H   UNL     1       1.509   7.463  20.913  0.00  0.00    +0.052 HD
ATOM     22  H   UNL     1       0.359   6.800  19.678  0.00  0.00    +0.052 HD
ATOM     23  H   UNL     1       4.623   7.298  16.770  0.00  0.00    +0.063 HD
ATOM     24  H   UNL     1       5.414   4.980  17.284  0.00  0.00    +0.062 HD
ATOM     25  H   UNL     1       4.306   3.643  19.041  0.00  0.00    +0.062 HD
BRANCH  18  26
ATOM     26  C   UNL     1       2.171   4.368  20.644  0.00  0.00    +0.418 C 
ATOM     27  F   UNL     1       0.826   4.250  20.467  0.00  0.00    -0.166 F 
ATOM     28  F   UNL     1       2.341   4.912  21.880  0.00  0.00    -0.166 F 
ATOM     29  F   UNL     1       2.652   3.096  20.727  0.00  0.00    -0.166 F 
ENDBRANCH  18  26
ENDBRANCH   6  11
BRANCH   4  30
ATOM     30  C   UNL     1      -2.324  10.263  16.461  0.00  0.00    +0.022 C 
ATOM     31  C   UNL     1      -2.927  10.796  15.191  0.00  0.00    -0.033 C 
ATOM     32  C   UNL     1      -3.598   9.671  15.926  0.00  0.00    -0.033 C 
ATOM     33  H   UNL     1      -1.417   9.672  16.350  0.00  0.00    +0.050 HD
ATOM     34  H   UNL     1      -3.397  11.772  15.210  0.00  0.00    +0.028 HD
ATOM     35  H   UNL     1      -2.423  10.565  14.260  0.00  0.00    +0.028 HD
ATOM     36  H   UNL     1      -3.545   8.676  15.502  0.00  0.00    +0.028 HD
ATOM     37  H   UNL     1      -4.521   9.879  16.454  0.00  0.00    +0.028 HD
ENDBRANCH   4  30
BRANCH   1  38
ATOM     38  C   UNL     1      -0.268  12.145  22.078  0.00  0.00    -0.012 C 
ATOM     39  H   UNL     1       0.638  11.838  22.622  0.00  0.00    +0.035 HD
BRANCH  38  40
ATOM     40  C   UNL     1      -1.452  11.861  23.015  0.00  0.00    -0.058 C 
ATOM     41  H   UNL     1      -2.257  12.593  22.892  0.00  0.00    +0.024 HD
ATOM     42  H   UNL     1      -1.137  11.891  24.064  0.00  0.00    +0.024 HD
ATOM     43  H   UNL     1      -1.870  10.865  22.827  0.00  0.00    +0.024 HD
ENDBRANCH  38  40
BRANCH  38  44
ATOM     44  C   UNL     1      -0.147  13.642  21.723  0.00  0.00    +0.014 C 
ATOM     45  H   UNL     1      -1.044  13.964  21.177  0.00  0.00    +0.035 HD
ATOM     46  H   UNL     1      -0.121  14.244  22.639  0.00  0.00    +0.035 HD
BRANCH  44  47
ATOM     47  C   UNL     1       1.034  13.931  20.860  0.00  0.00    +0.134 A 
ATOM     48  N   UNL     1       2.293  13.672  21.151  0.00  0.00    -0.135 NA
ATOM     49  N   UNL     1       3.074  14.090  20.099  0.00  0.00    -0.138 NA
ATOM     50  C   UNL     1       2.276  14.590  19.187  0.00  0.00    +0.120 A 
ATOM     51  N   UNL     1       0.988  14.512  19.618  0.00  0.00    -0.320 N 
ATOM     52  H   UNL     1       2.578  15.005  18.235  0.00  0.00    +0.105 HD
BRANCH  51  53
ATOM     53  C   UNL     1      -0.172  14.961  18.898  0.00  0.00    +0.014 C 
ATOM     54  H   UNL     1      -0.054  16.013  18.631  0.00  0.00    +0.046 HD
ATOM     55  H   UNL     1      -1.049  14.841  19.541  0.00  0.00    +0.046 HD
ATOM     56  H   UNL     1      -0.274  14.360  17.991  0.00  0.00    +0.046 HD
ENDBRANCH  51  53
ENDBRANCH  44  47
ENDBRANCH  38  44
ENDBRANCH   1  38
TORSDOF 8
ENDMDL
MODEL 8
REMARK VINA RESULT:    -7.738      1.495      4.629
REMARK INTER + INTRA:         -11.061
REMARK INTER:                  -9.917
REMARK INTRA:                  -1.144
REMARK UNBOUND:                -0.157
REMARK  Name = 
REMARK  8 active torsions:
REMARK  status: ('A' for Active; 'I' for Inactive)
REMARK    1  A    between atoms: C_1  and  C_2
REMARK    2  A    between atoms: C_2  and  C_3
REMARK    3  A    between atoms: C_2  and  C_10
REMARK    4  A    between atoms: C_3  and  C_4
REMARK    5  A    between atoms: N_8  and  C_9
REMARK    6  A    between atoms: N_13  and  C_14
REMARK    7  A    between atoms: C_18  and  N_19
REMARK    8  A    between atoms: C_26  and  C_27
REMARK                            x       y       z     vdW  Elec       q    Type
REMARK                         _______ _______ _______ _____ _____    ______ ____
ROOT
ATOM      1  C   UNL     1       2.698   4.647  17.723  0.00  0.00    -0.038 A 
ATOM      2  C   UNL     1       4.088   4.740  17.607  0.00  0.00    -0.018 A 
ATOM      3  C   UNL     1       4.730   5.928  17.943  0.00  0.00    +0.121 A 
ATOM      4  N   UNL     1       6.138   5.992  17.787  0.00  0.00    -0.326 N 
ATOM      5  N   UNL     1       4.043   7.014  18.348  0.00  0.00    -0.217 NA
ATOM      6  C   UNL     1       2.696   6.943  18.466  0.00  0.00    +0.130 A 
ATOM      7  C   UNL     1       2.000   5.779  18.162  0.00  0.00    -0.018 A 
ATOM      8  H   UNL     1       4.673   3.902  17.246  0.00  0.00    +0.065 HD
ATOM      9  H   UNL     1       6.546   5.163  18.214  0.00  0.00    +0.148 HD
ATOM     10  H   UNL     1       0.920   5.732  18.251  0.00  0.00    +0.065 HD
ENDROOT
BRANCH   6  11
ATOM     11  N   UNL     1       2.050   8.112  18.909  0.00  0.00    -0.248 N 
ATOM     12  C   UNL     1       1.400   8.121  20.209  0.00  0.00    +0.048 C 
ATOM     13  C   UNL     1       0.846   9.509  20.296  0.00  0.00    -0.006 A 
ATOM     14  C   UNL     1       1.165  10.210  19.135  0.00  0.00    +0.042 A 
ATOM     15  C   UNL     1       0.784  11.522  18.928  0.00  0.00    -0.049 A 
ATOM     16  C   UNL     1       0.050  12.145  19.939  0.00  0.00    -0.060 A 
ATOM     17  C   UNL     1      -0.281  11.451  21.117  0.00  0.00    -0.050 A 
ATOM     18  C   UNL     1       0.114  10.113  21.314  0.00  0.00    +0.060 A 
ATOM     19  C   UNL     1       1.930   9.324  18.246  0.00  0.00    +0.253 C 
ATOM     20  O   UNL     1       2.331   9.683  17.155  0.00  0.00    -0.270 OA
ATOM     21  H   UNL     1       0.598   7.377  20.230  0.00  0.00    +0.052 HD
ATOM     22  H   UNL     1       2.140   7.944  20.996  0.00  0.00    +0.052 HD
ATOM     23  H   UNL     1       1.047  12.042  18.013  0.00  0.00    +0.063 HD
ATOM     24  H   UNL     1      -0.269  13.178  19.814  0.00  0.00    +0.062 HD
ATOM     25  H   UNL     1      -0.857  11.967  21.884  0.00  0.00    +0.062 HD
BRANCH  18  26
ATOM     26  C   UNL     1      -0.239   9.358  22.568  0.00  0.00    +0.418 C 
ATOM     27  F   UNL     1      -0.864   8.171  22.335  0.00  0.00    -0.166 F 
ATOM     28  F   UNL     1      -1.068  10.066  23.382  0.00  0.00    -0.166 F 
ATOM     29  F   UNL     1       0.859   9.064  23.319  0.00  0.00    -0.166 F 
ENDBRANCH  18  26
ENDBRANCH   6  11
BRANCH   4  30
ATOM     30  C   UNL     1       6.808   7.252  18.130  0.00  0.00    +0.022 C 
ATOM     31  C   UNL     1       7.858   7.828  17.223  0.00  0.00    -0.033 C 
ATOM     32  C   UNL     1       8.246   7.278  18.565  0.00  0.00    -0.033 C 
ATOM     33  H   UNL     1       6.134   7.966  18.599  0.00  0.00    +0.050 HD
ATOM     34  H   UNL     1       8.144   7.270  16.340  0.00  0.00    +0.028 HD
ATOM     35  H   UNL     1       7.872   8.904  17.091  0.00  0.00    +0.028 HD
ATOM     36  H   UNL     1       8.517   7.977  19.348  0.00  0.00    +0.028 HD
ATOM     37  H   UNL     1       8.789   6.342  18.601  0.00  0.00    +0.028 HD
ENDBRANCH   4  30
BRANCH   1  38
ATOM     38  C   UNL     1       1.935   3.383  17.353  0.00  0.00    -0.012 C 
ATOM     39  H   UNL     1       2.132   3.164  16.293  0.00  0.00    +0.035 HD
BRANCH  38  40
ATOM     40  C   UNL     1       0.417   3.587  17.477  0.00  0.00    -0.058 C 
ATOM     41  H   UNL     1      -0.146   2.800  16.964  0.00  0.00    +0.024 HD
ATOM     42  H   UNL     1       0.113   4.545  17.042  0.00  0.00    +0.024 HD
ATOM     43  H   UNL     1       0.107   3.592  18.528  0.00  0.00    +0.024 HD
ENDBRANCH  38  40
BRANCH  38  44
ATOM     44  C   UNL     1       2.439   2.197  18.202  0.00  0.00    +0.014 C 
ATOM     45  H   UNL     1       1.890   1.287  17.924  0.00  0.00    +0.035 HD
ATOM     46  H   UNL     1       3.492   1.994  17.977  0.00  0.00    +0.035 HD
BRANCH  44  47
ATOM     47  C   UNL     1       2.237   2.415  19.664  0.00  0.00    +0.134 A 
ATOM     48  N   UNL     1       1.084   2.615  20.269  0.00  0.00    -0.135 NA
ATOM     49  N   UNL     1       1.324   2.773  21.614  0.00  0.00    -0.138 NA
ATOM     50  C   UNL     1       2.616   2.662  21.801  0.00  0.00    +0.120 A 
ATOM     51  N   UNL     1       3.231   2.436  20.609  0.00  0.00    -0.320 N 
ATOM     52  H   UNL     1       3.130   2.736  22.750  0.00  0.00    +0.105 HD
BRANCH  51  53
ATOM     53  C   UNL     1       4.643   2.263  20.406  0.00  0.00    +0.014 C 
ATOM     54  H   UNL     1       4.863   1.206  20.239  0.00  0.00    +0.046 HD
ATOM     55  H   UNL     1       5.169   2.611  21.298  0.00  0.00    +0.046 HD
ATOM     56  H   UNL     1       4.943   2.843  19.530  0.00  0.00    +0.046 HD
ENDBRANCH  51  53
ENDBRANCH  44  47
ENDBRANCH  38  44
ENDBRANCH   1  38
TORSDOF 8
ENDMDL
MODEL 9
REMARK VINA RESULT:    -7.669      4.171      8.855
REMARK INTER + INTRA:         -10.964
REMARK INTER:                 -10.041
REMARK INTRA:                  -0.923
REMARK UNBOUND:                -0.157
REMARK  Name = 
REMARK  8 active torsions:
REMARK  status: ('A' for Active; 'I' for Inactive)
REMARK    1  A    between atoms: C_1  and  C_2
REMARK    2  A    between atoms: C_2  and  C_3
REMARK    3  A    between atoms: C_2  and  C_10
REMARK    4  A    between atoms: C_3  and  C_4
REMARK    5  A    between atoms: N_8  and  C_9
REMARK    6  A    between atoms: N_13  and  C_14
REMARK    7  A    between atoms: C_18  and  N_19
REMARK    8  A    between atoms: C_26  and  C_27
REMARK                            x       y       z     vdW  Elec       q    Type
REMARK                         _______ _______ _______ _____ _____    ______ ____
ROOT
ATOM      1  C   UNL     1       0.223  12.643  19.610  0.00  0.00    -0.038 A 
ATOM      2  C   UNL     1      -0.777  12.658  18.634  0.00  0.00    -0.018 A 
ATOM      3  C   UNL     1      -1.085  11.489  17.945  0.00  0.00    +0.121 A 
ATOM      4  N   UNL     1      -2.088  11.551  16.944  0.00  0.00    -0.326 N 
ATOM      5  N   UNL     1      -0.420  10.339  18.169  0.00  0.00    -0.217 NA
ATOM      6  C   UNL     1       0.551  10.305  19.111  0.00  0.00    +0.130 A 
ATOM      7  C   UNL     1       0.893  11.435  19.844  0.00  0.00    -0.018 A 
ATOM      8  H   UNL     1      -1.307  13.573  18.395  0.00  0.00    +0.065 HD
ATOM      9  H   UNL     1      -2.897  12.033  17.328  0.00  0.00    +0.148 HD
ATOM     10  H   UNL     1       1.679  11.404  20.590  0.00  0.00    +0.065 HD
ENDROOT
BRANCH   6  11
ATOM     11  N   UNL     1       1.191   9.066  19.298  0.00  0.00    -0.248 N 
ATOM     12  C   UNL     1       2.196   8.629  18.343  0.00  0.00    +0.048 C 
ATOM     13  C   UNL     1       2.617   7.299  18.885  0.00  0.00    -0.006 A 
ATOM     14  C   UNL     1       1.899   7.023  20.048  0.00  0.00    +0.042 A 
ATOM     15  C   UNL     1       2.073   5.860  20.773  0.00  0.00    -0.049 A 
ATOM     16  C   UNL     1       3.011   4.941  20.299  0.00  0.00    -0.060 A 
ATOM     17  C   UNL     1       3.743   5.204  19.126  0.00  0.00    -0.050 A 
ATOM     18  C   UNL     1       3.555   6.394  18.397  0.00  0.00    +0.060 A 
ATOM     19  C   UNL     1       0.988   8.145  20.314  0.00  0.00    +0.253 C 
ATOM     20  O   UNL     1       0.234   8.161  21.269  0.00  0.00    -0.270 OA
ATOM     21  H   UNL     1       1.748   8.524  17.351  0.00  0.00    +0.052 HD
ATOM     22  H   UNL     1       3.035   9.333  18.338  0.00  0.00    +0.052 HD
ATOM     23  H   UNL     1       1.499   5.673  21.675  0.00  0.00    +0.063 HD
ATOM     24  H   UNL     1       3.177   4.013  20.842  0.00  0.00    +0.062 HD
ATOM     25  H   UNL     1       4.465   4.464  18.784  0.00  0.00    +0.062 HD
BRANCH  18  26
ATOM     26  C   UNL     1       4.329   6.684  17.138  0.00  0.00    +0.418 C 
ATOM     27  F   UNL     1       3.678   7.510  16.273  0.00  0.00    -0.166 F 
ATOM     28  F   UNL     1       4.614   5.554  16.435  0.00  0.00    -0.166 F 
ATOM     29  F   UNL     1       5.528   7.277  17.395  0.00  0.00    -0.166 F 
ENDBRANCH  18  26
ENDBRANCH   6  11
BRANCH   4  30
ATOM     30  C   UNL     1      -2.400  10.318  16.212  0.00  0.00    +0.022 C 
ATOM     31  C   UNL     1      -2.919  10.379  14.802  0.00  0.00    -0.033 C 
ATOM     32  C   UNL     1      -3.819   9.923  15.915  0.00  0.00    -0.033 C 
ATOM     33  H   UNL     1      -1.697   9.516  16.430  0.00  0.00    +0.050 HD
ATOM     34  H   UNL     1      -3.104  11.350  14.359  0.00  0.00    +0.028 HD
ATOM     35  H   UNL     1      -2.560   9.634  14.103  0.00  0.00    +0.028 HD
ATOM     36  H   UNL     1      -4.067   8.871  15.977  0.00  0.00    +0.028 HD
ATOM     37  H   UNL     1      -4.614  10.584  16.238  0.00  0.00    +0.028 HD
ENDBRANCH   4  30
BRANCH   1  38
ATOM     38  C   UNL     1       0.621  13.892  20.385  0.00  0.00    -0.012 C 
ATOM     39  H   UNL     1      -0.086  14.694  20.124  0.00  0.00    +0.035 HD
BRANCH  38  40
ATOM     40  C   UNL     1       2.013  14.392  19.967  0.00  0.00    -0.058 C 
ATOM     41  H   UNL     1       2.814  13.848  20.478  0.00  0.00    +0.024 HD
ATOM     42  H   UNL     1       2.135  15.455  20.201  0.00  0.00    +0.024 HD
ATOM     43  H   UNL     1       2.163  14.276  18.887  0.00  0.00    +0.024 HD
ENDBRANCH  38  40
BRANCH  38  44
ATOM     44  C   UNL     1       0.526  13.624  21.901  0.00  0.00    +0.014 C 
ATOM     45  H   UNL     1       1.241  12.838  22.180  0.00  0.00    +0.035 HD
ATOM     46  H   UNL     1       0.827  14.516  22.461  0.00  0.00    +0.035 HD
BRANCH  44  47
ATOM     47  C   UNL     1      -0.831  13.165  22.316  0.00  0.00    +0.134 A 
ATOM     48  N   UNL     1      -1.136  11.980  22.806  0.00  0.00    -0.135 NA
ATOM     49  N   UNL     1      -2.487  11.953  23.061  0.00  0.00    -0.138 NA
ATOM     50  C   UNL     1      -2.977  13.122  22.725  0.00  0.00    +0.120 A 
ATOM     51  N   UNL     1      -1.978  13.915  22.254  0.00  0.00    -0.320 N 
ATOM     52  H   UNL     1      -4.012  13.424  22.804  0.00  0.00    +0.105 HD
BRANCH  51  53
ATOM     53  C   UNL     1      -2.121  15.267  21.786  0.00  0.00    +0.014 C 
ATOM     54  H   UNL     1      -3.086  15.381  21.286  0.00  0.00    +0.046 HD
ATOM     55  H   UNL     1      -1.314  15.479  21.080  0.00  0.00    +0.046 HD
ATOM     56  H   UNL     1      -2.070  15.941  22.644  0.00  0.00    +0.046 HD
ENDBRANCH  51  53
ENDBRANCH  44  47
ENDBRANCH  38  44
ENDBRANCH   1  38
TORSDOF 8
ENDMDL
MODEL 10
REMARK VINA RESULT:    -7.581      2.258      2.745
REMARK INTER + INTRA:         -10.840
REMARK INTER:                 -11.146
REMARK INTRA:                   0.306
REMARK UNBOUND:                -0.157
REMARK  Name = 
REMARK  8 active torsions:
REMARK  status: ('A' for Active; 'I' for Inactive)
REMARK    1  A    between atoms: C_1  and  C_2
REMARK    2  A    between atoms: C_2  and  C_3
REMARK    3  A    between atoms: C_2  and  C_10
REMARK    4  A    between atoms: C_3  and  C_4
REMARK    5  A    between atoms: N_8  and  C_9
REMARK    6  A    between atoms: N_13  and  C_14
REMARK    7  A    between atoms: C_18  and  N_19
REMARK    8  A    between atoms: C_26  and  C_27
REMARK                            x       y       z     vdW  Elec       q    Type
REMARK                         _______ _______ _______ _____ _____    ______ ____
ROOT
ATOM      1  C   UNL     1       4.672   5.201  16.787  0.00  0.00    -0.038 A 
ATOM      2  C   UNL     1       4.284   3.889  17.074  0.00  0.00    -0.018 A 
ATOM      3  C   UNL     1       3.286   3.655  18.015  0.00  0.00    +0.121 A 
ATOM      4  N   UNL     1       2.939   2.310  18.297  0.00  0.00    -0.326 N 
ATOM      5  N   UNL     1       2.699   4.663  18.689  0.00  0.00    -0.217 NA
ATOM      6  C   UNL     1       3.061   5.940  18.424  0.00  0.00    +0.130 A 
ATOM      7  C   UNL     1       4.039   6.238  17.483  0.00  0.00    -0.018 A 
ATOM      8  H   UNL     1       4.761   3.048  16.583  0.00  0.00    +0.065 HD
ATOM      9  H   UNL     1       2.802   1.821  17.416  0.00  0.00    +0.148 HD
ATOM     10  H   UNL     1       4.331   7.263  17.282  0.00  0.00    +0.065 HD
ENDROOT
BRANCH   6  11
ATOM     11  N   UNL     1       2.394   6.939  19.157  0.00  0.00    -0.248 N 
ATOM     12  C   UNL     1       2.266   8.273  18.595  0.00  0.00    +0.048 C 
ATOM     13  C   UNL     1       1.517   9.013  19.659  0.00  0.00    -0.006 A 
ATOM     14  C   UNL     1       1.253   8.155  20.724  0.00  0.00    +0.042 A 
ATOM     15  C   UNL     1       0.573   8.560  21.857  0.00  0.00    -0.049 A 
ATOM     16  C   UNL     1       0.147   9.888  21.911  0.00  0.00    -0.060 A 
ATOM     17  C   UNL     1       0.406  10.768  20.843  0.00  0.00    -0.050 A 
ATOM     18  C   UNL     1       1.101  10.341  19.695  0.00  0.00    +0.060 A 
ATOM     19  C   UNL     1       1.811   6.832  20.411  0.00  0.00    +0.253 C 
ATOM     20  O   UNL     1       1.729   5.891  21.178  0.00  0.00    -0.270 OA
ATOM     21  H   UNL     1       3.258   8.708  18.439  0.00  0.00    +0.052 HD
ATOM     22  H   UNL     1       1.688   8.232  17.666  0.00  0.00    +0.052 HD
ATOM     23  H   UNL     1       0.383   7.869  22.672  0.00  0.00    +0.063 HD
ATOM     24  H   UNL     1      -0.391  10.246  22.786  0.00  0.00    +0.062 HD
ATOM     25  H   UNL     1       0.061  11.799  20.920  0.00  0.00    +0.062 HD
BRANCH  18  26
ATOM     26  C   UNL     1       1.389  11.275  18.549  0.00  0.00    +0.418 C 
ATOM     27  F   UNL     1       2.333  12.215  18.833  0.00  0.00    -0.166 F 
ATOM     28  F   UNL     1       0.284  11.962  18.151  0.00  0.00    -0.166 F 
ATOM     29  F   UNL     1       1.835  10.614  17.445  0.00  0.00    -0.166 F 
ENDBRANCH  18  26
ENDBRANCH   6  11
BRANCH   4  30
ATOM     30  C   UNL     1       1.895   2.069  19.300  0.00  0.00    +0.022 C 
ATOM     31  C   UNL     1       0.474   1.826  18.877  0.00  0.00    -0.033 C 
ATOM     32  C   UNL     1       0.838   3.097  19.589  0.00  0.00    -0.033 C 
ATOM     33  H   UNL     1       2.254   1.476  20.139  0.00  0.00    +0.050 HD
ATOM     34  H   UNL     1       0.229   1.883  17.823  0.00  0.00    +0.028 HD
ATOM     35  H   UNL     1      -0.093   1.082  19.424  0.00  0.00    +0.028 HD
ATOM     36  H   UNL     1       0.528   3.215  20.620  0.00  0.00    +0.028 HD
ATOM     37  H   UNL     1       0.851   4.020  19.023  0.00  0.00    +0.028 HD
ENDBRANCH   4  30
BRANCH   1  38
ATOM     38  C   UNL     1       5.771   5.522  15.782  0.00  0.00    -0.012 C 
ATOM     39  H   UNL     1       5.652   6.571  15.472  0.00  0.00    +0.035 HD
BRANCH  38  40
ATOM     40  C   UNL     1       5.630   4.676  14.508  0.00  0.00    -0.058 C 
ATOM     41  H   UNL     1       6.603   4.430  14.069  0.00  0.00    +0.024 HD
ATOM     42  H   UNL     1       5.050   5.209  13.745  0.00  0.00    +0.024 HD
ATOM     43  H   UNL     1       5.107   3.736  14.717  0.00  0.00    +0.024 HD
ENDBRANCH  38  40
BRANCH  38  44
ATOM     44  C   UNL     1       7.154   5.357  16.446  0.00  0.00    +0.014 C 
ATOM     45  H   UNL     1       7.128   4.508  17.143  0.00  0.00    +0.035 HD
ATOM     46  H   UNL     1       7.905   5.101  15.690  0.00  0.00    +0.035 HD
BRANCH  44  47
ATOM     47  C   UNL     1       7.564   6.563  17.221  0.00  0.00    +0.134 A 
ATOM     48  N   UNL     1       7.622   7.798  16.764  0.00  0.00    -0.135 NA
ATOM     49  N   UNL     1       8.045   8.616  17.786  0.00  0.00    -0.138 NA
ATOM     50  C   UNL     1       8.232   7.864  18.843  0.00  0.00    +0.120 A 
ATOM     51  N   UNL     1       7.943   6.571  18.539  0.00  0.00    -0.320 N 
ATOM     52  H   UNL     1       8.565   8.204  19.815  0.00  0.00    +0.105 HD
BRANCH  51  53
ATOM     53  C   UNL     1       8.030   5.451  19.436  0.00  0.00    +0.014 C 
ATOM     54  H   UNL     1       8.930   4.873  19.216  0.00  0.00    +0.046 HD
ATOM     55  H   UNL     1       7.146   4.823  19.297  0.00  0.00    +0.046 HD
ATOM     56  H   UNL     1       8.077   5.829  20.461  0.00  0.00    +0.046 HD
ENDBRANCH  51  53
ENDBRANCH  44  47
ENDBRANCH  38  44
ENDBRANCH   1  38
TORSDOF 8
ENDMDL
MODEL 11
REMARK VINA RESULT:    -7.482      2.457      3.058
REMARK INTER + INTRA:         -10.701
REMARK INTER:                 -10.657
REMARK INTRA:                  -0.043
REMARK UNBOUND:                -0.157
REMARK  Name = 
REMARK  8 active torsions:
REMARK  status: ('A' for Active; 'I' for Inactive)
REMARK    1  A    between atoms: C_1  and  C_2
REMARK    2  A    between atoms: C_2  and  C_3
REMARK    3  A    between atoms: C_2  and  C_10
REMARK    4  A    between atoms: C_3  and  C_4
REMARK    5  A    between atoms: N_8  and  C_9
REMARK    6  A    between atoms: N_13  and  C_14
REMARK    7  A    between atoms: C_18  and  N_19
REMARK    8  A    between atoms: C_26  and  C_27
REMARK                            x       y       z     vdW  Elec       q    Type
REMARK                         _______ _______ _______ _____ _____    ______ ____
ROOT
ATOM      1  C   UNL     1       3.870   7.185  17.683  0.00  0.00    -0.038 A 
ATOM      2  C   UNL     1       3.818   5.907  18.246  0.00  0.00    -0.018 A 
ATOM      3  C   UNL     1       2.918   5.642  19.274  0.00  0.00    +0.121 A 
ATOM      4  N   UNL     1       2.914   4.341  19.837  0.00  0.00    -0.326 N 
ATOM      5  N   UNL     1       2.109   6.599  19.770  0.00  0.00    -0.217 NA
ATOM      6  C   UNL     1       2.145   7.843  19.237  0.00  0.00    +0.130 A 
ATOM      7  C   UNL     1       3.011   8.163  18.198  0.00  0.00    -0.018 A 
ATOM      8  H   UNL     1       4.481   5.120  17.903  0.00  0.00    +0.065 HD
ATOM      9  H   UNL     1       2.891   3.663  19.079  0.00  0.00    +0.148 HD
ATOM     10  H   UNL     1       3.041   9.164  17.781  0.00  0.00    +0.065 HD
ENDROOT
BRANCH   6  11
ATOM     11  N   UNL     1       1.261   8.783  19.797  0.00  0.00    -0.248 N 
ATOM     12  C   UNL     1       0.399   9.562  18.924  0.00  0.00    +0.048 C 
ATOM     13  C   UNL     1      -0.360  10.423  19.885  0.00  0.00    -0.006 A 
ATOM     14  C   UNL     1       0.052  10.141  21.186  0.00  0.00    +0.042 A 
ATOM     15  C   UNL     1      -0.475  10.784  22.290  0.00  0.00    -0.049 A 
ATOM     16  C   UNL     1      -1.456  11.750  22.064  0.00  0.00    -0.060 A 
ATOM     17  C   UNL     1      -1.882  12.047  20.756  0.00  0.00    -0.050 A 
ATOM     18  C   UNL     1      -1.336  11.384  19.640  0.00  0.00    +0.060 A 
ATOM     19  C   UNL     1       1.087   9.099  21.136  0.00  0.00    +0.253 C 
ATOM     20  O   UNL     1       1.628   8.668  22.136  0.00  0.00    -0.270 OA
ATOM     21  H   UNL     1       1.006  10.171  18.247  0.00  0.00    +0.052 HD
ATOM     22  H   UNL     1      -0.277   8.896  18.377  0.00  0.00    +0.052 HD
ATOM     23  H   UNL     1      -0.133  10.543  23.292  0.00  0.00    +0.063 HD
ATOM     24  H   UNL     1      -1.895  12.279  22.908  0.00  0.00    +0.062 HD
ATOM     25  H   UNL     1      -2.648  12.809  20.617  0.00  0.00    +0.062 HD
BRANCH  18  26
ATOM     26  C   UNL     1      -1.781  11.697  18.236  0.00  0.00    +0.418 C 
ATOM     27  F   UNL     1      -3.068  12.134  18.154  0.00  0.00    -0.166 F 
ATOM     28  F   UNL     1      -1.698  10.616  17.414  0.00  0.00    -0.166 F 
ATOM     29  F   UNL     1      -1.018  12.665  17.657  0.00  0.00    -0.166 F 
ENDBRANCH  18  26
ENDBRANCH   6  11
BRANCH   4  30
ATOM     30  C   UNL     1       1.971   4.072  20.929  0.00  0.00    +0.022 C 
ATOM     31  C   UNL     1       2.041   2.781  21.696  0.00  0.00    -0.033 C 
ATOM     32  C   UNL     1       0.878   3.050  20.784  0.00  0.00    -0.033 C 
ATOM     33  H   UNL     1       1.743   4.963  21.510  0.00  0.00    +0.050 HD
ATOM     34  H   UNL     1       2.767   2.036  21.393  0.00  0.00    +0.028 HD
ATOM     35  H   UNL     1       1.868   2.822  22.764  0.00  0.00    +0.028 HD
ATOM     36  H   UNL     1      -0.082   3.281  21.229  0.00  0.00    +0.028 HD
ATOM     37  H   UNL     1       0.813   2.497  19.855  0.00  0.00    +0.028 HD
ENDBRANCH   4  30
BRANCH   1  38
ATOM     38  C   UNL     1       4.846   7.543  16.570  0.00  0.00    -0.012 C 
ATOM     39  H   UNL     1       4.622   8.567  16.237  0.00  0.00    +0.035 HD
BRANCH  38  40
ATOM     40  C   UNL     1       4.654   6.639  15.343  0.00  0.00    -0.058 C 
ATOM     41  H   UNL     1       3.733   6.049  15.408  0.00  0.00    +0.024 HD
ATOM     42  H   UNL     1       5.488   5.935  15.240  0.00  0.00    +0.024 HD
ATOM     43  H   UNL     1       4.610   7.231  14.422  0.00  0.00    +0.024 HD
ENDBRANCH  38  40
BRANCH  38  44
ATOM     44  C   UNL     1       6.292   7.503  17.107  0.00  0.00    +0.014 C 
ATOM     45  H   UNL     1       6.926   8.169  16.504  0.00  0.00    +0.035 HD
ATOM     46  H   UNL     1       6.326   7.900  18.128  0.00  0.00    +0.035 HD
BRANCH  44  47
ATOM     47  C   UNL     1       6.888   6.138  17.045  0.00  0.00    +0.134 A 
ATOM     48  N   UNL     1       6.996   5.384  15.969  0.00  0.00    -0.135 NA
ATOM     49  N   UNL     1       7.598   4.201  16.330  0.00  0.00    -0.138 NA
ATOM     50  C   UNL     1       7.848   4.260  17.616  0.00  0.00    +0.120 A 
ATOM     51  N   UNL     1       7.422   5.454  18.107  0.00  0.00    -0.320 N 
ATOM     52  H   UNL     1       8.318   3.487  18.208  0.00  0.00    +0.105 HD
BRANCH  51  53
ATOM     53  C   UNL     1       7.518   5.888  19.475  0.00  0.00    +0.014 C 
ATOM     54  H   UNL     1       6.576   6.349  19.780  0.00  0.00    +0.046 HD
ATOM     55  H   UNL     1       8.328   6.618  19.553  0.00  0.00    +0.046 HD
ATOM     56  H   UNL     1       7.721   5.017  20.103  0.00  0.00    +0.046 HD
ENDBRANCH  51  53
ENDBRANCH  44  47
ENDBRANCH  38  44
ENDBRANCH   1  38
TORSDOF 8
ENDMDL
MODEL 12
REMARK VINA RESULT:    -7.423      3.126      6.130
REMARK INTER + INTRA:         -10.617
REMARK INTER:                  -9.827
REMARK INTRA:                  -0.791
REMARK UNBOUND:                -0.157
REMARK  Name = 
REMARK  8 active torsions:
REMARK  status: ('A' for Active; 'I' for Inactive)
REMARK    1  A    between atoms: C_1  and  C_2
REMARK    2  A    between atoms: C_2  and  C_3
REMARK    3  A    between atoms: C_2  and  C_10
REMARK    4  A    between atoms: C_3  and  C_4
REMARK    5  A    between atoms: N_8  and  C_9
REMARK    6  A    between atoms: N_13  and  C_14
REMARK    7  A    between atoms: C_18  and  N_19
REMARK    8  A    between atoms: C_26  and  C_27
REMARK                            x       y       z     vdW  Elec       q    Type
REMARK                         _______ _______ _______ _____ _____    ______ ____
ROOT
ATOM      1  C   UNL     1       1.853   9.347  18.396  0.00  0.00    -0.038 A 
ATOM      2  C   UNL     1       2.744  10.349  18.001  0.00  0.00    -0.018 A 
ATOM      3  C   UNL     1       2.381  11.686  18.136  0.00  0.00    +0.121 A 
ATOM      4  N   UNL     1       3.302  12.673  17.700  0.00  0.00    -0.326 N 
ATOM      5  N   UNL     1       1.172  12.048  18.608  0.00  0.00    -0.217 NA
ATOM      6  C   UNL     1       0.296  11.091  18.995  0.00  0.00    +0.130 A 
ATOM      7  C   UNL     1       0.608   9.739  18.901  0.00  0.00    -0.018 A 
ATOM      8  H   UNL     1       3.710  10.099  17.578  0.00  0.00    +0.065 HD
ATOM      9  H   UNL     1       4.217  12.450  18.083  0.00  0.00    +0.148 HD
ATOM     10  H   UNL     1      -0.102   8.978  19.205  0.00  0.00    +0.065 HD
ENDROOT
BRANCH   6  11
ATOM     11  N   UNL     1      -0.939  11.545  19.492  0.00  0.00    -0.248 N 
ATOM     12  C   UNL     1      -1.121  11.698  20.925  0.00  0.00    +0.048 C 
ATOM     13  C   UNL     1      -2.532  12.184  21.033  0.00  0.00    -0.006 A 
ATOM     14  C   UNL     1      -3.086  12.291  19.759  0.00  0.00    +0.042 A 
ATOM     15  C   UNL     1      -4.382  12.717  19.543  0.00  0.00    -0.049 A 
ATOM     16  C   UNL     1      -5.147  13.046  20.663  0.00  0.00    -0.060 A 
ATOM     17  C   UNL     1      -4.603  12.942  21.958  0.00  0.00    -0.050 A 
ATOM     18  C   UNL     1      -3.280  12.506  22.163  0.00  0.00    +0.060 A 
ATOM     19  C   UNL     1      -2.075  11.883  18.773  0.00  0.00    +0.253 C 
ATOM     20  O   UNL     1      -2.298  11.874  17.577  0.00  0.00    -0.270 OA
ATOM     21  H   UNL     1      -1.001  10.730  21.422  0.00  0.00    +0.052 HD
ATOM     22  H   UNL     1      -0.419  12.443  21.313  0.00  0.00    +0.052 HD
ATOM     23  H   UNL     1      -4.786  12.790  18.538  0.00  0.00    +0.063 HD
ATOM     24  H   UNL     1      -6.172  13.385  20.535  0.00  0.00    +0.062 HD
ATOM     25  H   UNL     1      -5.229  13.205  22.810  0.00  0.00    +0.062 HD
BRANCH  18  26
ATOM     26  C   UNL     1      -2.689  12.386  23.543  0.00  0.00    +0.418 C 
ATOM     27  F   UNL     1      -3.595  12.566  24.544  0.00  0.00    -0.166 F 
ATOM     28  F   UNL     1      -1.701  13.295  23.764  0.00  0.00    -0.166 F 
ATOM     29  F   UNL     1      -2.127  11.165  23.759  0.00  0.00    -0.166 F 
ENDBRANCH  18  26
ENDBRANCH   6  11
BRANCH   4  30
ATOM     30  C   UNL     1       2.908  14.081  17.832  0.00  0.00    +0.022 C 
ATOM     31  C   UNL     1       3.939  15.171  17.746  0.00  0.00    -0.033 C 
ATOM     32  C   UNL     1       3.263  14.879  19.054  0.00  0.00    -0.033 C 
ATOM     33  H   UNL     1       1.948  14.289  17.364  0.00  0.00    +0.050 HD
ATOM     34  H   UNL     1       4.980  14.894  17.635  0.00  0.00    +0.028 HD
ATOM     35  H   UNL     1       3.665  16.081  17.225  0.00  0.00    +0.028 HD
ATOM     36  H   UNL     1       2.525  15.583  19.421  0.00  0.00    +0.028 HD
ATOM     37  H   UNL     1       3.837  14.395  19.835  0.00  0.00    +0.028 HD
ENDBRANCH   4  30
BRANCH   1  38
ATOM     38  C   UNL     1       2.182   7.867  18.256  0.00  0.00    -0.012 C 
ATOM     39  H   UNL     1       1.339   7.377  17.747  0.00  0.00    +0.035 HD
BRANCH  38  40
ATOM     40  C   UNL     1       2.311   7.189  19.629  0.00  0.00    -0.058 C 
ATOM     41  H   UNL     1       1.390   6.673  19.920  0.00  0.00    +0.024 HD
ATOM     42  H   UNL     1       2.536   7.924  20.410  0.00  0.00    +0.024 HD
ATOM     43  H   UNL     1       3.124   6.454  19.629  0.00  0.00    +0.024 HD
ENDBRANCH  38  40
BRANCH  38  44
ATOM     44  C   UNL     1       3.449   7.689  17.393  0.00  0.00    +0.014 C 
ATOM     45  H   UNL     1       3.212   7.906  16.343  0.00  0.00    +0.035 HD
ATOM     46  H   UNL     1       4.210   8.421  17.686  0.00  0.00    +0.035 HD
BRANCH  44  47
ATOM     47  C   UNL     1       3.992   6.302  17.454  0.00  0.00    +0.134 A 
ATOM     48  N   UNL     1       3.285   5.191  17.515  0.00  0.00    -0.135 NA
ATOM     49  N   UNL     1       4.155   4.127  17.558  0.00  0.00    -0.138 NA
ATOM     50  C   UNL     1       5.373   4.610  17.519  0.00  0.00    +0.120 A 
ATOM     51  N   UNL     1       5.322   5.967  17.453  0.00  0.00    -0.320 N 
ATOM     52  H   UNL     1       6.288   4.032  17.536  0.00  0.00    +0.105 HD
BRANCH  51  53
ATOM     53  C   UNL     1       6.453   6.854  17.398  0.00  0.00    +0.014 C 
ATOM     54  H   UNL     1       6.892   6.827  16.398  0.00  0.00    +0.046 HD
ATOM     55  H   UNL     1       7.191   6.522  18.133  0.00  0.00    +0.046 HD
ATOM     56  H   UNL     1       6.112   7.867  17.624  0.00  0.00    +0.046 HD
ENDBRANCH  51  53
ENDBRANCH  44  47
ENDBRANCH  38  44
ENDBRANCH   1  38
TORSDOF 8
ENDMDL
MODEL 13
REMARK VINA RESULT:    -7.361      3.323      6.203
REMARK INTER + INTRA:         -10.530
REMARK INTER:                  -9.475
REMARK INTRA:                  -1.055
REMARK UNBOUND:                -0.157
REMARK  Name = 
REMARK  8 active torsions:
REMARK  status: ('A' for Active; 'I' for Inactive)
REMARK    1  A    between atoms: C_1  and  C_2
REMARK    2  A    between atoms: C_2  and  C_3
REMARK    3  A    between atoms: C_2  and  C_10
REMARK    4  A    between atoms: C_3  and  C_4
REMARK    5  A    between atoms: N_8  and  C_9
REMARK    6  A    between atoms: N_13  and  C_14
REMARK    7  A    between atoms: C_18  and  N_19
REMARK    8  A    between atoms: C_26  and  C_27
REMARK                            x       y       z     vdW  Elec       q    Type
REMARK                         _______ _______ _______ _____ _____    ______ ____
ROOT
ATOM      1  C   UNL     1       1.184   9.236  18.732  0.00  0.00    -0.038 A 
ATOM      2  C   UNL     1       0.256   9.222  17.687  0.00  0.00    -0.018 A 
ATOM      3  C   UNL     1      -0.810  10.116  17.699  0.00  0.00    +0.121 A 
ATOM      4  N   UNL     1      -1.745  10.053  16.635  0.00  0.00    -0.326 N 
ATOM      5  N   UNL     1      -0.995  10.983  18.714  0.00  0.00    -0.217 NA
ATOM      6  C   UNL     1      -0.107  11.012  19.735  0.00  0.00    +0.130 A 
ATOM      7  C   UNL     1       0.987  10.155  19.771  0.00  0.00    -0.018 A 
ATOM      8  H   UNL     1       0.347   8.512  16.872  0.00  0.00    +0.065 HD
ATOM      9  H   UNL     1      -1.231  10.029  15.757  0.00  0.00    +0.148 HD
ATOM     10  H   UNL     1       1.690  10.177  20.596  0.00  0.00    +0.065 HD
ENDROOT
BRANCH   6  11
ATOM     11  N   UNL     1      -0.359  11.953  20.750  0.00  0.00    -0.248 N 
ATOM     12  C   UNL     1      -1.545  11.811  21.577  0.00  0.00    +0.048 C 
ATOM     13  C   UNL     1      -1.448  12.981  22.505  0.00  0.00    -0.006 A 
ATOM     14  C   UNL     1      -0.298  13.711  22.213  0.00  0.00    +0.042 A 
ATOM     15  C   UNL     1       0.059  14.851  22.907  0.00  0.00    -0.049 A 
ATOM     16  C   UNL     1      -0.787  15.267  23.937  0.00  0.00    -0.060 A 
ATOM     17  C   UNL     1      -1.953  14.541  24.245  0.00  0.00    -0.050 A 
ATOM     18  C   UNL     1      -2.303  13.380  23.528  0.00  0.00    +0.060 A 
ATOM     19  C   UNL     1       0.399  13.062  21.093  0.00  0.00    +0.253 C 
ATOM     20  O   UNL     1       1.434  13.499  20.628  0.00  0.00    -0.270 OA
ATOM     21  H   UNL     1      -2.444  11.877  20.956  0.00  0.00    +0.052 HD
ATOM     22  H   UNL     1      -1.503  10.867  22.131  0.00  0.00    +0.052 HD
ATOM     23  H   UNL     1       0.960  15.400  22.656  0.00  0.00    +0.063 HD
ATOM     24  H   UNL     1      -0.542  16.160  24.508  0.00  0.00    +0.062 HD
ATOM     25  H   UNL     1      -2.591  14.895  25.054  0.00  0.00    +0.062 HD
BRANCH  18  26
ATOM     26  C   UNL     1      -3.551  12.599  23.845  0.00  0.00    +0.418 C 
ATOM     27  F   UNL     1      -3.315  11.295  24.161  0.00  0.00    -0.166 F 
ATOM     28  F   UNL     1      -4.427  12.579  22.804  0.00  0.00    -0.166 F 
ATOM     29  F   UNL     1      -4.234  13.124  24.899  0.00  0.00    -0.166 F 
ENDBRANCH  18  26
ENDBRANCH   6  11
BRANCH   4  30
ATOM     30  C   UNL     1      -2.874  10.990  16.659  0.00  0.00    +0.022 C 
ATOM     31  C   UNL     1      -4.233  10.535  17.110  0.00  0.00    -0.033 C 
ATOM     32  C   UNL     1      -3.999  10.885  15.669  0.00  0.00    -0.033 C 
ATOM     33  H   UNL     1      -2.576  11.991  16.968  0.00  0.00    +0.050 HD
ATOM     34  H   UNL     1      -4.372   9.492  17.367  0.00  0.00    +0.028 HD
ATOM     35  H   UNL     1      -4.819  11.220  17.711  0.00  0.00    +0.028 HD
ATOM     36  H   UNL     1      -4.417  11.809  15.290  0.00  0.00    +0.028 HD
ATOM     37  H   UNL     1      -3.969  10.082  14.942  0.00  0.00    +0.028 HD
ENDBRANCH   4  30
BRANCH   1  38
ATOM     38  C   UNL     1       2.360   8.270  18.787  0.00  0.00    -0.012 C 
ATOM     39  H   UNL     1       3.145   8.725  19.410  0.00  0.00    +0.035 HD
BRANCH  38  40
ATOM     40  C   UNL     1       2.979   8.061  17.397  0.00  0.00    -0.058 C 
ATOM     41  H   UNL     1       3.601   7.160  17.356  0.00  0.00    +0.024 HD
ATOM     42  H   UNL     1       3.612   8.910  17.117  0.00  0.00    +0.024 HD
ATOM     43  H   UNL     1       2.201   7.967  16.631  0.00  0.00    +0.024 HD
ENDBRANCH  38  40
BRANCH  38  44
ATOM     44  C   UNL     1       1.920   6.943  19.439  0.00  0.00    +0.014 C 
ATOM     45  H   UNL     1       1.842   7.076  20.527  0.00  0.00    +0.035 HD
ATOM     46  H   UNL     1       0.915   6.670  19.097  0.00  0.00    +0.035 HD
BRANCH  44  47
ATOM     47  C   UNL     1       2.887   5.836  19.190  0.00  0.00    +0.134 A 
ATOM     48  N   UNL     1       4.115   5.754  19.662  0.00  0.00    -0.135 NA
ATOM     49  N   UNL     1       4.677   4.586  19.204  0.00  0.00    -0.138 NA
ATOM     50  C   UNL     1       3.780   3.978  18.466  0.00  0.00    +0.120 A 
ATOM     51  N   UNL     1       2.642   4.722  18.429  0.00  0.00    -0.320 N 
ATOM     52  H   UNL     1       3.909   3.031  17.959  0.00  0.00    +0.105 HD
BRANCH  51  53
ATOM     53  C   UNL     1       1.437   4.387  17.720  0.00  0.00    +0.014 C 
ATOM     54  H   UNL     1       0.821   3.728  18.335  0.00  0.00    +0.046 HD
ATOM     55  H   UNL     1       1.708   3.877  16.792  0.00  0.00    +0.046 HD
ATOM     56  H   UNL     1       0.890   5.309  17.508  0.00  0.00    +0.046 HD
ENDBRANCH  51  53
ENDBRANCH  44  47
ENDBRANCH  38  44
ENDBRANCH   1  38
TORSDOF 8
ENDMDL
MODEL 14
REMARK VINA RESULT:    -7.353      4.418      9.111
REMARK INTER + INTRA:         -10.519
REMARK INTER:                  -9.456
REMARK INTRA:                  -1.062
REMARK UNBOUND:                -0.157
REMARK  Name = 
REMARK  8 active torsions:
REMARK  status: ('A' for Active; 'I' for Inactive)
REMARK    1  A    between atoms: C_1  and  C_2
REMARK    2  A    between atoms: C_2  and  C_3
REMARK    3  A    between atoms: C_2  and  C_10
REMARK    4  A    between atoms: C_3  and  C_4
REMARK    5  A    between atoms: N_8  and  C_9
REMARK    6  A    between atoms: N_13  and  C_14
REMARK    7  A    between atoms: C_18  and  N_19
REMARK    8  A    between atoms: C_26  and  C_27
REMARK                            x       y       z     vdW  Elec       q    Type
REMARK                         _______ _______ _______ _____ _____    ______ ____
ROOT
ATOM      1  C   UNL     1      -0.692  11.632  18.589  0.00  0.00    -0.038 A 
ATOM      2  C   UNL     1       0.157  12.741  18.521  0.00  0.00    -0.018 A 
ATOM      3  C   UNL     1       1.536  12.555  18.529  0.00  0.00    +0.121 A 
ATOM      4  N   UNL     1       2.363  13.705  18.485  0.00  0.00    -0.326 N 
ATOM      5  N   UNL     1       2.084  11.328  18.637  0.00  0.00    -0.217 NA
ATOM      6  C   UNL     1       1.278  10.243  18.704  0.00  0.00    +0.130 A 
ATOM      7  C   UNL     1      -0.107  10.364  18.682  0.00  0.00    -0.018 A 
ATOM      8  H   UNL     1      -0.245  13.747  18.474  0.00  0.00    +0.065 HD
ATOM      9  H   UNL     1       2.030  14.312  17.740  0.00  0.00    +0.148 HD
ATOM     10  H   UNL     1      -0.747   9.490  18.745  0.00  0.00    +0.065 HD
ENDROOT
BRANCH   6  11
ATOM     11  N   UNL     1       1.923   8.996  18.800  0.00  0.00    -0.248 N 
ATOM     12  C   UNL     1       2.886   8.610  17.782  0.00  0.00    +0.048 C 
ATOM     13  C   UNL     1       3.326   7.254  18.237  0.00  0.00    -0.006 A 
ATOM     14  C   UNL     1       2.659   6.919  19.413  0.00  0.00    +0.042 A 
ATOM     15  C   UNL     1       2.862   5.720  20.070  0.00  0.00    -0.049 A 
ATOM     16  C   UNL     1       3.777   4.827  19.510  0.00  0.00    -0.060 A 
ATOM     17  C   UNL     1       4.459   5.150  18.322  0.00  0.00    -0.050 A 
ATOM     18  C   UNL     1       4.241   6.376  17.663  0.00  0.00    +0.060 A 
ATOM     19  C   UNL     1       1.761   8.025  19.775  0.00  0.00    +0.253 C 
ATOM     20  O   UNL     1       1.050   7.991  20.761  0.00  0.00    -0.270 OA
ATOM     21  H   UNL     1       2.395   8.555  16.805  0.00  0.00    +0.052 HD
ATOM     22  H   UNL     1       3.725   9.313  17.777  0.00  0.00    +0.052 HD
ATOM     23  H   UNL     1       2.327   5.487  20.985  0.00  0.00    +0.063 HD
ATOM     24  H   UNL     1       3.964   3.872  19.997  0.00  0.00    +0.062 HD
ATOM     25  H   UNL     1       5.164   4.428  17.912  0.00  0.00    +0.062 HD
BRANCH  18  26
ATOM     26  C   UNL     1       4.961   6.730  16.389  0.00  0.00    +0.418 C 
ATOM     27  F   UNL     1       4.204   7.447  15.513  0.00  0.00    -0.166 F 
ATOM     28  F   UNL     1       5.380   5.629  15.708  0.00  0.00    -0.166 F 
ATOM     29  F   UNL     1       6.078   7.474  16.618  0.00  0.00    -0.166 F 
ENDBRANCH  18  26
ENDBRANCH   6  11
BRANCH   4  30
ATOM     30  C   UNL     1       3.817  13.503  18.508  0.00  0.00    +0.022 C 
ATOM     31  C   UNL     1       4.698  14.402  19.329  0.00  0.00    -0.033 C 
ATOM     32  C   UNL     1       4.750  14.466  17.830  0.00  0.00    -0.033 C 
ATOM     33  H   UNL     1       4.090  12.450  18.489  0.00  0.00    +0.050 HD
ATOM     34  H   UNL     1       4.244  15.229  19.861  0.00  0.00    +0.028 HD
ATOM     35  H   UNL     1       5.535  13.948  19.847  0.00  0.00    +0.028 HD
ATOM     36  H   UNL     1       5.615  14.051  17.327  0.00  0.00    +0.028 HD
ATOM     37  H   UNL     1       4.325  15.331  17.336  0.00  0.00    +0.028 HD
ENDBRANCH   4  30
BRANCH   1  38
ATOM     38  C   UNL     1      -2.209  11.770  18.603  0.00  0.00    -0.012 C 
ATOM     39  H   UNL     1      -2.487  12.549  17.876  0.00  0.00    +0.035 HD
BRANCH  38  40
ATOM     40  C   UNL     1      -2.715  12.256  19.970  0.00  0.00    -0.058 C 
ATOM     41  H   UNL     1      -2.484  11.544  20.769  0.00  0.00    +0.024 HD
ATOM     42  H   UNL     1      -3.802  12.396  19.959  0.00  0.00    +0.024 HD
ATOM     43  H   UNL     1      -2.264  13.219  20.236  0.00  0.00    +0.024 HD
ENDBRANCH  38  40
BRANCH  38  44
ATOM     44  C   UNL     1      -2.862  10.440  18.175  0.00  0.00    +0.014 C 
ATOM     45  H   UNL     1      -2.198   9.604  18.435  0.00  0.00    +0.035 HD
ATOM     46  H   UNL     1      -3.787  10.275  18.740  0.00  0.00    +0.035 HD
BRANCH  44  47
ATOM     47  C   UNL     1      -3.115  10.374  16.706  0.00  0.00    +0.134 A 
ATOM     48  N   UNL     1      -2.410   9.691  15.826  0.00  0.00    -0.135 NA
ATOM     49  N   UNL     1      -2.964   9.891  14.583  0.00  0.00    -0.138 NA
ATOM     50  C   UNL     1      -3.995  10.687  14.732  0.00  0.00    +0.120 A 
ATOM     51  N   UNL     1      -4.130  11.015  16.045  0.00  0.00    -0.320 N 
ATOM     52  H   UNL     1      -4.647  11.037  13.943  0.00  0.00    +0.105 HD
BRANCH  51  53
ATOM     53  C   UNL     1      -5.142  11.871  16.602  0.00  0.00    +0.014 C 
ATOM     54  H   UNL     1      -6.125  11.563  16.236  0.00  0.00    +0.046 HD
ATOM     55  H   UNL     1      -4.939  12.898  16.291  0.00  0.00    +0.046 HD
ATOM     56  H   UNL     1      -5.112  11.783  17.691  0.00  0.00    +0.046 HD
ENDBRANCH  51  53
ENDBRANCH  44  47
ENDBRANCH  38  44
ENDBRANCH   1  38
TORSDOF 8
ENDMDL
MODEL 15
REMARK VINA RESULT:    -7.321      4.430      9.419
REMARK INTER + INTRA:         -10.473
REMARK INTER:                  -9.499
REMARK INTRA:                  -0.974
REMARK UNBOUND:                -0.157
REMARK  Name = 
REMARK  8 active torsions:
REMARK  status: ('A' for Active; 'I' for Inactive)
REMARK    1  A    between atoms: C_1  and  C_2
REMARK    2  A    between atoms: C_2  and  C_3
REMARK    3  A    between atoms: C_2  and  C_10
REMARK    4  A    between atoms: C_3  and  C_4
REMARK    5  A    between atoms: N_8  and  C_9
REMARK    6  A    between atoms: N_13  and  C_14
REMARK    7  A    between atoms: C_18  and  N_19
REMARK    8  A    between atoms: C_26  and  C_27
REMARK                            x       y       z     vdW  Elec       q    Type
REMARK                         _______ _______ _______ _____ _____    ______ ____
ROOT
ATOM      1  C   UNL     1      -1.404  11.717  19.402  0.00  0.00    -0.038 A 
ATOM      2  C   UNL     1      -0.576  12.809  19.128  0.00  0.00    -0.018 A 
ATOM      3  C   UNL     1       0.791  12.613  18.956  0.00  0.00    +0.121 A 
ATOM      4  N   UNL     1       1.600  13.749  18.705  0.00  0.00    -0.326 N 
ATOM      5  N   UNL     1       1.352  11.394  19.081  0.00  0.00    -0.217 NA
ATOM      6  C   UNL     1       0.566  10.324  19.347  0.00  0.00    +0.130 A 
ATOM      7  C   UNL     1      -0.808  10.454  19.511  0.00  0.00    -0.018 A 
ATOM      8  H   UNL     1      -0.983  13.812  19.059  0.00  0.00    +0.065 HD
ATOM      9  H   UNL     1       1.164  14.299  17.968  0.00  0.00    +0.148 HD
ATOM     10  H   UNL     1      -1.431   9.594  19.733  0.00  0.00    +0.065 HD
ENDROOT
BRANCH   6  11
ATOM     11  N   UNL     1       1.221   9.084  19.448  0.00  0.00    -0.248 N 
ATOM     12  C   UNL     1       2.198   8.706  18.440  0.00  0.00    +0.048 C 
ATOM     13  C   UNL     1       2.647   7.354  18.899  0.00  0.00    -0.006 A 
ATOM     14  C   UNL     1       1.971   7.012  20.068  0.00  0.00    +0.042 A 
ATOM     15  C   UNL     1       2.179   5.815  20.727  0.00  0.00    -0.049 A 
ATOM     16  C   UNL     1       3.107   4.931  20.175  0.00  0.00    -0.060 A 
ATOM     17  C   UNL     1       3.797   5.261  18.994  0.00  0.00    -0.050 A 
ATOM     18  C   UNL     1       3.575   6.485  18.333  0.00  0.00    +0.060 A 
ATOM     19  C   UNL     1       1.060   8.110  20.422  0.00  0.00    +0.253 C 
ATOM     20  O   UNL     1       0.339   8.069  21.401  0.00  0.00    -0.270 OA
ATOM     21  H   UNL     1       1.717   8.647  17.459  0.00  0.00    +0.052 HD
ATOM     22  H   UNL     1       3.030   9.417  18.443  0.00  0.00    +0.052 HD
ATOM     23  H   UNL     1       1.636   5.577  21.636  0.00  0.00    +0.063 HD
ATOM     24  H   UNL     1       3.299   3.978  20.663  0.00  0.00    +0.062 HD
ATOM     25  H   UNL     1       4.514   4.546  18.590  0.00  0.00    +0.062 HD
BRANCH  18  26
ATOM     26  C   UNL     1       4.304   6.846  17.066  0.00  0.00    +0.418 C 
ATOM     27  F   UNL     1       3.620   7.713  16.269  0.00  0.00    -0.166 F 
ATOM     28  F   UNL     1       4.571   5.757  16.294  0.00  0.00    -0.166 F 
ATOM     29  F   UNL     1       5.508   7.432  17.313  0.00  0.00    -0.166 F 
ENDBRANCH  18  26
ENDBRANCH   6  11
BRANCH   4  30
ATOM     30  C   UNL     1       3.043  13.537  18.538  0.00  0.00    +0.022 C 
ATOM     31  C   UNL     1       4.030  14.366  19.312  0.00  0.00    -0.033 C 
ATOM     32  C   UNL     1       3.903  14.543  17.826  0.00  0.00    -0.033 C 
ATOM     33  H   UNL     1       3.296  12.487  18.408  0.00  0.00    +0.050 HD
ATOM     34  H   UNL     1       3.655  15.153  19.955  0.00  0.00    +0.028 HD
ATOM     35  H   UNL     1       4.915  13.869  19.690  0.00  0.00    +0.028 HD
ATOM     36  H   UNL     1       4.696  14.162  17.194  0.00  0.00    +0.028 HD
ATOM     37  H   UNL     1       3.435  15.446  17.453  0.00  0.00    +0.028 HD
ENDBRANCH   4  30
BRANCH   1  38
ATOM     38  C   UNL     1      -2.904  11.869  19.619  0.00  0.00    -0.012 C 
ATOM     39  H   UNL     1      -3.246  11.023  20.235  0.00  0.00    +0.035 HD
BRANCH  38  40
ATOM     40  C   UNL     1      -3.674  11.776  18.294  0.00  0.00    -0.058 C 
ATOM     41  H   UNL     1      -3.163  11.137  17.565  0.00  0.00    +0.024 HD
ATOM     42  H   UNL     1      -3.791  12.766  17.837  0.00  0.00    +0.024 HD
ATOM     43  H   UNL     1      -4.679  11.369  18.452  0.00  0.00    +0.024 HD
ENDBRANCH  38  40
BRANCH  38  44
ATOM     44  C   UNL     1      -3.195  13.181  20.377  0.00  0.00    +0.014 C 
ATOM     45  H   UNL     1      -2.280  13.787  20.428  0.00  0.00    +0.035 HD
ATOM     46  H   UNL     1      -3.923  13.783  19.820  0.00  0.00    +0.035 HD
BRANCH  44  47
ATOM     47  C   UNL     1      -3.656  12.944  21.775  0.00  0.00    +0.134 A 
ATOM     48  N   UNL     1      -4.908  12.888  22.183  0.00  0.00    -0.135 NA
ATOM     49  N   UNL     1      -4.911  12.654  23.538  0.00  0.00    -0.138 NA
ATOM     50  C   UNL     1      -3.662  12.568  23.927  0.00  0.00    +0.120 A 
ATOM     51  N   UNL     1      -2.839  12.741  22.858  0.00  0.00    -0.320 N 
ATOM     52  H   UNL     1      -3.322  12.387  24.938  0.00  0.00    +0.105 HD
BRANCH  51  53
ATOM     53  C   UNL     1      -1.402  12.719  22.885  0.00  0.00    +0.014 C 
ATOM     54  H   UNL     1      -1.011  13.554  22.299  0.00  0.00    +0.046 HD
ATOM     55  H   UNL     1      -1.060  11.775  22.453  0.00  0.00    +0.046 HD
ATOM     56  H   UNL     1      -1.072  12.811  23.922  0.00  0.00    +0.046 HD
ENDBRANCH  51  53
ENDBRANCH  44  47
ENDBRANCH  38  44
ENDBRANCH   1  38
TORSDOF 8
ENDMDL
MODEL 16
REMARK VINA RESULT:    -7.298      2.750      3.493
REMARK INTER + INTRA:         -10.441
REMARK INTER:                 -10.067
REMARK INTRA:                  -0.374
REMARK UNBOUND:                -0.157
REMARK  Name = 
REMARK  8 active torsions:
REMARK  status: ('A' for Active; 'I' for Inactive)
REMARK    1  A    between atoms: C_1  and  C_2
REMARK    2  A    between atoms: C_2  and  C_3
REMARK    3  A    between atoms: C_2  and  C_10
REMARK    4  A    between atoms: C_3  and  C_4
REMARK    5  A    between atoms: N_8  and  C_9
REMARK    6  A    between atoms: N_13  and  C_14
REMARK    7  A    between atoms: C_18  and  N_19
REMARK    8  A    between atoms: C_26  and  C_27
REMARK                            x       y       z     vdW  Elec       q    Type
REMARK                         _______ _______ _______ _____ _____    ______ ____
ROOT
ATOM      1  C   UNL     1       4.161   6.774  17.779  0.00  0.00    -0.038 A 
ATOM      2  C   UNL     1       4.073   5.535  18.419  0.00  0.00    -0.018 A 
ATOM      3  C   UNL     1       3.119   5.337  19.412  0.00  0.00    +0.121 A 
ATOM      4  N   UNL     1       3.079   4.074  20.055  0.00  0.00    -0.326 N 
ATOM      5  N   UNL     1       2.291   6.324  19.804  0.00  0.00    -0.217 NA
ATOM      6  C   UNL     1       2.361   7.532  19.197  0.00  0.00    +0.130 A 
ATOM      7  C   UNL     1       3.281   7.785  18.186  0.00  0.00    -0.018 A 
ATOM      8  H   UNL     1       4.749   4.727  18.160  0.00  0.00    +0.065 HD
ATOM      9  H   UNL     1       3.093   3.349  19.341  0.00  0.00    +0.148 HD
ATOM     10  H   UNL     1       3.338   8.758  17.709  0.00  0.00    +0.065 HD
ENDROOT
BRANCH   6  11
ATOM     11  N   UNL     1       1.454   8.508  19.650  0.00  0.00    -0.248 N 
ATOM     12  C   UNL     1       0.580   9.169  18.696  0.00  0.00    +0.048 C 
ATOM     13  C   UNL     1      -0.202  10.111  19.556  0.00  0.00    -0.006 A 
ATOM     14  C   UNL     1       0.208   9.980  20.881  0.00  0.00    +0.042 A 
ATOM     15  C   UNL     1      -0.338  10.725  21.909  0.00  0.00    -0.049 A 
ATOM     16  C   UNL     1      -1.338  11.640  21.577  0.00  0.00    -0.060 A 
ATOM     17  C   UNL     1      -1.764  11.786  20.244  0.00  0.00    -0.050 A 
ATOM     18  C   UNL     1      -1.198  11.019  19.207  0.00  0.00    +0.060 A 
ATOM     19  C   UNL     1       1.266   8.961  20.946  0.00  0.00    +0.253 C 
ATOM     20  O   UNL     1       1.810   8.652  21.989  0.00  0.00    -0.270 OA
ATOM     21  H   UNL     1       1.177   9.715  17.959  0.00  0.00    +0.052 HD
ATOM     22  H   UNL     1      -0.078   8.434  18.221  0.00  0.00    +0.052 HD
ATOM     23  H   UNL     1       0.003  10.601  22.931  0.00  0.00    +0.063 HD
ATOM     24  H   UNL     1      -1.793  12.247  22.358  0.00  0.00    +0.062 HD
ATOM     25  H   UNL     1      -2.545  12.511  20.021  0.00  0.00    +0.062 HD
BRANCH  18  26
ATOM     26  C   UNL     1      -1.641  11.170  17.776  0.00  0.00    +0.418 C 
ATOM     27  F   UNL     1      -1.382  10.078  17.004  0.00  0.00    -0.166 F 
ATOM     28  F   UNL     1      -1.039  12.220  17.155  0.00  0.00    -0.166 F 
ATOM     29  F   UNL     1      -2.981  11.394  17.672  0.00  0.00    -0.166 F 
ENDBRANCH  18  26
ENDBRANCH   6  11
BRANCH   4  30
ATOM     30  C   UNL     1       2.080   3.875  21.111  0.00  0.00    +0.022 C 
ATOM     31  C   UNL     1       1.953   2.546  21.801  0.00  0.00    -0.033 C 
ATOM     32  C   UNL     1       0.863   3.023  20.885  0.00  0.00    -0.033 C 
ATOM     33  H   UNL     1       1.959   4.756  21.740  0.00  0.00    +0.050 HD
ATOM     34  H   UNL     1       2.579   1.727  21.468  0.00  0.00    +0.028 HD
ATOM     35  H   UNL     1       1.759   2.550  22.867  0.00  0.00    +0.028 HD
ATOM     36  H   UNL     1      -0.069   3.358  21.325  0.00  0.00    +0.028 HD
ATOM     37  H   UNL     1       0.748   2.537  19.924  0.00  0.00    +0.028 HD
ENDBRANCH   4  30
BRANCH   1  38
ATOM     38  C   UNL     1       5.195   7.060  16.699  0.00  0.00    -0.012 C 
ATOM     39  H   UNL     1       5.625   8.054  16.893  0.00  0.00    +0.035 HD
BRANCH  38  40
ATOM     40  C   UNL     1       4.547   7.134  15.308  0.00  0.00    -0.058 C 
ATOM     41  H   UNL     1       3.926   8.028  15.192  0.00  0.00    +0.024 HD
ATOM     42  H   UNL     1       3.908   6.263  15.126  0.00  0.00    +0.024 HD
ATOM     43  H   UNL     1       5.310   7.150  14.520  0.00  0.00    +0.024 HD
ENDBRANCH  38  40
BRANCH  38  44
ATOM     44  C   UNL     1       6.326   6.012  16.763  0.00  0.00    +0.014 C 
ATOM     45  H   UNL     1       7.293   6.521  16.875  0.00  0.00    +0.035 HD
ATOM     46  H   UNL     1       6.210   5.388  17.657  0.00  0.00    +0.035 HD
BRANCH  44  47
ATOM     47  C   UNL     1       6.399   5.173  15.532  0.00  0.00    +0.134 A 
ATOM     48  N   UNL     1       7.171   5.393  14.486  0.00  0.00    -0.135 NA
ATOM     49  N   UNL     1       6.943   4.396  13.566  0.00  0.00    -0.138 NA
ATOM     50  C   UNL     1       6.042   3.589  14.071  0.00  0.00    +0.120 A 
ATOM     51  N   UNL     1       5.672   4.034  15.302  0.00  0.00    -0.320 N 
ATOM     52  H   UNL     1       5.644   2.703  13.595  0.00  0.00    +0.105 HD
BRANCH  51  53
ATOM     53  C   UNL     1       4.703   3.418  16.167  0.00  0.00    +0.014 C 
ATOM     54  H   UNL     1       4.710   2.336  16.014  0.00  0.00    +0.046 HD
ATOM     55  H   UNL     1       3.715   3.816  15.924  0.00  0.00    +0.046 HD
ATOM     56  H   UNL     1       4.967   3.644  17.203  0.00  0.00    +0.046 HD
ENDBRANCH  51  53
ENDBRANCH  44  47
ENDBRANCH  38  44
ENDBRANCH   1  38
TORSDOF 8
ENDMDL
MODEL 17
REMARK VINA RESULT:    -7.210      2.950      3.838
REMARK INTER + INTRA:         -10.318
REMARK INTER:                 -10.467
REMARK INTRA:                   0.149
REMARK UNBOUND:                -0.157
REMARK  Name = 
REMARK  8 active torsions:
REMARK  status: ('A' for Active; 'I' for Inactive)
REMARK    1  A    between atoms: C_1  and  C_2
REMARK    2  A    between atoms: C_2  and  C_3
REMARK    3  A    between atoms: C_2  and  C_10
REMARK    4  A    between atoms: C_3  and  C_4
REMARK    5  A    between atoms: N_8  and  C_9
REMARK    6  A    between atoms: N_13  and  C_14
REMARK    7  A    between atoms: C_18  and  N_19
REMARK    8  A    between atoms: C_26  and  C_27
REMARK                            x       y       z     vdW  Elec       q    Type
REMARK                         _______ _______ _______ _____ _____    ______ ____
ROOT
ATOM      1  C   UNL     1       4.702   5.643  16.960  0.00  0.00    -0.038 A 
ATOM      2  C   UNL     1       4.403   4.297  17.188  0.00  0.00    -0.018 A 
ATOM      3  C   UNL     1       3.412   3.957  18.104  0.00  0.00    +0.121 A 
ATOM      4  N   UNL     1       3.155   2.580  18.327  0.00  0.00    -0.326 N 
ATOM      5  N   UNL     1       2.748   4.894  18.809  0.00  0.00    -0.217 NA
ATOM      6  C   UNL     1       3.024   6.203  18.601  0.00  0.00    +0.130 A 
ATOM      7  C   UNL     1       3.991   6.605  17.687  0.00  0.00    -0.018 A 
ATOM      8  H   UNL     1       4.943   3.512  16.671  0.00  0.00    +0.065 HD
ATOM      9  H   UNL     1       3.063   2.120  17.425  0.00  0.00    +0.148 HD
ATOM     10  H   UNL     1       4.214   7.655  17.532  0.00  0.00    +0.065 HD
ENDROOT
BRANCH   6  11
ATOM     11  N   UNL     1       2.280   7.122  19.363  0.00  0.00    -0.248 N 
ATOM     12  C   UNL     1       1.975   8.430  18.807  0.00  0.00    +0.048 C 
ATOM     13  C   UNL     1       1.196   9.086  19.903  0.00  0.00    -0.006 A 
ATOM     14  C   UNL     1       1.079   8.209  20.980  0.00  0.00    +0.042 A 
ATOM     15  C   UNL     1       0.409   8.539  22.142  0.00  0.00    -0.049 A 
ATOM     16  C   UNL     1      -0.164   9.810  22.214  0.00  0.00    -0.060 A 
ATOM     17  C   UNL     1      -0.055  10.708  21.136  0.00  0.00    -0.050 A 
ATOM     18  C   UNL     1       0.632  10.357  19.957  0.00  0.00    +0.060 A 
ATOM     19  C   UNL     1       1.771   6.957  20.642  0.00  0.00    +0.253 C 
ATOM     20  O   UNL     1       1.831   6.017  21.412  0.00  0.00    -0.270 OA
ATOM     21  H   UNL     1       2.903   8.975  18.605  0.00  0.00    +0.052 HD
ATOM     22  H   UNL     1       1.365   8.318  17.905  0.00  0.00    +0.052 HD
ATOM     23  H   UNL     1       0.336   7.835  22.965  0.00  0.00    +0.063 HD
ATOM     24  H   UNL     1      -0.700  10.109  23.113  0.00  0.00    +0.062 HD
ATOM     25  H   UNL     1      -0.513  11.693  21.228  0.00  0.00    +0.062 HD
BRANCH  18  26
ATOM     26  C   UNL     1       0.759  11.312  18.800  0.00  0.00    +0.418 C 
ATOM     27  F   UNL     1       2.041  11.492  18.377  0.00  0.00    -0.166 F 
ATOM     28  F   UNL     1       0.284  12.552  19.097  0.00  0.00    -0.166 F 
ATOM     29  F   UNL     1       0.058  10.895  17.709  0.00  0.00    -0.166 F 
ENDBRANCH  18  26
ENDBRANCH   6  11
BRANCH   4  30
ATOM     30  C   UNL     1       2.118   2.228  19.304  0.00  0.00    +0.022 C 
ATOM     31  C   UNL     1       0.730   1.875  18.847  0.00  0.00    -0.033 C 
ATOM     32  C   UNL     1       0.972   3.155  19.595  0.00  0.00    -0.033 C 
ATOM     33  H   UNL     1       2.511   1.648  20.136  0.00  0.00    +0.050 HD
ATOM     34  H   UNL     1       0.500   1.936  17.791  0.00  0.00    +0.028 HD
ATOM     35  H   UNL     1       0.220   1.073  19.366  0.00  0.00    +0.028 HD
ATOM     36  H   UNL     1       0.634   3.222  20.622  0.00  0.00    +0.028 HD
ATOM     37  H   UNL     1       0.916   4.089  19.049  0.00  0.00    +0.028 HD
ENDBRANCH   4  30
BRANCH   1  38
ATOM     38  C   UNL     1       5.789   6.080  15.986  0.00  0.00    -0.012 C 
ATOM     39  H   UNL     1       6.397   6.853  16.478  0.00  0.00    +0.035 HD
BRANCH  38  40
ATOM     40  C   UNL     1       5.188   6.736  14.733  0.00  0.00    -0.058 C 
ATOM     41  H   UNL     1       5.599   6.311  13.811  0.00  0.00    +0.024 HD
ATOM     42  H   UNL     1       5.391   7.812  14.718  0.00  0.00    +0.024 HD
ATOM     43  H   UNL     1       4.100   6.608  14.707  0.00  0.00    +0.024 HD
ENDBRANCH  38  40
BRANCH  38  44
ATOM     44  C   UNL     1       6.698   4.882  15.642  0.00  0.00    +0.014 C 
ATOM     45  H   UNL     1       7.751   5.180  15.737  0.00  0.00    +0.035 HD
ATOM     46  H   UNL     1       6.548   4.074  16.367  0.00  0.00    +0.035 HD
BRANCH  44  47
ATOM     47  C   UNL     1       6.495   4.392  14.248  0.00  0.00    +0.134 A 
ATOM     48  N   UNL     1       5.561   3.552  13.847  0.00  0.00    -0.135 NA
ATOM     49  N   UNL     1       5.712   3.354  12.494  0.00  0.00    -0.138 NA
ATOM     50  C   UNL     1       6.731   4.077  12.098  0.00  0.00    +0.120 A 
ATOM     51  N   UNL     1       7.253   4.747  13.161  0.00  0.00    -0.320 N 
ATOM     52  H   UNL     1       7.110   4.144  11.088  0.00  0.00    +0.105 HD
BRANCH  51  53
ATOM     53  C   UNL     1       8.380   5.639  13.128  0.00  0.00    +0.014 C 
ATOM     54  H   UNL     1       8.325   6.331  13.970  0.00  0.00    +0.046 HD
ATOM     55  H   UNL     1       8.353   6.198  12.189  0.00  0.00    +0.046 HD
ATOM     56  H   UNL     1       9.295   5.046  13.198  0.00  0.00    +0.046 HD
ENDBRANCH  51  53
ENDBRANCH  44  47
ENDBRANCH  38  44
ENDBRANCH   1  38
TORSDOF 8
ENDMDL
MODEL 18
REMARK VINA RESULT:    -7.070      1.776      4.798
REMARK INTER + INTRA:         -10.119
REMARK INTER:                 -10.218
REMARK INTRA:                   0.099
REMARK UNBOUND:                -0.157
REMARK  Name = 
REMARK  8 active torsions:
REMARK  status: ('A' for Active; 'I' for Inactive)
REMARK    1  A    between atoms: C_1  and  C_2
REMARK    2  A    between atoms: C_2  and  C_3
REMARK    3  A    between atoms: C_2  and  C_10
REMARK    4  A    between atoms: C_3  and  C_4
REMARK    5  A    between atoms: N_8  and  C_9
REMARK    6  A    between atoms: N_13  and  C_14
REMARK    7  A    between atoms: C_18  and  N_19
REMARK    8  A    between atoms: C_26  and  C_27
REMARK                            x       y       z     vdW  Elec       q    Type
REMARK                         _______ _______ _______ _____ _____    ______ ____
ROOT
ATOM      1  C   UNL     1       2.166   4.553  20.557  0.00  0.00    -0.038 A 
ATOM      2  C   UNL     1       3.455   4.437  20.027  0.00  0.00    -0.018 A 
ATOM      3  C   UNL     1       4.086   5.559  19.499  0.00  0.00    +0.121 A 
ATOM      4  N   UNL     1       5.382   5.396  18.947  0.00  0.00    -0.326 N 
ATOM      5  N   UNL     1       3.475   6.759  19.451  0.00  0.00    -0.217 NA
ATOM      6  C   UNL     1       2.227   6.890  19.959  0.00  0.00    +0.130 A 
ATOM      7  C   UNL     1       1.551   5.810  20.515  0.00  0.00    -0.018 A 
ATOM      8  H   UNL     1       3.965   3.481  20.010  0.00  0.00    +0.065 HD
ATOM      9  H   UNL     1       5.950   4.873  19.610  0.00  0.00    +0.148 HD
ATOM     10  H   UNL     1       0.548   5.920  20.913  0.00  0.00    +0.065 HD
ENDROOT
BRANCH   6  11
ATOM     11  N   UNL     1       1.660   8.175  19.886  0.00  0.00    -0.248 N 
ATOM     12  C   UNL     1       0.991   8.729  21.052  0.00  0.00    +0.048 C 
ATOM     13  C   UNL     1       0.537  10.071  20.572  0.00  0.00    -0.006 A 
ATOM     14  C   UNL     1       0.925  10.245  19.245  0.00  0.00    +0.042 A 
ATOM     15  C   UNL     1       0.643  11.394  18.530  0.00  0.00    -0.049 A 
ATOM     16  C   UNL     1      -0.060  12.404  19.188  0.00  0.00    -0.060 A 
ATOM     17  C   UNL     1      -0.460  12.244  20.528  0.00  0.00    -0.050 A 
ATOM     18  C   UNL     1      -0.166  11.067  21.244  0.00  0.00    +0.060 A 
ATOM     19  C   UNL     1       1.638   9.039  18.802  0.00  0.00    +0.253 C 
ATOM     20  O   UNL     1       2.081   8.920  17.675  0.00  0.00    -0.270 OA
ATOM     21  H   UNL     1       0.137   8.101  21.326  0.00  0.00    +0.052 HD
ATOM     22  H   UNL     1       1.704   8.828  21.878  0.00  0.00    +0.052 HD
ATOM     23  H   UNL     1       0.957  11.500  17.497  0.00  0.00    +0.063 HD
ATOM     24  H   UNL     1      -0.302  13.324  18.660  0.00  0.00    +0.062 HD
ATOM     25  H   UNL     1      -1.009  13.052  21.010  0.00  0.00    +0.062 HD
BRANCH  18  26
ATOM     26  C   UNL     1      -0.592  10.882  22.676  0.00  0.00    +0.418 C 
ATOM     27  F   UNL     1       0.268  10.124  23.410  0.00  0.00    -0.166 F 
ATOM     28  F   UNL     1      -1.807  10.279  22.780  0.00  0.00    -0.166 F 
ATOM     29  F   UNL     1      -0.706  12.067  23.337  0.00  0.00    -0.166 F 
ENDBRANCH  18  26
ENDBRANCH   6  11
BRANCH   4  30
ATOM     30  C   UNL     1       6.038   6.580  18.379  0.00  0.00    +0.022 C 
ATOM     31  C   UNL     1       6.625   6.537  16.997  0.00  0.00    -0.033 C 
ATOM     32  C   UNL     1       7.528   6.634  18.193  0.00  0.00    -0.033 C 
ATOM     33  H   UNL     1       5.539   7.505  18.660  0.00  0.00    +0.050 HD
ATOM     34  H   UNL     1       6.599   5.602  16.451  0.00  0.00    +0.028 HD
ATOM     35  H   UNL     1       6.510   7.416  16.375  0.00  0.00    +0.028 HD
ATOM     36  H   UNL     1       8.020   7.578  18.390  0.00  0.00    +0.028 HD
ATOM     37  H   UNL     1       8.112   5.765  18.470  0.00  0.00    +0.028 HD
ENDBRANCH   4  30
BRANCH   1  38
ATOM     38  C   UNL     1       1.415   3.359  21.131  0.00  0.00    -0.012 C 
ATOM     39  H   UNL     1       0.566   3.742  21.718  0.00  0.00    +0.035 HD
BRANCH  38  40
ATOM     40  C   UNL     1       2.291   2.562  22.109  0.00  0.00    -0.058 C 
ATOM     41  H   UNL     1       2.277   1.489  21.892  0.00  0.00    +0.024 HD
ATOM     42  H   UNL     1       1.947   2.693  23.141  0.00  0.00    +0.024 HD
ATOM     43  H   UNL     1       3.333   2.900  22.067  0.00  0.00    +0.024 HD
ENDBRANCH  38  40
BRANCH  38  44
ATOM     44  C   UNL     1       0.867   2.482  19.986  0.00  0.00    +0.014 C 
ATOM     45  H   UNL     1       0.572   1.501  20.384  0.00  0.00    +0.035 HD
ATOM     46  H   UNL     1      -0.047   2.927  19.575  0.00  0.00    +0.035 HD
BRANCH  44  47
ATOM     47  C   UNL     1       1.876   2.247  18.913  0.00  0.00    +0.134 A 
ATOM     48  N   UNL     1       2.819   1.326  18.920  0.00  0.00    -0.135 NA
ATOM     49  N   UNL     1       3.539   1.437  17.754  0.00  0.00    -0.138 NA
ATOM     50  C   UNL     1       3.019   2.420  17.059  0.00  0.00    +0.120 A 
ATOM     51  N   UNL     1       1.974   2.957  17.744  0.00  0.00    -0.320 N 
ATOM     52  H   UNL     1       3.356   2.763  16.091  0.00  0.00    +0.105 HD
BRANCH  51  53
ATOM     53  C   UNL     1       1.153   4.055  17.309  0.00  0.00    +0.014 C 
ATOM     54  H   UNL     1       1.789   4.883  16.988  0.00  0.00    +0.046 HD
ATOM     55  H   UNL     1       0.527   4.375  18.146  0.00  0.00    +0.046 HD
ATOM     56  H   UNL     1       0.537   3.719  16.472  0.00  0.00    +0.046 HD
ENDBRANCH  51  53
ENDBRANCH  44  47
ENDBRANCH  38  44
ENDBRANCH   1  38
TORSDOF 8
ENDMDL
MODEL 19
REMARK VINA RESULT:    -7.051      3.682      8.552
REMARK INTER + INTRA:         -10.093
REMARK INTER:                  -8.999
REMARK INTRA:                  -1.094
REMARK UNBOUND:                -0.157
REMARK  Name = 
REMARK  8 active torsions:
REMARK  status: ('A' for Active; 'I' for Inactive)
REMARK    1  A    between atoms: C_1  and  C_2
REMARK    2  A    between atoms: C_2  and  C_3
REMARK    3  A    between atoms: C_2  and  C_10
REMARK    4  A    between atoms: C_3  and  C_4
REMARK    5  A    between atoms: N_8  and  C_9
REMARK    6  A    between atoms: N_13  and  C_14
REMARK    7  A    between atoms: C_18  and  N_19
REMARK    8  A    between atoms: C_26  and  C_27
REMARK                            x       y       z     vdW  Elec       q    Type
REMARK                         _______ _______ _______ _____ _____    ______ ____
ROOT
ATOM      1  C   UNL     1      -0.110  12.840  19.915  0.00  0.00    -0.038 A 
ATOM      2  C   UNL     1      -1.281  12.828  19.153  0.00  0.00    -0.018 A 
ATOM      3  C   UNL     1      -1.561  11.736  18.337  0.00  0.00    +0.121 A 
ATOM      4  N   UNL     1      -2.747  11.772  17.559  0.00  0.00    -0.326 N 
ATOM      5  N   UNL     1      -0.713  10.695  18.231  0.00  0.00    -0.217 NA
ATOM      6  C   UNL     1       0.427  10.690  18.961  0.00  0.00    +0.130 A 
ATOM      7  C   UNL     1       0.753  11.743  19.807  0.00  0.00    -0.018 A 
ATOM      8  H   UNL     1      -1.971  13.664  19.179  0.00  0.00    +0.065 HD
ATOM      9  H   UNL     1      -3.518  12.049  18.162  0.00  0.00    +0.148 HD
ATOM     10  H   UNL     1       1.673  11.736  20.383  0.00  0.00    +0.065 HD
ENDROOT
BRANCH   6  11
ATOM     11  N   UNL     1       1.256   9.563  18.809  0.00  0.00    -0.248 N 
ATOM     12  C   UNL     1       1.062   8.411  19.674  0.00  0.00    +0.048 C 
ATOM     13  C   UNL     1       2.116   7.459  19.204  0.00  0.00    -0.006 A 
ATOM     14  C   UNL     1       2.836   8.039  18.162  0.00  0.00    +0.042 A 
ATOM     15  C   UNL     1       3.878   7.393  17.525  0.00  0.00    -0.049 A 
ATOM     16  C   UNL     1       4.203   6.109  17.964  0.00  0.00    -0.060 A 
ATOM     17  C   UNL     1       3.486   5.509  19.016  0.00  0.00    -0.050 A 
ATOM     18  C   UNL     1       2.426   6.179  19.657  0.00  0.00    +0.060 A 
ATOM     19  C   UNL     1       2.293   9.381  17.908  0.00  0.00    +0.253 C 
ATOM     20  O   UNL     1       2.745  10.115  17.049  0.00  0.00    -0.270 OA
ATOM     21  H   UNL     1       1.228   8.696  20.718  0.00  0.00    +0.052 HD
ATOM     22  H   UNL     1       0.061   7.994  19.520  0.00  0.00    +0.052 HD
ATOM     23  H   UNL     1       4.421   7.872  16.716  0.00  0.00    +0.063 HD
ATOM     24  H   UNL     1       5.018   5.567  17.489  0.00  0.00    +0.062 HD
ATOM     25  H   UNL     1       3.769   4.506  19.335  0.00  0.00    +0.062 HD
BRANCH  18  26
ATOM     26  C   UNL     1       1.656   5.549  20.787  0.00  0.00    +0.418 C 
ATOM     27  F   UNL     1       2.423   4.784  21.613  0.00  0.00    -0.166 F 
ATOM     28  F   UNL     1       0.659   4.737  20.343  0.00  0.00    -0.166 F 
ATOM     29  F   UNL     1       1.056   6.477  21.582  0.00  0.00    -0.166 F 
ENDBRANCH  18  26
ENDBRANCH   6  11
BRANCH   4  30
ATOM     30  C   UNL     1      -3.030  10.624  16.690  0.00  0.00    +0.022 C 
ATOM     31  C   UNL     1      -2.909  10.750  15.198  0.00  0.00    -0.033 C 
ATOM     32  C   UNL     1      -4.261  10.581  15.830  0.00  0.00    -0.033 C 
ATOM     33  H   UNL     1      -2.692   9.684  17.122  0.00  0.00    +0.050 HD
ATOM     34  H   UNL     1      -2.658  11.716  14.777  0.00  0.00    +0.028 HD
ATOM     35  H   UNL     1      -2.494   9.909  14.655  0.00  0.00    +0.028 HD
ATOM     36  H   UNL     1      -4.762   9.626  15.725  0.00  0.00    +0.028 HD
ATOM     37  H   UNL     1      -4.931  11.432  15.849  0.00  0.00    +0.028 HD
ENDBRANCH   4  30
BRANCH   1  38
ATOM     38  C   UNL     1       0.263  14.013  20.812  0.00  0.00    -0.012 C 
ATOM     39  H   UNL     1      -0.430  14.840  20.597  0.00  0.00    +0.035 HD
BRANCH  38  40
ATOM     40  C   UNL     1       1.672  14.537  20.494  0.00  0.00    -0.058 C 
ATOM     41  H   UNL     1       2.334  14.490  21.365  0.00  0.00    +0.024 HD
ATOM     42  H   UNL     1       1.638  15.581  20.163  0.00  0.00    +0.024 HD
ATOM     43  H   UNL     1       2.134  13.954  19.689  0.00  0.00    +0.024 HD
ENDBRANCH  38  40
BRANCH  38  44
ATOM     44  C   UNL     1       0.108  13.612  22.294  0.00  0.00    +0.014 C 
ATOM     45  H   UNL     1       0.707  12.714  22.496  0.00  0.00    +0.035 HD
ATOM     46  H   UNL     1       0.515  14.397  22.941  0.00  0.00    +0.035 HD
BRANCH  44  47
ATOM     47  C   UNL     1      -1.305  13.301  22.656  0.00  0.00    +0.134 A 
ATOM     48  N   UNL     1      -2.303  14.161  22.707  0.00  0.00    -0.135 NA
ATOM     49  N   UNL     1      -3.439  13.483  23.081  0.00  0.00    -0.138 NA
ATOM     50  C   UNL     1      -3.112  12.224  23.247  0.00  0.00    +0.120 A 
ATOM     51  N   UNL     1      -1.786  12.061  22.991  0.00  0.00    -0.320 N 
ATOM     52  H   UNL     1      -3.781  11.426  23.541  0.00  0.00    +0.105 HD
BRANCH  51  53
ATOM     53  C   UNL     1      -1.056  10.825  23.068  0.00  0.00    +0.014 C 
ATOM     54  H   UNL     1      -0.916  10.547  24.115  0.00  0.00    +0.046 HD
ATOM     55  H   UNL     1      -0.083  10.964  22.591  0.00  0.00    +0.046 HD
ATOM     56  H   UNL     1      -1.630  10.049  22.556  0.00  0.00    +0.046 HD
ENDBRANCH  51  53
ENDBRANCH  44  47
ENDBRANCH  38  44
ENDBRANCH   1  38
TORSDOF 8
ENDMDL
MODEL 20
REMARK VINA RESULT:    -6.757      3.629      6.735
REMARK INTER + INTRA:          -9.679
REMARK INTER:                  -8.937
REMARK INTRA:                  -0.742
REMARK UNBOUND:                -0.157
REMARK  Name = 
REMARK  8 active torsions:
REMARK  status: ('A' for Active; 'I' for Inactive)
REMARK    1  A    between atoms: C_1  and  C_2
REMARK    2  A    between atoms: C_2  and  C_3
REMARK    3  A    between atoms: C_2  and  C_10
REMARK    4  A    between atoms: C_3  and  C_4
REMARK    5  A    between atoms: N_8  and  C_9
REMARK    6  A    between atoms: N_13  and  C_14
REMARK    7  A    between atoms: C_18  and  N_19
REMARK    8  A    between atoms: C_26  and  C_27
REMARK                            x       y       z     vdW  Elec       q    Type
REMARK                         _______ _______ _______ _____ _____    ______ ____
ROOT
ATOM      1  C   UNL     1       1.349   8.991  19.292  0.00  0.00    -0.038 A 
ATOM      2  C   UNL     1       2.030   9.938  18.522  0.00  0.00    -0.018 A 
ATOM      3  C   UNL     1       1.726  11.289  18.662  0.00  0.00    +0.121 A 
ATOM      4  N   UNL     1       2.420  12.216  17.844  0.00  0.00    -0.326 N 
ATOM      5  N   UNL     1       0.761  11.714  19.501  0.00  0.00    -0.217 NA
ATOM      6  C   UNL     1       0.091  10.812  20.255  0.00  0.00    +0.130 A 
ATOM      7  C   UNL     1       0.361   9.451  20.173  0.00  0.00    -0.018 A 
ATOM      8  H   UNL     1       2.784   9.633  17.806  0.00  0.00    +0.065 HD
ATOM      9  H   UNL     1       3.414  12.006  17.893  0.00  0.00    +0.148 HD
ATOM     10  H   UNL     1      -0.186   8.733  20.774  0.00  0.00    +0.065 HD
ENDROOT
BRANCH   6  11
ATOM     11  N   UNL     1      -0.891  11.332  21.118  0.00  0.00    -0.248 N 
ATOM     12  C   UNL     1      -1.799  12.358  20.632  0.00  0.00    +0.048 C 
ATOM     13  C   UNL     1      -2.660  12.635  21.824  0.00  0.00    -0.006 A 
ATOM     14  C   UNL     1      -2.259  11.826  22.885  0.00  0.00    +0.042 A 
ATOM     15  C   UNL     1      -2.872  11.860  24.123  0.00  0.00    -0.049 A 
ATOM     16  C   UNL     1      -3.932  12.753  24.290  0.00  0.00    -0.060 A 
ATOM     17  C   UNL     1      -4.349  13.578  23.229  0.00  0.00    -0.050 A 
ATOM     18  C   UNL     1      -3.714  13.532  21.972  0.00  0.00    +0.060 A 
ATOM     19  C   UNL     1      -1.130  10.995  22.442  0.00  0.00    +0.253 C 
ATOM     20  O   UNL     1      -0.579  10.198  23.176  0.00  0.00    -0.270 OA
ATOM     21  H   UNL     1      -1.233  13.249  20.341  0.00  0.00    +0.052 HD
ATOM     22  H   UNL     1      -2.394  11.966  19.801  0.00  0.00    +0.052 HD
ATOM     23  H   UNL     1      -2.537  11.218  24.931  0.00  0.00    +0.063 HD
ATOM     24  H   UNL     1      -4.442  12.810  25.250  0.00  0.00    +0.062 HD
ATOM     25  H   UNL     1      -5.179  14.264  23.395  0.00  0.00    +0.062 HD
BRANCH  18  26
ATOM     26  C   UNL     1      -4.148  14.413  20.831  0.00  0.00    +0.418 C 
ATOM     27  F   UNL     1      -4.612  13.724  19.753  0.00  0.00    -0.166 F 
ATOM     28  F   UNL     1      -3.136  15.197  20.369  0.00  0.00    -0.166 F 
ATOM     29  F   UNL     1      -5.147  15.267  21.190  0.00  0.00    -0.166 F 
ENDBRANCH  18  26
ENDBRANCH   6  11
BRANCH   4  30
ATOM     30  C   UNL     1       2.086  13.638  17.987  0.00  0.00    +0.022 C 
ATOM     31  C   UNL     1       3.138  14.692  17.787  0.00  0.00    -0.033 C 
ATOM     32  C   UNL     1       2.577  14.442  19.157  0.00  0.00    -0.033 C 
ATOM     33  H   UNL     1       1.094  13.871  17.604  0.00  0.00    +0.050 HD
ATOM     34  H   UNL     1       4.155  14.378  17.586  0.00  0.00    +0.028 HD
ATOM     35  H   UNL     1       2.847  15.602  17.277  0.00  0.00    +0.028 HD
ATOM     36  H   UNL     1       1.899  15.176  19.576  0.00  0.00    +0.028 HD
ATOM     37  H   UNL     1       3.205  13.951  19.890  0.00  0.00    +0.028 HD
ENDBRANCH   4  30
BRANCH   1  38
ATOM     38  C   UNL     1       1.621   7.498  19.172  0.00  0.00    -0.012 C 
ATOM     39  H   UNL     1       0.712   7.016  18.783  0.00  0.00    +0.035 HD
BRANCH  38  40
ATOM     40  C   UNL     1       1.892   6.865  20.545  0.00  0.00    -0.058 C 
ATOM     41  H   UNL     1       2.178   7.613  21.293  0.00  0.00    +0.024 HD
ATOM     42  H   UNL     1       2.704   6.131  20.487  0.00  0.00    +0.024 HD
ATOM     43  H   UNL     1       1.004   6.340  20.917  0.00  0.00    +0.024 HD
ENDBRANCH  38  40
BRANCH  38  44
ATOM     44  C   UNL     1       2.774   7.253  18.176  0.00  0.00    +0.014 C 
ATOM     45  H   UNL     1       2.376   7.228  17.152  0.00  0.00    +0.035 HD
ATOM     46  H   UNL     1       3.480   8.090  18.204  0.00  0.00    +0.035 HD
BRANCH  44  47
ATOM     47  C   UNL     1       3.472   5.957  18.418  0.00  0.00    +0.134 A 
ATOM     48  N   UNL     1       4.697   5.808  18.882  0.00  0.00    -0.135 NA
ATOM     49  N   UNL     1       4.968   4.463  18.960  0.00  0.00    -0.138 NA
ATOM     50  C   UNL     1       3.904   3.819  18.545  0.00  0.00    +0.120 A 
ATOM     51  N   UNL     1       2.940   4.713  18.197  0.00  0.00    -0.320 N 
ATOM     52  H   UNL     1       3.793   2.745  18.484  0.00  0.00    +0.105 HD
BRANCH  51  53
ATOM     53  C   UNL     1       1.632   4.392  17.693  0.00  0.00    +0.014 C 
ATOM     54  H   UNL     1       0.898   5.088  18.107  0.00  0.00    +0.046 HD
ATOM     55  H   UNL     1       1.383   3.372  17.995  0.00  0.00    +0.046 HD
ATOM     56  H   UNL     1       1.647   4.479  16.604  0.00  0.00    +0.046 HD
ENDBRANCH  51  53
ENDBRANCH  44  47
ENDBRANCH  38  44
ENDBRANCH   1  38
TORSDOF 8
ENDMDL
MODEL 21
REMARK VINA RESULT:    -6.687      4.130      9.271
REMARK INTER + INTRA:          -9.580
REMARK INTER:                  -8.854
REMARK INTRA:                  -0.725
REMARK UNBOUND:                -0.157
REMARK  Name = 
REMARK  8 active torsions:
REMARK  status: ('A' for Active; 'I' for Inactive)
REMARK    1  A    between atoms: C_1  and  C_2
REMARK    2  A    between atoms: C_2  and  C_3
REMARK    3  A    between atoms: C_2  and  C_10
REMARK    4  A    between atoms: C_3  and  C_4
REMARK    5  A    between atoms: N_8  and  C_9
REMARK    6  A    between atoms: N_13  and  C_14
REMARK    7  A    between atoms: C_18  and  N_19
REMARK    8  A    between atoms: C_26  and  C_27
REMARK                            x       y       z     vdW  Elec       q    Type
REMARK                         _______ _______ _______ _____ _____    ______ ____
ROOT
ATOM      1  C   UNL     1      -1.300  12.016  20.196  0.00  0.00    -0.038 A 
ATOM      2  C   UNL     1      -0.479  13.081  20.578  0.00  0.00    -0.018 A 
ATOM      3  C   UNL     1       0.904  12.948  20.497  0.00  0.00    +0.121 A 
ATOM      4  N   UNL     1       1.703  14.041  20.918  0.00  0.00    -0.326 N 
ATOM      5  N   UNL     1       1.482  11.801  20.090  0.00  0.00    -0.217 NA
ATOM      6  C   UNL     1       0.703  10.759  19.716  0.00  0.00    +0.130 A 
ATOM      7  C   UNL     1      -0.684  10.837  19.758  0.00  0.00    -0.018 A 
ATOM      8  H   UNL     1      -0.905  14.006  20.949  0.00  0.00    +0.065 HD
ATOM      9  H   UNL     1       1.341  14.888  20.488  0.00  0.00    +0.148 HD
ATOM     10  H   UNL     1      -1.303   9.996  19.466  0.00  0.00    +0.065 HD
ENDROOT
BRANCH   6  11
ATOM     11  N   UNL     1       1.379   9.601  19.290  0.00  0.00    -0.248 N 
ATOM     12  C   UNL     1       1.209   8.361  20.029  0.00  0.00    +0.048 C 
ATOM     13  C   UNL     1       2.073   7.401  19.274  0.00  0.00    -0.006 A 
ATOM     14  C   UNL     1       2.673   8.059  18.202  0.00  0.00    +0.042 A 
ATOM     15  C   UNL     1       3.531   7.425  17.323  0.00  0.00    -0.049 A 
ATOM     16  C   UNL     1       3.790   6.071  17.542  0.00  0.00    -0.060 A 
ATOM     17  C   UNL     1       3.192   5.392  18.620  0.00  0.00    -0.050 A 
ATOM     18  C   UNL     1       2.320   6.051  19.509  0.00  0.00    +0.060 A 
ATOM     19  C   UNL     1       2.236   9.462  18.209  0.00  0.00    +0.253 C 
ATOM     20  O   UNL     1       2.618  10.268  17.382  0.00  0.00    -0.270 OA
ATOM     21  H   UNL     1       1.567   8.487  21.055  0.00  0.00    +0.052 HD
ATOM     22  H   UNL     1       0.159   8.051  19.999  0.00  0.00    +0.052 HD
ATOM     23  H   UNL     1       3.984   7.965  16.498  0.00  0.00    +0.063 HD
ATOM     24  H   UNL     1       4.460   5.536  16.872  0.00  0.00    +0.062 HD
ATOM     25  H   UNL     1       3.418   4.336  18.762  0.00  0.00    +0.062 HD
BRANCH  18  26
ATOM     26  C   UNL     1       1.680   5.336  20.668  0.00  0.00    +0.418 C 
ATOM     27  F   UNL     1       2.568   4.677  21.463  0.00  0.00    -0.166 F 
ATOM     28  F   UNL     1       0.774   4.405  20.265  0.00  0.00    -0.166 F 
ATOM     29  F   UNL     1       1.002   6.187  21.487  0.00  0.00    -0.166 F 
ENDBRANCH  18  26
ENDBRANCH   6  11
BRANCH   4  30
ATOM     30  C   UNL     1       3.161  13.890  20.844  0.00  0.00    +0.022 C 
ATOM     31  C   UNL     1       4.050  14.566  21.849  0.00  0.00    -0.033 C 
ATOM     32  C   UNL     1       4.044  15.030  20.421  0.00  0.00    -0.033 C 
ATOM     33  H   UNL     1       3.460  12.890  20.535  0.00  0.00    +0.050 HD
ATOM     34  H   UNL     1       3.595  15.205  22.597  0.00  0.00    +0.028 HD
ATOM     35  H   UNL     1       4.916  14.019  22.202  0.00  0.00    +0.028 HD
ATOM     36  H   UNL     1       4.900  14.794  19.800  0.00  0.00    +0.028 HD
ATOM     37  H   UNL     1       3.579  15.981  20.190  0.00  0.00    +0.028 HD
ENDBRANCH   4  30
BRANCH   1  38
ATOM     38  C   UNL     1      -2.819  12.092  20.279  0.00  0.00    -0.012 C 
ATOM     39  H   UNL     1      -3.169  11.250  20.895  0.00  0.00    +0.035 HD
BRANCH  38  40
ATOM     40  C   UNL     1      -3.466  11.912  18.897  0.00  0.00    -0.058 C 
ATOM     41  H   UNL     1      -2.718  11.767  18.109  0.00  0.00    +0.024 HD
ATOM     42  H   UNL     1      -4.063  12.789  18.625  0.00  0.00    +0.024 HD
ATOM     43  H   UNL     1      -4.136  11.045  18.887  0.00  0.00    +0.024 HD
ENDBRANCH  38  40
BRANCH  38  44
ATOM     44  C   UNL     1      -3.244  13.411  20.957  0.00  0.00    +0.014 C 
ATOM     45  H   UNL     1      -2.371  14.072  21.052  0.00  0.00    +0.035 HD
ATOM     46  H   UNL     1      -3.959  13.947  20.323  0.00  0.00    +0.035 HD
BRANCH  44  47
ATOM     47  C   UNL     1      -3.798  13.197  22.325  0.00  0.00    +0.134 A 
ATOM     48  N   UNL     1      -4.986  12.706  22.615  0.00  0.00    -0.135 NA
ATOM     49  N   UNL     1      -5.116  12.671  23.983  0.00  0.00    -0.138 NA
ATOM     50  C   UNL     1      -4.005  13.137  24.499  0.00  0.00    +0.120 A 
ATOM     51  N   UNL     1      -3.148  13.478  23.499  0.00  0.00    -0.320 N 
ATOM     52  H   UNL     1      -3.786  13.240  25.553  0.00  0.00    +0.105 HD
BRANCH  51  53
ATOM     53  C   UNL     1      -1.830  14.029  23.667  0.00  0.00    +0.014 C 
ATOM     54  H   UNL     1      -1.278  13.441  24.404  0.00  0.00    +0.046 HD
ATOM     55  H   UNL     1      -1.925  15.060  24.015  0.00  0.00    +0.046 HD
ATOM     56  H   UNL     1      -1.313  13.992  22.705  0.00  0.00    +0.046 HD
ENDBRANCH  51  53
ENDBRANCH  44  47
ENDBRANCH  38  44
ENDBRANCH   1  38
TORSDOF 8
ENDMDL
MODEL 22
REMARK VINA RESULT:    -6.680      3.584      7.448
REMARK INTER + INTRA:          -9.570
REMARK INTER:                  -8.428
REMARK INTRA:                  -1.142
REMARK UNBOUND:                -0.157
REMARK  Name = 
REMARK  8 active torsions:
REMARK  status: ('A' for Active; 'I' for Inactive)
REMARK    1  A    between atoms: C_1  and  C_2
REMARK    2  A    between atoms: C_2  and  C_3
REMARK    3  A    between atoms: C_2  and  C_10
REMARK    4  A    between atoms: C_3  and  C_4
REMARK    5  A    between atoms: N_8  and  C_9
REMARK    6  A    between atoms: N_13  and  C_14
REMARK    7  A    between atoms: C_18  and  N_19
REMARK    8  A    between atoms: C_26  and  C_27
REMARK                            x       y       z     vdW  Elec       q    Type
REMARK                         _______ _______ _______ _____ _____    ______ ____
ROOT
ATOM      1  C   UNL     1       0.756  11.785  19.761  0.00  0.00    -0.038 A 
ATOM      2  C   UNL     1      -0.362  11.901  18.931  0.00  0.00    -0.018 A 
ATOM      3  C   UNL     1      -0.705  10.850  18.085  0.00  0.00    +0.121 A 
ATOM      4  N   UNL     1      -1.832  11.017  17.239  0.00  0.00    -0.326 N 
ATOM      5  N   UNL     1       0.034   9.726  18.017  0.00  0.00    -0.217 NA
ATOM      6  C   UNL     1       1.121   9.596  18.813  0.00  0.00    +0.130 A 
ATOM      7  C   UNL     1       1.504  10.603  19.691  0.00  0.00    -0.018 A 
ATOM      8  H   UNL     1      -0.960  12.805  18.927  0.00  0.00    +0.065 HD
ATOM      9  H   UNL     1      -2.604  11.369  17.799  0.00  0.00    +0.148 HD
ATOM     10  H   UNL     1       2.381  10.495  20.320  0.00  0.00    +0.065 HD
ENDROOT
BRANCH   6  11
ATOM     11  N   UNL     1       1.834   8.389  18.696  0.00  0.00    -0.248 N 
ATOM     12  C   UNL     1       1.571   7.309  19.632  0.00  0.00    +0.048 C 
ATOM     13  C   UNL     1       2.512   6.237  19.179  0.00  0.00    -0.006 A 
ATOM     14  C   UNL     1       3.238   6.690  18.079  0.00  0.00    +0.042 A 
ATOM     15  C   UNL     1       4.188   5.914  17.442  0.00  0.00    -0.049 A 
ATOM     16  C   UNL     1       4.411   4.631  17.943  0.00  0.00    -0.060 A 
ATOM     17  C   UNL     1       3.687   4.159  19.054  0.00  0.00    -0.050 A 
ATOM     18  C   UNL     1       2.722   4.960  19.694  0.00  0.00    +0.060 A 
ATOM     19  C   UNL     1       2.811   8.061  17.768  0.00  0.00    +0.253 C 
ATOM     20  O   UNL     1       3.292   8.702  16.853  0.00  0.00    -0.270 OA
ATOM     21  H   UNL     1       1.807   7.633  20.651  0.00  0.00    +0.052 HD
ATOM     22  H   UNL     1       0.531   6.981  19.540  0.00  0.00    +0.052 HD
ATOM     23  H   UNL     1       4.738   6.295  16.588  0.00  0.00    +0.063 HD
ATOM     24  H   UNL     1       5.151   3.989  17.470  0.00  0.00    +0.062 HD
ATOM     25  H   UNL     1       3.888   3.152  19.420  0.00  0.00    +0.062 HD
BRANCH  18  26
ATOM     26  C   UNL     1       1.945   4.468  20.886  0.00  0.00    +0.418 C 
ATOM     27  F   UNL     1       2.298   3.216  21.291  0.00  0.00    -0.166 F 
ATOM     28  F   UNL     1       0.606   4.421  20.648  0.00  0.00    -0.166 F 
ATOM     29  F   UNL     1       2.103   5.273  21.973  0.00  0.00    -0.166 F 
ENDBRANCH  18  26
ENDBRANCH   6  11
BRANCH   4  30
ATOM     30  C   UNL     1      -2.181   9.911  16.340  0.00  0.00    +0.022 C 
ATOM     31  C   UNL     1      -2.746  10.187  14.975  0.00  0.00    -0.033 C 
ATOM     32  C   UNL     1      -3.613   9.573  16.037  0.00  0.00    -0.033 C 
ATOM     33  H   UNL     1      -1.479   9.082  16.410  0.00  0.00    +0.050 HD
ATOM     34  H   UNL     1      -2.937  11.215  14.691  0.00  0.00    +0.028 HD
ATOM     35  H   UNL     1      -2.418   9.555  14.159  0.00  0.00    +0.028 HD
ATOM     36  H   UNL     1      -3.869   8.524  15.948  0.00  0.00    +0.028 HD
ATOM     37  H   UNL     1      -4.389  10.181  16.484  0.00  0.00    +0.028 HD
ENDBRANCH   4  30
BRANCH   1  38
ATOM     38  C   UNL     1       1.195  12.905  20.694  0.00  0.00    -0.012 C 
ATOM     39  H   UNL     1       2.184  12.644  21.099  0.00  0.00    +0.035 HD
BRANCH  38  40
ATOM     40  C   UNL     1       0.253  13.031  21.902  0.00  0.00    -0.058 C 
ATOM     41  H   UNL     1       0.755  13.473  22.769  0.00  0.00    +0.024 HD
ATOM     42  H   UNL     1      -0.127  12.049  22.207  0.00  0.00    +0.024 HD
ATOM     43  H   UNL     1      -0.614  13.655  21.659  0.00  0.00    +0.024 HD
ENDBRANCH  38  40
BRANCH  38  44
ATOM     44  C   UNL     1       1.318  14.227  19.907  0.00  0.00    +0.014 C 
ATOM     45  H   UNL     1       0.627  14.211  19.053  0.00  0.00    +0.035 HD
ATOM     46  H   UNL     1       1.002  15.069  20.534  0.00  0.00    +0.035 HD
BRANCH  44  47
ATOM     47  C   UNL     1       2.692  14.446  19.370  0.00  0.00    +0.134 A 
ATOM     48  N   UNL     1       3.026  14.528  18.098  0.00  0.00    -0.135 NA
ATOM     49  N   UNL     1       4.384  14.733  18.021  0.00  0.00    -0.138 NA
ATOM     50  C   UNL     1       4.848  14.775  19.246  0.00  0.00    +0.120 A 
ATOM     51  N   UNL     1       3.826  14.602  20.126  0.00  0.00    -0.320 N 
ATOM     52  H   UNL     1       5.881  14.924  19.530  0.00  0.00    +0.105 HD
BRANCH  51  53
ATOM     53  C   UNL     1       3.938  14.583  21.559  0.00  0.00    +0.014 C 
ATOM     54  H   UNL     1       3.093  14.038  21.986  0.00  0.00    +0.046 HD
ATOM     55  H   UNL     1       3.933  15.613  21.923  0.00  0.00    +0.046 HD
ATOM     56  H   UNL     1       4.872  14.083  21.829  0.00  0.00    +0.046 HD
ENDBRANCH  51  53
ENDBRANCH  44  47
ENDBRANCH  38  44
ENDBRANCH   1  38
TORSDOF 8
ENDMDL
MODEL 23
REMARK VINA RESULT:    -6.649      2.631      5.288
REMARK INTER + INTRA:          -9.526
REMARK INTER:                  -8.857
REMARK INTRA:                  -0.669
REMARK UNBOUND:                -0.157
REMARK  Name = 
REMARK  8 active torsions:
REMARK  status: ('A' for Active; 'I' for Inactive)
REMARK    1  A    between atoms: C_1  and  C_2
REMARK    2  A    between atoms: C_2  and  C_3
REMARK    3  A    between atoms: C_2  and  C_10
REMARK    4  A    between atoms: C_3  and  C_4
REMARK    5  A    between atoms: N_8  and  C_9
REMARK    6  A    between atoms: N_13  and  C_14
REMARK    7  A    between atoms: C_18  and  N_19
REMARK    8  A    between atoms: C_26  and  C_27
REMARK                            x       y       z     vdW  Elec       q    Type
REMARK                         _______ _______ _______ _____ _____    ______ ____
ROOT
ATOM      1  C   UNL     1       2.767   4.602  17.681  0.00  0.00    -0.038 A 
ATOM      2  C   UNL     1       4.126   4.779  17.403  0.00  0.00    -0.018 A 
ATOM      3  C   UNL     1       4.757   5.962  17.772  0.00  0.00    +0.121 A 
ATOM      4  N   UNL     1       6.130   6.114  17.450  0.00  0.00    -0.326 N 
ATOM      5  N   UNL     1       4.084   6.968  18.366  0.00  0.00    -0.217 NA
ATOM      6  C   UNL     1       2.768   6.815  18.642  0.00  0.00    +0.130 A 
ATOM      7  C   UNL     1       2.086   5.649  18.313  0.00  0.00    -0.018 A 
ATOM      8  H   UNL     1       4.693   4.010  16.891  0.00  0.00    +0.065 HD
ATOM      9  H   UNL     1       6.622   5.272  17.739  0.00  0.00    +0.148 HD
ATOM     10  H   UNL     1       1.030   5.537  18.530  0.00  0.00    +0.065 HD
ENDROOT
BRANCH   6  11
ATOM     11  N   UNL     1       2.137   7.902  19.275  0.00  0.00    -0.248 N 
ATOM     12  C   UNL     1       2.227   9.225  18.681  0.00  0.00    +0.048 C 
ATOM     13  C   UNL     1       1.449  10.074  19.637  0.00  0.00    -0.006 A 
ATOM     14  C   UNL     1       0.967   9.282  20.677  0.00  0.00    +0.042 A 
ATOM     15  C   UNL     1       0.210   9.792  21.714  0.00  0.00    -0.049 A 
ATOM     16  C   UNL     1      -0.066  11.159  21.696  0.00  0.00    -0.060 A 
ATOM     17  C   UNL     1       0.413  11.974  20.653  0.00  0.00    -0.050 A 
ATOM     18  C   UNL     1       1.184  11.440  19.602  0.00  0.00    +0.060 A 
ATOM     19  C   UNL     1       1.405   7.897  20.452  0.00  0.00    +0.253 C 
ATOM     20  O   UNL     1       1.128   6.993  21.219  0.00  0.00    -0.270 OA
ATOM     21  H   UNL     1       3.273   9.544  18.636  0.00  0.00    +0.052 HD
ATOM     22  H   UNL     1       1.760   9.221  17.691  0.00  0.00    +0.052 HD
ATOM     23  H   UNL     1      -0.150   9.149  22.511  0.00  0.00    +0.063 HD
ATOM     24  H   UNL     1      -0.659  11.599  22.495  0.00  0.00    +0.062 HD
ATOM     25  H   UNL     1       0.179  13.038  20.672  0.00  0.00    +0.062 HD
BRANCH  18  26
ATOM     26  C   UNL     1       1.706  12.303  18.484  0.00  0.00    +0.418 C 
ATOM     27  F   UNL     1       2.259  11.597  17.460  0.00  0.00    -0.166 F 
ATOM     28  F   UNL     1       2.668  13.169  18.905  0.00  0.00    -0.166 F 
ATOM     29  F   UNL     1       0.730  13.072  17.927  0.00  0.00    -0.166 F 
ENDBRANCH  18  26
ENDBRANCH   6  11
BRANCH   4  30
ATOM     30  C   UNL     1       6.786   7.370  17.831  0.00  0.00    +0.022 C 
ATOM     31  C   UNL     1       8.016   7.838  17.104  0.00  0.00    -0.033 C 
ATOM     32  C   UNL     1       8.117   7.376  18.529  0.00  0.00    -0.033 C 
ATOM     33  H   UNL     1       6.074   8.142  18.114  0.00  0.00    +0.050 HD
ATOM     34  H   UNL     1       8.433   7.205  16.330  0.00  0.00    +0.028 HD
ATOM     35  H   UNL     1       8.109   8.899  16.906  0.00  0.00    +0.028 HD
ATOM     36  H   UNL     1       8.271   8.120  19.301  0.00  0.00    +0.028 HD
ATOM     37  H   UNL     1       8.595   6.425  18.730  0.00  0.00    +0.028 HD
ENDBRANCH   4  30
BRANCH   1  38
ATOM     38  C   UNL     1       2.015   3.338  17.285  0.00  0.00    -0.012 C 
ATOM     39  H   UNL     1       2.244   3.122  16.230  0.00  0.00    +0.035 HD
BRANCH  38  40
ATOM     40  C   UNL     1       0.494   3.543  17.364  0.00  0.00    -0.058 C 
ATOM     41  H   UNL     1      -0.057   2.659  17.027  0.00  0.00    +0.024 HD
ATOM     42  H   UNL     1       0.179   4.386  16.738  0.00  0.00    +0.024 HD
ATOM     43  H   UNL     1       0.181   3.764  18.390  0.00  0.00    +0.024 HD
ENDBRANCH  38  40
BRANCH  38  44
ATOM     44  C   UNL     1       2.492   2.151  18.146  0.00  0.00    +0.014 C 
ATOM     45  H   UNL     1       1.938   1.245  17.863  0.00  0.00    +0.035 HD
ATOM     46  H   UNL     1       3.546   1.935  17.939  0.00  0.00    +0.035 HD
BRANCH  44  47
ATOM     47  C   UNL     1       2.270   2.376  19.604  0.00  0.00    +0.134 A 
ATOM     48  N   UNL     1       1.106   2.559  20.194  0.00  0.00    -0.135 NA
ATOM     49  N   UNL     1       1.327   2.732  21.540  0.00  0.00    -0.138 NA
ATOM     50  C   UNL     1       2.620   2.647  21.743  0.00  0.00    +0.120 A 
ATOM     51  N   UNL     1       3.252   2.424  20.560  0.00  0.00    -0.320 N 
ATOM     52  H   UNL     1       3.121   2.738  22.697  0.00  0.00    +0.105 HD
BRANCH  51  53
ATOM     53  C   UNL     1       4.670   2.276  20.374  0.00  0.00    +0.014 C 
ATOM     54  H   UNL     1       4.910   2.353  19.311  0.00  0.00    +0.046 HD
ATOM     55  H   UNL     1       4.970   1.294  20.749  0.00  0.00    +0.046 HD
ATOM     56  H   UNL     1       5.178   3.071  20.925  0.00  0.00    +0.046 HD
ENDBRANCH  51  53
ENDBRANCH  44  47
ENDBRANCH  38  44
ENDBRANCH   1  38
TORSDOF 8
ENDMDL
MODEL 24
REMARK VINA RESULT:    -6.639      4.242      8.887
REMARK INTER + INTRA:          -9.513
REMARK INTER:                  -8.864
REMARK INTRA:                  -0.649
REMARK UNBOUND:                -0.157
REMARK  Name = 
REMARK  8 active torsions:
REMARK  status: ('A' for Active; 'I' for Inactive)
REMARK    1  A    between atoms: C_1  and  C_2
REMARK    2  A    between atoms: C_2  and  C_3
REMARK    3  A    between atoms: C_2  and  C_10
REMARK    4  A    between atoms: C_3  and  C_4
REMARK    5  A    between atoms: N_8  and  C_9
REMARK    6  A    between atoms: N_13  and  C_14
REMARK    7  A    between atoms: C_18  and  N_19
REMARK    8  A    between atoms: C_26  and  C_27
REMARK                            x       y       z     vdW  Elec       q    Type
REMARK                         _______ _______ _______ _____ _____    ______ ____
ROOT
ATOM      1  C   UNL     1      -1.505  11.894  19.261  0.00  0.00    -0.038 A 
ATOM      2  C   UNL     1      -0.684  12.978  19.585  0.00  0.00    -0.018 A 
ATOM      3  C   UNL     1       0.645  12.756  19.934  0.00  0.00    +0.121 A 
ATOM      4  N   UNL     1       1.439  13.878  20.281  0.00  0.00    -0.326 N 
ATOM      5  N   UNL     1       1.161  11.513  20.001  0.00  0.00    -0.217 NA
ATOM      6  C   UNL     1       0.380  10.451  19.691  0.00  0.00    +0.130 A 
ATOM      7  C   UNL     1      -0.949  10.610  19.319  0.00  0.00    -0.018 A 
ATOM      8  H   UNL     1      -1.072  13.990  19.582  0.00  0.00    +0.065 HD
ATOM      9  H   UNL     1       1.309  14.595  19.572  0.00  0.00    +0.148 HD
ATOM     10  H   UNL     1      -1.571   9.755  19.080  0.00  0.00    +0.065 HD
ENDROOT
BRANCH   6  11
ATOM     11  N   UNL     1       0.993   9.187  19.770  0.00  0.00    -0.248 N 
ATOM     12  C   UNL     1       1.977   8.805  18.771  0.00  0.00    +0.048 C 
ATOM     13  C   UNL     1       2.372   7.427  19.201  0.00  0.00    -0.006 A 
ATOM     14  C   UNL     1       1.662   7.076  20.347  0.00  0.00    +0.042 A 
ATOM     15  C   UNL     1       1.817   5.855  20.976  0.00  0.00    -0.049 A 
ATOM     16  C   UNL     1       2.727   4.956  20.418  0.00  0.00    -0.060 A 
ATOM     17  C   UNL     1       3.452   5.295  19.260  0.00  0.00    -0.050 A 
ATOM     18  C   UNL     1       3.283   6.543  18.629  0.00  0.00    +0.060 A 
ATOM     19  C   UNL     1       0.780   8.193  20.713  0.00  0.00    +0.253 C 
ATOM     20  O   UNL     1       0.038   8.150  21.676  0.00  0.00    -0.270 OA
ATOM     21  H   UNL     1       1.514   8.789  17.779  0.00  0.00    +0.052 HD
ATOM     22  H   UNL     1       2.832   9.488  18.810  0.00  0.00    +0.052 HD
ATOM     23  H   UNL     1       1.249   5.610  21.867  0.00  0.00    +0.063 HD
ATOM     24  H   UNL     1       2.877   3.984  20.883  0.00  0.00    +0.062 HD
ATOM     25  H   UNL     1       4.152   4.568  18.850  0.00  0.00    +0.062 HD
BRANCH  18  26
ATOM     26  C   UNL     1       4.049   6.914  17.387  0.00  0.00    +0.418 C 
ATOM     27  F   UNL     1       5.272   7.456  17.640  0.00  0.00    -0.166 F 
ATOM     28  F   UNL     1       3.386   7.825  16.623  0.00  0.00    -0.166 F 
ATOM     29  F   UNL     1       4.272   5.841  16.579  0.00  0.00    -0.166 F 
ENDBRANCH  18  26
ENDBRANCH   6  11
BRANCH   4  30
ATOM     30  C   UNL     1       2.836  13.636  20.661  0.00  0.00    +0.022 C 
ATOM     31  C   UNL     1       3.523  14.534  21.651  0.00  0.00    -0.033 C 
ATOM     32  C   UNL     1       3.938  14.552  20.208  0.00  0.00    -0.033 C 
ATOM     33  H   UNL     1       3.069  12.576  20.732  0.00  0.00    +0.050 HD
ATOM     34  H   UNL     1       2.982  15.389  22.038  0.00  0.00    +0.028 HD
ATOM     35  H   UNL     1       4.193  14.073  22.366  0.00  0.00    +0.028 HD
ATOM     36  H   UNL     1       4.884  14.097  19.939  0.00  0.00    +0.028 HD
ATOM     37  H   UNL     1       3.675  15.413  19.606  0.00  0.00    +0.028 HD
ENDBRANCH   4  30
BRANCH   1  38
ATOM     38  C   UNL     1      -2.972  12.069  18.890  0.00  0.00    -0.012 C 
ATOM     39  H   UNL     1      -3.033  12.819  18.088  0.00  0.00    +0.035 HD
BRANCH  38  40
ATOM     40  C   UNL     1      -3.785  12.629  20.068  0.00  0.00    -0.058 C 
ATOM     41  H   UNL     1      -3.861  13.721  20.030  0.00  0.00    +0.024 HD
ATOM     42  H   UNL     1      -3.322  12.365  21.025  0.00  0.00    +0.024 HD
ATOM     43  H   UNL     1      -4.801  12.220  20.072  0.00  0.00    +0.024 HD
ENDBRANCH  38  40
BRANCH  38  44
ATOM     44  C   UNL     1      -3.544  10.736  18.365  0.00  0.00    +0.014 C 
ATOM     45  H   UNL     1      -2.948   9.901  18.757  0.00  0.00    +0.035 HD
ATOM     46  H   UNL     1      -4.560  10.586  18.747  0.00  0.00    +0.035 HD
BRANCH  44  47
ATOM     47  C   UNL     1      -3.516  10.649  16.876  0.00  0.00    +0.134 A 
ATOM     48  N   UNL     1      -4.402  11.166  16.050  0.00  0.00    -0.135 NA
ATOM     49  N   UNL     1      -4.020  10.866  14.763  0.00  0.00    -0.138 NA
ATOM     50  C   UNL     1      -2.907  10.176  14.832  0.00  0.00    +0.120 A 
ATOM     51  N   UNL     1      -2.552  10.015  16.135  0.00  0.00    -0.320 N 
ATOM     52  H   UNL     1      -2.347   9.787  13.992  0.00  0.00    +0.105 HD
BRANCH  51  53
ATOM     53  C   UNL     1      -1.393   9.312  16.614  0.00  0.00    +0.014 C 
ATOM     54  H   UNL     1      -1.380   8.301  16.200  0.00  0.00    +0.046 HD
ATOM     55  H   UNL     1      -1.442   9.262  17.705  0.00  0.00    +0.046 HD
ATOM     56  H   UNL     1      -0.500   9.853  16.292  0.00  0.00    +0.046 HD
ENDBRANCH  51  53
ENDBRANCH  44  47
ENDBRANCH  38  44
ENDBRANCH   1  38
TORSDOF 8
ENDMDL
MODEL 25
REMARK VINA RESULT:    -6.442      2.238      5.182
REMARK INTER + INTRA:          -9.235
REMARK INTER:                  -9.281
REMARK INTRA:                   0.046
REMARK UNBOUND:                -0.157
REMARK  Name = 
REMARK  8 active torsions:
REMARK  status: ('A' for Active; 'I' for Inactive)
REMARK    1  A    between atoms: C_1  and  C_2
REMARK    2  A    between atoms: C_2  and  C_3
REMARK    3  A    between atoms: C_2  and  C_10
REMARK    4  A    between atoms: C_3  and  C_4
REMARK    5  A    between atoms: N_8  and  C_9
REMARK    6  A    between atoms: N_13  and  C_14
REMARK    7  A    between atoms: C_18  and  N_19
REMARK    8  A    between atoms: C_26  and  C_27
REMARK                            x       y       z     vdW  Elec       q    Type
REMARK                         _______ _______ _______ _____ _____    ______ ____
ROOT
ATOM      1  C   UNL     1       4.357   3.476  19.723  0.00  0.00    -0.038 A 
ATOM      2  C   UNL     1       5.012   3.171  18.527  0.00  0.00    -0.018 A 
ATOM      3  C   UNL     1       4.999   4.089  17.481  0.00  0.00    +0.121 A 
ATOM      4  N   UNL     1       5.653   3.732  16.274  0.00  0.00    -0.326 N 
ATOM      5  N   UNL     1       4.340   5.260  17.575  0.00  0.00    -0.217 NA
ATOM      6  C   UNL     1       3.700   5.573  18.726  0.00  0.00    +0.130 A 
ATOM      7  C   UNL     1       3.691   4.705  19.811  0.00  0.00    -0.018 A 
ATOM      8  H   UNL     1       5.519   2.222  18.397  0.00  0.00    +0.065 HD
ATOM      9  H   UNL     1       6.578   3.375  16.503  0.00  0.00    +0.148 HD
ATOM     10  H   UNL     1       3.168   4.957  20.728  0.00  0.00    +0.065 HD
ENDROOT
BRANCH   6  11
ATOM     11  N   UNL     1       3.046   6.818  18.754  0.00  0.00    -0.248 N 
ATOM     12  C   UNL     1       2.199   7.156  19.885  0.00  0.00    +0.048 C 
ATOM     13  C   UNL     1       1.704   8.524  19.535  0.00  0.00    -0.006 A 
ATOM     14  C   UNL     1       2.235   8.911  18.307  0.00  0.00    +0.042 A 
ATOM     15  C   UNL     1       1.954  10.132  17.724  0.00  0.00    -0.049 A 
ATOM     16  C   UNL     1       1.098  10.991  18.414  0.00  0.00    -0.060 A 
ATOM     17  C   UNL     1       0.552  10.616  19.655  0.00  0.00    -0.050 A 
ATOM     18  C   UNL     1       0.848   9.368  20.238  0.00  0.00    +0.060 A 
ATOM     19  C   UNL     1       3.090   7.827  17.803  0.00  0.00    +0.253 C 
ATOM     20  O   UNL     1       3.675   7.899  16.739  0.00  0.00    -0.270 OA
ATOM     21  H   UNL     1       1.370   6.445  19.956  0.00  0.00    +0.052 HD
ATOM     22  H   UNL     1       2.796   7.178  20.803  0.00  0.00    +0.052 HD
ATOM     23  H   UNL     1       2.383  10.405  16.765  0.00  0.00    +0.063 HD
ATOM     24  H   UNL     1       0.851  11.962  17.988  0.00  0.00    +0.062 HD
ATOM     25  H   UNL     1      -0.114  11.311  20.165  0.00  0.00    +0.062 HD
BRANCH  18  26
ATOM     26  C   UNL     1       0.265   8.953  21.563  0.00  0.00    +0.418 C 
ATOM     27  F   UNL     1       1.198   8.763  22.536  0.00  0.00    -0.166 F 
ATOM     28  F   UNL     1      -0.432   7.787  21.479  0.00  0.00    -0.166 F 
ATOM     29  F   UNL     1      -0.608   9.875  22.053  0.00  0.00    -0.166 F 
ENDBRANCH  18  26
ENDBRANCH   6  11
BRANCH   4  30
ATOM     30  C   UNL     1       5.625   4.699  15.170  0.00  0.00    +0.022 C 
ATOM     31  C   UNL     1       5.727   4.231  13.745  0.00  0.00    -0.033 C 
ATOM     32  C   UNL     1       6.858   5.001  14.366  0.00  0.00    -0.033 C 
ATOM     33  H   UNL     1       4.940   5.523  15.357  0.00  0.00    +0.050 HD
ATOM     34  H   UNL     1       5.872   3.175  13.555  0.00  0.00    +0.028 HD
ATOM     35  H   UNL     1       5.115   4.735  13.007  0.00  0.00    +0.028 HD
ATOM     36  H   UNL     1       7.011   6.028  14.056  0.00  0.00    +0.028 HD
ATOM     37  H   UNL     1       7.771   4.471  14.607  0.00  0.00    +0.028 HD
ENDBRANCH   4  30
BRANCH   1  38
ATOM     38  C   UNL     1       4.317   2.506  20.897  0.00  0.00    -0.012 C 
ATOM     39  H   UNL     1       4.867   2.962  21.734  0.00  0.00    +0.035 HD
BRANCH  38  40
ATOM     40  C   UNL     1       5.044   1.194  20.566  0.00  0.00    -0.058 C 
ATOM     41  H   UNL     1       6.016   1.372  20.093  0.00  0.00    +0.024 HD
ATOM     42  H   UNL     1       4.452   0.580  19.878  0.00  0.00    +0.024 HD
ATOM     43  H   UNL     1       5.214   0.600  21.471  0.00  0.00    +0.024 HD
ENDBRANCH  38  40
BRANCH  38  44
ATOM     44  C   UNL     1       2.857   2.272  21.337  0.00  0.00    +0.014 C 
ATOM     45  H   UNL     1       2.772   1.289  21.820  0.00  0.00    +0.035 HD
ATOM     46  H   UNL     1       2.570   3.007  22.098  0.00  0.00    +0.035 HD
BRANCH  44  47
ATOM     47  C   UNL     1       1.904   2.293  20.190  0.00  0.00    +0.134 A 
ATOM     48  N   UNL     1       1.838   1.406  19.217  0.00  0.00    -0.135 NA
ATOM     49  N   UNL     1       0.832   1.782  18.358  0.00  0.00    -0.138 NA
ATOM     50  C   UNL     1       0.302   2.886  18.827  0.00  0.00    +0.120 A 
ATOM     51  N   UNL     1       0.940   3.245  19.973  0.00  0.00    -0.320 N 
ATOM     52  H   UNL     1      -0.515   3.438  18.383  0.00  0.00    +0.105 HD
BRANCH  51  53
ATOM     53  C   UNL     1       0.647   4.400  20.777  0.00  0.00    +0.014 C 
ATOM     54  H   UNL     1       1.346   4.451  21.615  0.00  0.00    +0.046 HD
ATOM     55  H   UNL     1      -0.374   4.311  21.156  0.00  0.00    +0.046 HD
ATOM     56  H   UNL     1       0.752   5.292  20.156  0.00  0.00    +0.046 HD
ENDBRANCH  51  53
ENDBRANCH  44  47
ENDBRANCH  38  44
ENDBRANCH   1  38
TORSDOF 8
ENDMDL
MODEL 26
REMARK VINA RESULT:    -6.399      3.657      8.713
REMARK INTER + INTRA:          -9.174
REMARK INTER:                  -8.665
REMARK INTRA:                  -0.510
REMARK UNBOUND:                -0.157
REMARK  Name = 
REMARK  8 active torsions:
REMARK  status: ('A' for Active; 'I' for Inactive)
REMARK    1  A    between atoms: C_1  and  C_2
REMARK    2  A    between atoms: C_2  and  C_3
REMARK    3  A    between atoms: C_2  and  C_10
REMARK    4  A    between atoms: C_3  and  C_4
REMARK    5  A    between atoms: N_8  and  C_9
REMARK    6  A    between atoms: N_13  and  C_14
REMARK    7  A    between atoms: C_18  and  N_19
REMARK    8  A    between atoms: C_26  and  C_27
REMARK                            x       y       z     vdW  Elec       q    Type
REMARK                         _______ _______ _______ _____ _____    ______ ____
ROOT
ATOM      1  C   UNL     1      -1.349  11.955  19.344  0.00  0.00    -0.038 A 
ATOM      2  C   UNL     1      -0.594  13.039  19.800  0.00  0.00    -0.018 A 
ATOM      3  C   UNL     1       0.784  12.909  19.944  0.00  0.00    +0.121 A 
ATOM      4  N   UNL     1       1.511  14.024  20.433  0.00  0.00    -0.326 N 
ATOM      5  N   UNL     1       1.415  11.747  19.687  0.00  0.00    -0.217 NA
ATOM      6  C   UNL     1       0.701  10.685  19.245  0.00  0.00    +0.130 A 
ATOM      7  C   UNL     1      -0.675  10.759  19.065  0.00  0.00    -0.018 A 
ATOM      8  H   UNL     1      -1.070  13.979  20.056  0.00  0.00    +0.065 HD
ATOM      9  H   UNL     1       1.223  14.849  19.912  0.00  0.00    +0.148 HD
ATOM     10  H   UNL     1      -1.243   9.902  18.719  0.00  0.00    +0.065 HD
ENDROOT
BRANCH   6  11
ATOM     11  N   UNL     1       1.432   9.512  18.984  0.00  0.00    -0.248 N 
ATOM     12  C   UNL     1       1.226   8.341  19.821  0.00  0.00    +0.048 C 
ATOM     13  C   UNL     1       2.168   7.339  19.231  0.00  0.00    -0.006 A 
ATOM     14  C   UNL     1       2.840   7.911  18.153  0.00  0.00    +0.042 A 
ATOM     15  C   UNL     1       3.779   7.222  17.408  0.00  0.00    -0.049 A 
ATOM     16  C   UNL     1       4.045   5.902  17.773  0.00  0.00    -0.060 A 
ATOM     17  C   UNL     1       3.375   5.309  18.860  0.00  0.00    -0.050 A 
ATOM     18  C   UNL     1       2.421   6.023  19.610  0.00  0.00    +0.060 A 
ATOM     19  C   UNL     1       2.377   9.296  17.993  0.00  0.00    +0.253 C 
ATOM     20  O   UNL     1       2.809  10.033  17.126  0.00  0.00    -0.270 OA
ATOM     21  H   UNL     1       1.496   8.571  20.856  0.00  0.00    +0.052 HD
ATOM     22  H   UNL     1       0.189   8.001  19.737  0.00  0.00    +0.052 HD
ATOM     23  H   UNL     1       4.287   7.695  16.575  0.00  0.00    +0.063 HD
ATOM     24  H   UNL     1       4.778   5.325  17.212  0.00  0.00    +0.062 HD
ATOM     25  H   UNL     1       3.609   4.276  19.118  0.00  0.00    +0.062 HD
BRANCH  18  26
ATOM     26  C   UNL     1       1.702   5.401  20.778  0.00  0.00    +0.418 C 
ATOM     27  F   UNL     1       2.502   4.631  21.566  0.00  0.00    -0.166 F 
ATOM     28  F   UNL     1       0.676   4.598  20.385  0.00  0.00    -0.166 F 
ATOM     29  F   UNL     1       1.150   6.336  21.600  0.00  0.00    -0.166 F 
ENDBRANCH  18  26
ENDBRANCH   6  11
BRANCH   4  30
ATOM     30  C   UNL     1       2.962  13.876  20.595  0.00  0.00    +0.022 C 
ATOM     31  C   UNL     1       3.673  14.539  21.741  0.00  0.00    -0.033 C 
ATOM     32  C   UNL     1       3.898  15.023  20.338  0.00  0.00    -0.033 C 
ATOM     33  H   UNL     1       3.311  12.881  20.326  0.00  0.00    +0.050 HD
ATOM     34  H   UNL     1       3.100  15.167  22.413  0.00  0.00    +0.028 HD
ATOM     35  H   UNL     1       4.472  13.988  22.223  0.00  0.00    +0.028 HD
ATOM     36  H   UNL     1       4.844  14.797  19.861  0.00  0.00    +0.028 HD
ATOM     37  H   UNL     1       3.473  15.976  20.046  0.00  0.00    +0.028 HD
ENDBRANCH   4  30
BRANCH   1  38
ATOM     38  C   UNL     1      -2.861  12.028  19.185  0.00  0.00    -0.012 C 
ATOM     39  H   UNL     1      -3.087  12.783  18.417  0.00  0.00    +0.035 HD
BRANCH  38  40
ATOM     40  C   UNL     1      -3.539  12.510  20.477  0.00  0.00    -0.058 C 
ATOM     41  H   UNL     1      -3.773  11.680  21.152  0.00  0.00    +0.024 HD
ATOM     42  H   UNL     1      -4.479  13.029  20.257  0.00  0.00    +0.024 HD
ATOM     43  H   UNL     1      -2.896  13.213  21.018  0.00  0.00    +0.024 HD
ENDBRANCH  38  40
BRANCH  38  44
ATOM     44  C   UNL     1      -3.407  10.664  18.711  0.00  0.00    +0.014 C 
ATOM     45  H   UNL     1      -2.801   9.856  19.144  0.00  0.00    +0.035 HD
ATOM     46  H   UNL     1      -4.424  10.513  19.090  0.00  0.00    +0.035 HD
BRANCH  44  47
ATOM     47  C   UNL     1      -3.362  10.515  17.228  0.00  0.00    +0.134 A 
ATOM     48  N   UNL     1      -2.577   9.701  16.551  0.00  0.00    -0.135 NA
ATOM     49  N   UNL     1      -2.839   9.863  15.211  0.00  0.00    -0.138 NA
ATOM     50  C   UNL     1      -3.780  10.769  15.098  0.00  0.00    +0.120 A 
ATOM     51  N   UNL     1      -4.141  11.206  16.335  0.00  0.00    -0.320 N 
ATOM     52  H   UNL     1      -4.214  11.124  14.173  0.00  0.00    +0.105 HD
BRANCH  51  53
ATOM     53  C   UNL     1      -5.139  12.200  16.622  0.00  0.00    +0.014 C 
ATOM     54  H   UNL     1      -4.979  13.074  15.987  0.00  0.00    +0.046 HD
ATOM     55  H   UNL     1      -5.052  12.487  17.673  0.00  0.00    +0.046 HD
ATOM     56  H   UNL     1      -6.124  11.773  16.419  0.00  0.00    +0.046 HD
ENDBRANCH  51  53
ENDBRANCH  44  47
ENDBRANCH  38  44
ENDBRANCH   1  38
TORSDOF 8
ENDMDL
