MODEL 1
REMARK VINA RESULT:    -8.066      0.000      0.000
REMARK INTER + INTRA:          -9.593
REMARK INTER:                  -8.966
REMARK INTRA:                  -0.627
REMARK UNBOUND:                -0.113
REMARK  Name = 
REMARK  3 active torsions:
REMARK  status: ('A' for Active; 'I' for Inactive)
REMARK    1  A    between atoms: C_2  and  C_4
REMARK    2  A    between atoms: C_7  and  N_8
REMARK    3  A    between atoms: C_14  and  C_15
REMARK                            x       y       z     vdW  Elec       q    Type
REMARK                         _______ _______ _______ _____ _____    ______ ____
ROOT
ATOM      1  N   UNL     1       2.435   6.689  19.161  0.00  0.00    -0.296 N 
ATOM      2  C   UNL     1       2.258   7.848  18.453  0.00  0.00    +0.302 C 
ATOM      3  O   UNL     1       2.740   8.032  17.335  0.00  0.00    -0.253 OA
ATOM      4  N   UNL     1       1.569   8.830  19.118  0.00  0.00    -0.285 N 
ATOM      5  C   UNL     1       0.975   8.759  20.440  0.00  0.00    +0.017 C 
ATOM      6  C   UNL     1       0.559  10.193  20.761  0.00  0.00    -0.029 C 
ATOM      7  C   UNL     1       0.383  10.872  19.391  0.00  0.00    +0.004 C 
ATOM      8  C   UNL     1       1.454  10.158  18.551  0.00  0.00    +0.023 C 
ATOM      9  H   UNL     1       1.675   6.410  19.771  0.00  0.00    +0.151 HD
ATOM     10  H   UNL     1       0.127   8.071  20.399  0.00  0.00    +0.047 HD
ATOM     11  H   UNL     1       1.698   8.375  21.166  0.00  0.00    +0.047 HD
ATOM     12  H   UNL     1       1.397  10.682  21.278  0.00  0.00    +0.029 HD
ATOM     13  H   UNL     1      -0.302  10.261  21.428  0.00  0.00    +0.029 HD
ATOM     14  H   UNL     1       0.656  11.930  19.499  0.00  0.00    +0.037 HD
ATOM     15  H   UNL     1       1.276  10.133  17.470  0.00  0.00    +0.047 HD
ATOM     16  H   UNL     1       2.426  10.642  18.712  0.00  0.00    +0.047 HD
ENDROOT
BRANCH   1  20
ATOM     17  C   UNL     1       2.930   3.238  19.236  0.00  0.00    +0.062 C 
ATOM     18  C   UNL     1       4.372   3.660  19.479  0.00  0.00    -0.038 C 
ATOM     19  C   UNL     1       4.322   5.175  19.567  0.00  0.00    -0.034 C 
ATOM     20  C   UNL     1       3.201   5.592  18.615  0.00  0.00    +0.025 C 
ATOM     21  C   UNL     1       2.349   4.343  18.350  0.00  0.00    -0.021 C 
ATOM     22  H   UNL     1       2.905   2.270  18.721  0.00  0.00    +0.042 HD
ATOM     23  H   UNL     1       4.804   3.214  20.382  0.00  0.00    +0.027 HD
ATOM     24  H   UNL     1       4.996   3.371  18.622  0.00  0.00    +0.027 HD
ATOM     25  H   UNL     1       4.122   5.494  20.596  0.00  0.00    +0.028 HD
ATOM     26  H   UNL     1       5.282   5.624  19.285  0.00  0.00    +0.028 HD
ATOM     27  H   UNL     1       3.641   5.929  17.669  0.00  0.00    +0.050 HD
ATOM     28  H   UNL     1       2.441   4.060  17.287  0.00  0.00    +0.029 HD
ATOM     29  H   UNL     1       1.277   4.515  18.534  0.00  0.00    +0.029 HD
BRANCH  17  31
ATOM     30  O   UNL     1       2.586   2.606  21.491  0.00  0.00    -0.246 OA
ATOM     31  C   UNL     1       2.037   3.153  20.490  0.00  0.00    +0.359 C 
ATOM     32  O   UNL     1       0.867   3.616  20.380  0.00  0.00    -0.246 OA
ENDBRANCH  17  31
ENDBRANCH   1  20
BRANCH   7  33
ATOM     33  C   UNL     1      -0.981  10.850  18.725  0.00  0.00    -0.008 A 
ATOM     34  C   UNL     1      -1.146  10.010  17.609  0.00  0.00    -0.056 A 
ATOM     35  C   UNL     1      -2.368   9.932  16.940  0.00  0.00    -0.061 A 
ATOM     36  C   UNL     1      -3.450  10.701  17.367  0.00  0.00    -0.059 A 
ATOM     37  C   UNL     1      -3.308  11.537  18.469  0.00  0.00    -0.026 A 
ATOM     38  C   UNL     1      -2.085  11.609  19.130  0.00  0.00    +0.127 A 
ATOM     39  F   UNL     1      -1.995  12.440  20.173  0.00  0.00    -0.205 F 
ATOM     40  H   UNL     1      -0.316   9.401  17.257  0.00  0.00    +0.062 HD
ATOM     41  H   UNL     1      -2.472   9.264  16.086  0.00  0.00    +0.062 HD
ATOM     42  H   UNL     1      -4.403  10.640  16.847  0.00  0.00    +0.062 HD
ATOM     43  H   UNL     1      -4.141  12.136  18.824  0.00  0.00    +0.065 HD
ENDBRANCH   7  33
TORSDOF 3
ENDMDL
MODEL 2
REMARK VINA RESULT:    -7.872      0.448      0.790
REMARK INTER + INTRA:          -9.365
REMARK INTER:                  -8.733
REMARK INTRA:                  -0.632
REMARK UNBOUND:                -0.113
REMARK  Name = 
REMARK  3 active torsions:
REMARK  status: ('A' for Active; 'I' for Inactive)
REMARK    1  A    between atoms: C_2  and  C_4
REMARK    2  A    between atoms: C_7  and  N_8
REMARK    3  A    between atoms: C_14  and  C_15
REMARK                            x       y       z     vdW  Elec       q    Type
REMARK                         _______ _______ _______ _____ _____    ______ ____
ROOT
ATOM      1  N   UNL     1       2.189   7.035  19.190  0.00  0.00    -0.296 N 
ATOM      2  C   UNL     1       1.973   8.190  18.485  0.00  0.00    +0.302 C 
ATOM      3  O   UNL     1       2.446   8.392  17.366  0.00  0.00    -0.253 OA
ATOM      4  N   UNL     1       1.254   9.147  19.154  0.00  0.00    -0.285 N 
ATOM      5  C   UNL     1       0.666   9.055  20.477  0.00  0.00    +0.017 C 
ATOM      6  C   UNL     1       0.206  10.473  20.803  0.00  0.00    -0.029 C 
ATOM      7  C   UNL     1       0.004  11.150  19.436  0.00  0.00    +0.004 C 
ATOM      8  C   UNL     1       1.095  10.472  18.591  0.00  0.00    +0.023 C 
ATOM      9  H   UNL     1       1.439   6.731  19.800  0.00  0.00    +0.151 HD
ATOM     10  H   UNL     1      -0.159   8.340  20.437  0.00  0.00    +0.047 HD
ATOM     11  H   UNL     1       1.403   8.692  21.201  0.00  0.00    +0.047 HD
ATOM     12  H   UNL     1       1.029  10.988  21.320  0.00  0.00    +0.029 HD
ATOM     13  H   UNL     1      -0.656  10.513  21.473  0.00  0.00    +0.029 HD
ATOM     14  H   UNL     1       0.244  12.216  19.545  0.00  0.00    +0.037 HD
ATOM     15  H   UNL     1       0.916  10.445  17.510  0.00  0.00    +0.047 HD
ATOM     16  H   UNL     1       2.052  10.987  18.751  0.00  0.00    +0.047 HD
ENDROOT
BRANCH   1  20
ATOM     17  C   UNL     1       2.771   3.598  19.230  0.00  0.00    +0.062 C 
ATOM     18  C   UNL     1       4.199   4.053  19.492  0.00  0.00    -0.038 C 
ATOM     19  C   UNL     1       4.110   5.565  19.598  0.00  0.00    -0.034 C 
ATOM     20  C   UNL     1       2.988   5.965  18.639  0.00  0.00    +0.025 C 
ATOM     21  C   UNL     1       2.170   4.698  18.351  0.00  0.00    -0.021 C 
ATOM     22  H   UNL     1       2.776   2.635  18.704  0.00  0.00    +0.042 HD
ATOM     23  H   UNL     1       4.634   3.607  20.395  0.00  0.00    +0.027 HD
ATOM     24  H   UNL     1       4.839   3.790  18.638  0.00  0.00    +0.027 HD
ATOM     25  H   UNL     1       3.891   5.866  20.628  0.00  0.00    +0.028 HD
ATOM     26  H   UNL     1       5.061   6.042  19.330  0.00  0.00    +0.028 HD
ATOM     27  H   UNL     1       3.428   6.324  17.701  0.00  0.00    +0.050 HD
ATOM     28  H   UNL     1       2.280   4.430  17.286  0.00  0.00    +0.029 HD
ATOM     29  H   UNL     1       1.092   4.840  18.525  0.00  0.00    +0.029 HD
BRANCH  17  31
ATOM     30  O   UNL     1       0.888   4.276  20.493  0.00  0.00    -0.246 OA
ATOM     31  C   UNL     1       1.868   3.475  20.474  0.00  0.00    +0.359 C 
ATOM     32  O   UNL     1       2.208   2.613  21.332  0.00  0.00    -0.246 OA
ENDBRANCH  17  31
ENDBRANCH   1  20
BRANCH   7  33
ATOM     33  C   UNL     1      -1.360  11.086  18.773  0.00  0.00    -0.008 A 
ATOM     34  C   UNL     1      -1.508  10.222  17.672  0.00  0.00    -0.056 A 
ATOM     35  C   UNL     1      -2.730  10.106  17.008  0.00  0.00    -0.061 A 
ATOM     36  C   UNL     1      -3.828  10.858  17.424  0.00  0.00    -0.059 A 
ATOM     37  C   UNL     1      -3.702  11.717  18.510  0.00  0.00    -0.026 A 
ATOM     38  C   UNL     1      -2.480  11.827  19.167  0.00  0.00    +0.127 A 
ATOM     39  F   UNL     1      -2.406  12.679  20.195  0.00  0.00    -0.205 F 
ATOM     40  H   UNL     1      -0.666   9.625  17.329  0.00  0.00    +0.062 HD
ATOM     41  H   UNL     1      -2.820   9.420  16.166  0.00  0.00    +0.062 HD
ATOM     42  H   UNL     1      -4.779  10.767  16.906  0.00  0.00    +0.062 HD
ATOM     43  H   UNL     1      -4.548  12.303  18.856  0.00  0.00    +0.065 HD
ENDBRANCH   7  33
TORSDOF 3
ENDMDL
MODEL 3
REMARK VINA RESULT:    -7.734      3.180      7.595
REMARK INTER + INTRA:          -9.203
REMARK INTER:                  -8.532
REMARK INTRA:                  -0.671
REMARK UNBOUND:                -0.113
REMARK  Name = 
REMARK  3 active torsions:
REMARK  status: ('A' for Active; 'I' for Inactive)
REMARK    1  A    between atoms: C_2  and  C_4
REMARK    2  A    between atoms: C_7  and  N_8
REMARK    3  A    between atoms: C_14  and  C_15
REMARK                            x       y       z     vdW  Elec       q    Type
REMARK                         _______ _______ _______ _____ _____    ______ ____
ROOT
ATOM      1  N   UNL     1       0.922   9.627  18.928  0.00  0.00    -0.296 N 
ATOM      2  C   UNL     1       1.394   8.661  19.777  0.00  0.00    +0.302 C 
ATOM      3  O   UNL     1       1.145   8.647  20.983  0.00  0.00    -0.253 OA
ATOM      4  N   UNL     1       2.239   7.749  19.198  0.00  0.00    -0.285 N 
ATOM      5  C   UNL     1       2.639   7.665  17.806  0.00  0.00    +0.017 C 
ATOM      6  C   UNL     1       3.761   6.631  17.781  0.00  0.00    -0.029 C 
ATOM      7  C   UNL     1       3.523   5.756  19.024  0.00  0.00    +0.004 C 
ATOM      8  C   UNL     1       2.937   6.776  20.014  0.00  0.00    +0.023 C 
ATOM      9  H   UNL     1       0.735   9.339  17.974  0.00  0.00    +0.151 HD
ATOM     10  H   UNL     1       1.770   7.363  17.217  0.00  0.00    +0.047 HD
ATOM     11  H   UNL     1       2.979   8.641  17.445  0.00  0.00    +0.047 HD
ATOM     12  H   UNL     1       4.715   7.160  17.914  0.00  0.00    +0.029 HD
ATOM     13  H   UNL     1       3.835   6.086  16.837  0.00  0.00    +0.029 HD
ATOM     14  H   UNL     1       4.501   5.417  19.393  0.00  0.00    +0.037 HD
ATOM     15  H   UNL     1       2.301   6.365  20.805  0.00  0.00    +0.047 HD
ATOM     16  H   UNL     1       3.756   7.321  20.502  0.00  0.00    +0.047 HD
ENDROOT
BRANCH   1  20
ATOM     17  C   UNL     1      -2.023  11.408  18.371  0.00  0.00    +0.062 C 
ATOM     18  C   UNL     1      -1.076  12.595  18.459  0.00  0.00    -0.038 C 
ATOM     19  C   UNL     1       0.303  11.980  18.615  0.00  0.00    -0.034 C 
ATOM     20  C   UNL     1       0.076  10.695  19.411  0.00  0.00    +0.025 C 
ATOM     21  C   UNL     1      -1.419  10.362  19.312  0.00  0.00    -0.021 C 
ATOM     22  H   UNL     1      -3.026  11.703  18.706  0.00  0.00    +0.042 HD
ATOM     23  H   UNL     1      -1.131  13.255  17.584  0.00  0.00    +0.027 HD
ATOM     24  H   UNL     1      -1.306  13.193  19.352  0.00  0.00    +0.027 HD
ATOM     25  H   UNL     1       0.747  11.778  17.634  0.00  0.00    +0.028 HD
ATOM     26  H   UNL     1       0.989  12.662  19.132  0.00  0.00    +0.028 HD
ATOM     27  H   UNL     1       0.331  10.874  20.462  0.00  0.00    +0.050 HD
ATOM     28  H   UNL     1      -1.877  10.447  20.313  0.00  0.00    +0.029 HD
ATOM     29  H   UNL     1      -1.602   9.330  18.974  0.00  0.00    +0.029 HD
BRANCH  17  31
ATOM     30  O   UNL     1      -1.658   9.580  16.913  0.00  0.00    -0.246 OA
ATOM     31  C   UNL     1      -2.143  10.747  16.983  0.00  0.00    +0.359 C 
ATOM     32  O   UNL     1      -2.688  11.437  16.077  0.00  0.00    -0.246 OA
ENDBRANCH  17  31
ENDBRANCH   1  20
BRANCH   7  33
ATOM     33  C   UNL     1       2.660   4.513  18.901  0.00  0.00    -0.008 A 
ATOM     34  C   UNL     1       1.609   4.357  19.823  0.00  0.00    -0.056 A 
ATOM     35  C   UNL     1       0.769   3.243  19.776  0.00  0.00    -0.061 A 
ATOM     36  C   UNL     1       0.970   2.255  18.813  0.00  0.00    -0.059 A 
ATOM     37  C   UNL     1       2.003   2.391  17.892  0.00  0.00    -0.026 A 
ATOM     38  C   UNL     1       2.836   3.505  17.946  0.00  0.00    +0.127 A 
ATOM     39  F   UNL     1       3.824   3.580  17.049  0.00  0.00    -0.205 F 
ATOM     40  H   UNL     1       1.433   5.115  20.583  0.00  0.00    +0.062 HD
ATOM     41  H   UNL     1      -0.044   3.154  20.495  0.00  0.00    +0.062 HD
ATOM     42  H   UNL     1       0.316   1.388  18.777  0.00  0.00    +0.062 HD
ATOM     43  H   UNL     1       2.169   1.638  17.128  0.00  0.00    +0.065 HD
ENDBRANCH   7  33
TORSDOF 3
ENDMDL
MODEL 4
REMARK VINA RESULT:    -7.687      3.483      7.733
REMARK INTER + INTRA:          -9.147
REMARK INTER:                  -8.724
REMARK INTRA:                  -0.424
REMARK UNBOUND:                -0.113
REMARK  Name = 
REMARK  3 active torsions:
REMARK  status: ('A' for Active; 'I' for Inactive)
REMARK    1  A    between atoms: C_2  and  C_4
REMARK    2  A    between atoms: C_7  and  N_8
REMARK    3  A    between atoms: C_14  and  C_15
REMARK                            x       y       z     vdW  Elec       q    Type
REMARK                         _______ _______ _______ _____ _____    ______ ____
ROOT
ATOM      1  N   UNL     1       1.253   9.301  19.597  0.00  0.00    -0.296 N 
ATOM      2  C   UNL     1       1.863   8.778  18.487  0.00  0.00    +0.302 C 
ATOM      3  O   UNL     1       1.905   9.365  17.405  0.00  0.00    -0.253 OA
ATOM      4  N   UNL     1       2.358   7.509  18.645  0.00  0.00    -0.285 N 
ATOM      5  C   UNL     1       2.352   6.696  19.847  0.00  0.00    +0.017 C 
ATOM      6  C   UNL     1       2.801   5.311  19.386  0.00  0.00    -0.029 C 
ATOM      7  C   UNL     1       3.609   5.562  18.101  0.00  0.00    +0.004 C 
ATOM      8  C   UNL     1       2.878   6.778  17.508  0.00  0.00    +0.023 C 
ATOM      9  H   UNL     1       1.656   9.052  20.493  0.00  0.00    +0.151 HD
ATOM     10  H   UNL     1       3.037   7.145  20.569  0.00  0.00    +0.047 HD
ATOM     11  H   UNL     1       1.350   6.671  20.289  0.00  0.00    +0.047 HD
ATOM     12  H   UNL     1       1.903   4.734  19.118  0.00  0.00    +0.029 HD
ATOM     13  H   UNL     1       3.320   4.739  20.158  0.00  0.00    +0.029 HD
ATOM     14  H   UNL     1       3.468   4.698  17.437  0.00  0.00    +0.037 HD
ATOM     15  H   UNL     1       3.471   7.414  16.842  0.00  0.00    +0.047 HD
ATOM     16  H   UNL     1       2.003   6.435  16.941  0.00  0.00    +0.047 HD
ENDROOT
BRANCH   1  20
ATOM     17  C   UNL     1      -0.440  11.707  21.468  0.00  0.00    +0.062 C 
ATOM     18  C   UNL     1      -1.446  11.580  20.334  0.00  0.00    -0.038 C 
ATOM     19  C   UNL     1      -0.894  10.477  19.448  0.00  0.00    -0.034 C 
ATOM     20  C   UNL     1       0.626  10.602  19.559  0.00  0.00    +0.025 C 
ATOM     21  C   UNL     1       0.918  11.441  20.811  0.00  0.00    -0.021 C 
ATOM     22  H   UNL     1      -0.478  12.718  21.891  0.00  0.00    +0.042 HD
ATOM     23  H   UNL     1      -2.460  11.352  20.683  0.00  0.00    +0.027 HD
ATOM     24  H   UNL     1      -1.483  12.516  19.759  0.00  0.00    +0.027 HD
ATOM     25  H   UNL     1      -1.248   9.498  19.788  0.00  0.00    +0.028 HD
ATOM     26  H   UNL     1      -1.235  10.588  18.412  0.00  0.00    +0.028 HD
ATOM     27  H   UNL     1       1.008  11.132  18.679  0.00  0.00    +0.050 HD
ATOM     28  H   UNL     1       1.382  12.395  20.508  0.00  0.00    +0.029 HD
ATOM     29  H   UNL     1       1.631  10.951  21.493  0.00  0.00    +0.029 HD
BRANCH  17  31
ATOM     30  O   UNL     1      -1.602  10.871  23.353  0.00  0.00    -0.246 OA
ATOM     31  C   UNL     1      -0.590  10.687  22.615  0.00  0.00    +0.359 C 
ATOM     32  O   UNL     1       0.307   9.803  22.702  0.00  0.00    -0.246 OA
ENDBRANCH  17  31
ENDBRANCH   1  20
BRANCH   7  33
ATOM     33  C   UNL     1       5.107   5.783  18.200  0.00  0.00    -0.008 A 
ATOM     34  C   UNL     1       5.760   5.303  19.351  0.00  0.00    -0.056 A 
ATOM     35  C   UNL     1       7.136   5.464  19.519  0.00  0.00    -0.061 A 
ATOM     36  C   UNL     1       7.888   6.119  18.544  0.00  0.00    -0.059 A 
ATOM     37  C   UNL     1       7.262   6.598  17.398  0.00  0.00    -0.026 A 
ATOM     38  C   UNL     1       5.889   6.433  17.239  0.00  0.00    +0.127 A 
ATOM     39  F   UNL     1       5.332   6.928  16.129  0.00  0.00    -0.205 F 
ATOM     40  H   UNL     1       5.194   4.790  20.126  0.00  0.00    +0.062 HD
ATOM     41  H   UNL     1       7.617   5.073  20.414  0.00  0.00    +0.062 HD
ATOM     42  H   UNL     1       8.960   6.244  18.674  0.00  0.00    +0.062 HD
ATOM     43  H   UNL     1       7.832   7.101  16.623  0.00  0.00    +0.065 HD
ENDBRANCH   7  33
TORSDOF 3
ENDMDL
MODEL 5
REMARK VINA RESULT:    -7.676      3.663      7.765
REMARK INTER + INTRA:          -9.134
REMARK INTER:                  -8.549
REMARK INTRA:                  -0.585
REMARK UNBOUND:                -0.113
REMARK  Name = 
REMARK  3 active torsions:
REMARK  status: ('A' for Active; 'I' for Inactive)
REMARK    1  A    between atoms: C_2  and  C_4
REMARK    2  A    between atoms: C_7  and  N_8
REMARK    3  A    between atoms: C_14  and  C_15
REMARK                            x       y       z     vdW  Elec       q    Type
REMARK                         _______ _______ _______ _____ _____    ______ ____
ROOT
ATOM      1  N   UNL     1       1.242   9.347  19.532  0.00  0.00    -0.296 N 
ATOM      2  C   UNL     1       1.907   8.892  18.424  0.00  0.00    +0.302 C 
ATOM      3  O   UNL     1       1.994   9.541  17.380  0.00  0.00    -0.253 OA
ATOM      4  N   UNL     1       2.404   7.619  18.532  0.00  0.00    -0.285 N 
ATOM      5  C   UNL     1       2.349   6.738  19.684  0.00  0.00    +0.017 C 
ATOM      6  C   UNL     1       2.830   5.385  19.166  0.00  0.00    -0.029 C 
ATOM      7  C   UNL     1       3.696   5.714  17.937  0.00  0.00    +0.004 C 
ATOM      8  C   UNL     1       2.984   6.958  17.381  0.00  0.00    +0.023 C 
ATOM      9  H   UNL     1       1.604   9.049  20.430  0.00  0.00    +0.151 HD
ATOM     10  H   UNL     1       2.996   7.149  20.461  0.00  0.00    +0.047 HD
ATOM     11  H   UNL     1       1.328   6.682  20.076  0.00  0.00    +0.047 HD
ATOM     12  H   UNL     1       1.952   4.819  18.823  0.00  0.00    +0.029 HD
ATOM     13  H   UNL     1       3.318   4.772  19.927  0.00  0.00    +0.029 HD
ATOM     14  H   UNL     1       3.593   4.889  17.219  0.00  0.00    +0.037 HD
ATOM     15  H   UNL     1       3.602   7.635  16.781  0.00  0.00    +0.047 HD
ATOM     16  H   UNL     1       2.139   6.644  16.754  0.00  0.00    +0.047 HD
ENDROOT
BRANCH   1  20
ATOM     17  C   UNL     1      -0.432  11.693  21.494  0.00  0.00    +0.062 C 
ATOM     18  C   UNL     1      -1.457  11.589  20.375  0.00  0.00    -0.038 C 
ATOM     19  C   UNL     1      -0.915  10.513  19.451  0.00  0.00    -0.034 C 
ATOM     20  C   UNL     1       0.606  10.644  19.539  0.00  0.00    +0.025 C 
ATOM     21  C   UNL     1       0.915  11.453  20.807  0.00  0.00    -0.021 C 
ATOM     22  H   UNL     1      -0.469  12.693  21.944  0.00  0.00    +0.042 HD
ATOM     23  H   UNL     1      -2.464  11.346  20.735  0.00  0.00    +0.027 HD
ATOM     24  H   UNL     1      -1.511  12.539  19.826  0.00  0.00    +0.027 HD
ATOM     25  H   UNL     1      -1.256   9.523  19.772  0.00  0.00    +0.028 HD
ATOM     26  H   UNL     1      -1.275  10.648  18.424  0.00  0.00    +0.028 HD
ATOM     27  H   UNL     1       0.969  11.200  18.666  0.00  0.00    +0.050 HD
ATOM     28  H   UNL     1       1.368  12.418  20.520  0.00  0.00    +0.029 HD
ATOM     29  H   UNL     1       1.643  10.950  21.463  0.00  0.00    +0.029 HD
BRANCH  17  31
ATOM     30  O   UNL     1      -1.569  10.787  23.362  0.00  0.00    -0.246 OA
ATOM     31  C   UNL     1      -0.556  10.643  22.616  0.00  0.00    +0.359 C 
ATOM     32  O   UNL     1       0.360   9.777  22.679  0.00  0.00    -0.246 OA
ENDBRANCH  17  31
ENDBRANCH   1  20
BRANCH   7  33
ATOM     33  C   UNL     1       5.186   5.937  18.119  0.00  0.00    -0.008 A 
ATOM     34  C   UNL     1       5.790   6.953  17.355  0.00  0.00    -0.056 A 
ATOM     35  C   UNL     1       7.155   7.222  17.465  0.00  0.00    -0.061 A 
ATOM     36  C   UNL     1       7.948   6.473  18.334  0.00  0.00    -0.059 A 
ATOM     37  C   UNL     1       7.370   5.466  19.099  0.00  0.00    -0.026 A 
ATOM     38  C   UNL     1       6.008   5.204  18.983  0.00  0.00    +0.127 A 
ATOM     39  F   UNL     1       5.504   4.214  19.727  0.00  0.00    -0.205 F 
ATOM     40  H   UNL     1       5.191   7.549  16.670  0.00  0.00    +0.062 HD
ATOM     41  H   UNL     1       7.594   8.022  16.871  0.00  0.00    +0.062 HD
ATOM     42  H   UNL     1       9.011   6.683  18.419  0.00  0.00    +0.062 HD
ATOM     43  H   UNL     1       7.969   4.879  19.789  0.00  0.00    +0.065 HD
ENDBRANCH   7  33
TORSDOF 3
ENDMDL
MODEL 6
REMARK VINA RESULT:    -7.544      0.982      1.552
REMARK INTER + INTRA:          -8.980
REMARK INTER:                  -8.918
REMARK INTRA:                  -0.062
REMARK UNBOUND:                -0.113
REMARK  Name = 
REMARK  3 active torsions:
REMARK  status: ('A' for Active; 'I' for Inactive)
REMARK    1  A    between atoms: C_2  and  C_4
REMARK    2  A    between atoms: C_7  and  N_8
REMARK    3  A    between atoms: C_14  and  C_15
REMARK                            x       y       z     vdW  Elec       q    Type
REMARK                         _______ _______ _______ _____ _____    ______ ____
ROOT
ATOM      1  N   UNL     1       2.419   6.713  19.167  0.00  0.00    -0.296 N 
ATOM      2  C   UNL     1       2.248   7.897  18.499  0.00  0.00    +0.302 C 
ATOM      3  O   UNL     1       2.712   8.107  17.377  0.00  0.00    -0.253 OA
ATOM      4  N   UNL     1       1.589   8.869  19.207  0.00  0.00    -0.285 N 
ATOM      5  C   UNL     1       1.019   8.767  20.537  0.00  0.00    +0.017 C 
ATOM      6  C   UNL     1       0.635  10.196  20.910  0.00  0.00    -0.029 C 
ATOM      7  C   UNL     1       0.444  10.921  19.566  0.00  0.00    +0.004 C 
ATOM      8  C   UNL     1       1.486  10.215  18.683  0.00  0.00    +0.023 C 
ATOM      9  H   UNL     1       1.666   6.429  19.782  0.00  0.00    +0.151 HD
ATOM     10  H   UNL     1       0.159   8.095  20.492  0.00  0.00    +0.047 HD
ATOM     11  H   UNL     1       1.749   8.348  21.237  0.00  0.00    +0.047 HD
ATOM     12  H   UNL     1       1.491  10.655  21.426  0.00  0.00    +0.029 HD
ATOM     13  H   UNL     1      -0.212  10.259  21.597  0.00  0.00    +0.029 HD
ATOM     14  H   UNL     1       0.738  11.971  19.701  0.00  0.00    +0.037 HD
ATOM     15  H   UNL     1       1.287  10.228  17.606  0.00  0.00    +0.047 HD
ATOM     16  H   UNL     1       2.470  10.678  18.840  0.00  0.00    +0.047 HD
ENDROOT
BRANCH   1  20
ATOM     17  C   UNL     1       2.916   3.262  19.186  0.00  0.00    +0.062 C 
ATOM     18  C   UNL     1       4.368   3.682  19.357  0.00  0.00    -0.038 C 
ATOM     19  C   UNL     1       4.324   5.196  19.461  0.00  0.00    -0.034 C 
ATOM     20  C   UNL     1       3.155   5.622  18.572  0.00  0.00    +0.025 C 
ATOM     21  C   UNL     1       2.289   4.375  18.341  0.00  0.00    -0.021 C 
ATOM     22  H   UNL     1       2.863   2.299  18.665  0.00  0.00    +0.042 HD
ATOM     23  H   UNL     1       4.847   3.228  20.233  0.00  0.00    +0.027 HD
ATOM     24  H   UNL     1       4.947   3.401  18.466  0.00  0.00    +0.027 HD
ATOM     25  H   UNL     1       4.177   5.506  20.501  0.00  0.00    +0.028 HD
ATOM     26  H   UNL     1       5.268   5.648  19.133  0.00  0.00    +0.028 HD
ATOM     27  H   UNL     1       3.545   5.967  17.607  0.00  0.00    +0.050 HD
ATOM     28  H   UNL     1       2.326   4.101  17.272  0.00  0.00    +0.029 HD
ATOM     29  H   UNL     1       1.229   4.545  18.581  0.00  0.00    +0.029 HD
BRANCH  17  31
ATOM     30  O   UNL     1       0.905   3.602  20.387  0.00  0.00    -0.246 OA
ATOM     31  C   UNL     1       2.089   3.166  20.484  0.00  0.00    +0.359 C 
ATOM     32  O   UNL     1       2.679   2.685  21.492  0.00  0.00    -0.246 OA
ENDBRANCH  17  31
ENDBRANCH   1  20
BRANCH   7  33
ATOM     33  C   UNL     1      -0.933  10.943  18.927  0.00  0.00    -0.008 A 
ATOM     34  C   UNL     1      -1.900  11.791  19.497  0.00  0.00    -0.056 A 
ATOM     35  C   UNL     1      -3.189  11.870  18.968  0.00  0.00    -0.061 A 
ATOM     36  C   UNL     1      -3.542  11.095  17.864  0.00  0.00    -0.059 A 
ATOM     37  C   UNL     1      -2.599  10.253  17.285  0.00  0.00    -0.026 A 
ATOM     38  C   UNL     1      -1.316  10.179  17.819  0.00  0.00    +0.127 A 
ATOM     39  F   UNL     1      -0.452   9.341  17.237  0.00  0.00    -0.205 F 
ATOM     40  H   UNL     1      -1.648  12.405  20.359  0.00  0.00    +0.062 HD
ATOM     41  H   UNL     1      -3.915  12.544  19.422  0.00  0.00    +0.062 HD
ATOM     42  H   UNL     1      -4.546  11.158  17.452  0.00  0.00    +0.062 HD
ATOM     43  H   UNL     1      -2.851   9.649  16.418  0.00  0.00    +0.065 HD
ENDBRANCH   7  33
TORSDOF 3
ENDMDL
MODEL 7
REMARK VINA RESULT:    -7.523      5.705      7.877
REMARK INTER + INTRA:          -8.955
REMARK INTER:                  -9.322
REMARK INTRA:                   0.367
REMARK UNBOUND:                -0.113
REMARK  Name = 
REMARK  3 active torsions:
REMARK  status: ('A' for Active; 'I' for Inactive)
REMARK    1  A    between atoms: C_2  and  C_4
REMARK    2  A    between atoms: C_7  and  N_8
REMARK    3  A    between atoms: C_14  and  C_15
REMARK                            x       y       z     vdW  Elec       q    Type
REMARK                         _______ _______ _______ _____ _____    ______ ____
ROOT
ATOM      1  N   UNL     1       3.868   5.151  19.396  0.00  0.00    -0.296 N 
ATOM      2  C   UNL     1       4.947   4.498  18.862  0.00  0.00    +0.302 C 
ATOM      3  O   UNL     1       5.332   3.399  19.262  0.00  0.00    -0.253 OA
ATOM      4  N   UNL     1       5.624   5.198  17.897  0.00  0.00    -0.285 N 
ATOM      5  C   UNL     1       5.301   6.504  17.354  0.00  0.00    +0.017 C 
ATOM      6  C   UNL     1       6.511   6.888  16.507  0.00  0.00    -0.029 C 
ATOM      7  C   UNL     1       7.170   5.551  16.126  0.00  0.00    +0.004 C 
ATOM      8  C   UNL     1       6.876   4.695  17.368  0.00  0.00    +0.023 C 
ATOM      9  H   UNL     1       3.332   5.733  18.762  0.00  0.00    +0.151 HD
ATOM     10  H   UNL     1       4.384   6.415  16.768  0.00  0.00    +0.047 HD
ATOM     11  H   UNL     1       5.127   7.223  18.161  0.00  0.00    +0.047 HD
ATOM     12  H   UNL     1       7.212   7.444  17.146  0.00  0.00    +0.029 HD
ATOM     13  H   UNL     1       6.269   7.543  15.667  0.00  0.00    +0.029 HD
ATOM     14  H   UNL     1       8.254   5.715  16.050  0.00  0.00    +0.037 HD
ATOM     15  H   UNL     1       6.853   3.611  17.208  0.00  0.00    +0.047 HD
ATOM     16  H   UNL     1       7.633   4.897  18.137  0.00  0.00    +0.047 HD
ENDROOT
BRANCH   1  20
ATOM     17  C   UNL     1       1.736   2.539  20.283  0.00  0.00    +0.062 C 
ATOM     18  C   UNL     1       0.864   3.690  20.762  0.00  0.00    -0.038 C 
ATOM     19  C   UNL     1       1.622   4.943  20.361  0.00  0.00    -0.034 C 
ATOM     20  C   UNL     1       3.099   4.565  20.470  0.00  0.00    +0.025 C 
ATOM     21  C   UNL     1       3.171   3.031  20.487  0.00  0.00    -0.021 C 
ATOM     22  H   UNL     1       1.540   1.644  20.888  0.00  0.00    +0.042 HD
ATOM     23  H   UNL     1      -0.146   3.671  20.334  0.00  0.00    +0.027 HD
ATOM     24  H   UNL     1       0.772   3.661  21.857  0.00  0.00    +0.027 HD
ATOM     25  H   UNL     1       1.354   5.245  19.343  0.00  0.00    +0.028 HD
ATOM     26  H   UNL     1       1.371   5.788  21.012  0.00  0.00    +0.028 HD
ATOM     27  H   UNL     1       3.499   4.949  21.416  0.00  0.00    +0.050 HD
ATOM     28  H   UNL     1       3.548   2.696  21.469  0.00  0.00    +0.029 HD
ATOM     29  H   UNL     1       3.868   2.632  19.734  0.00  0.00    +0.029 HD
BRANCH  17  31
ATOM     30  O   UNL     1       0.410   2.192  18.354  0.00  0.00    -0.246 OA
ATOM     31  C   UNL     1       1.596   2.167  18.794  0.00  0.00    +0.359 C 
ATOM     32  O   UNL     1       2.663   1.866  18.187  0.00  0.00    -0.246 OA
ENDBRANCH  17  31
ENDBRANCH   1  20
BRANCH   7  33
ATOM     33  C   UNL     1       6.754   4.861  14.839  0.00  0.00    -0.008 A 
ATOM     34  C   UNL     1       5.595   4.063  14.875  0.00  0.00    -0.056 A 
ATOM     35  C   UNL     1       5.145   3.395  13.735  0.00  0.00    -0.061 A 
ATOM     36  C   UNL     1       5.849   3.503  12.537  0.00  0.00    -0.059 A 
ATOM     37  C   UNL     1       6.995   4.289  12.480  0.00  0.00    -0.026 A 
ATOM     38  C   UNL     1       7.438   4.951  13.622  0.00  0.00    +0.127 A 
ATOM     39  F   UNL     1       8.554   5.679  13.520  0.00  0.00    -0.205 F 
ATOM     40  H   UNL     1       5.030   3.963  15.799  0.00  0.00    +0.062 HD
ATOM     41  H   UNL     1       4.239   2.794  13.789  0.00  0.00    +0.062 HD
ATOM     42  H   UNL     1       5.498   2.984  11.649  0.00  0.00    +0.062 HD
ATOM     43  H   UNL     1       7.551   4.394  11.553  0.00  0.00    +0.065 HD
ENDBRANCH   7  33
TORSDOF 3
ENDMDL
MODEL 8
REMARK VINA RESULT:    -7.392      2.761      7.384
REMARK INTER + INTRA:          -8.801
REMARK INTER:                  -8.600
REMARK INTRA:                  -0.201
REMARK UNBOUND:                -0.113
REMARK  Name = 
REMARK  3 active torsions:
REMARK  status: ('A' for Active; 'I' for Inactive)
REMARK    1  A    between atoms: C_2  and  C_4
REMARK    2  A    between atoms: C_7  and  N_8
REMARK    3  A    between atoms: C_14  and  C_15
REMARK                            x       y       z     vdW  Elec       q    Type
REMARK                         _______ _______ _______ _____ _____    ______ ____
ROOT
ATOM      1  N   UNL     1       0.904   9.619  18.949  0.00  0.00    -0.296 N 
ATOM      2  C   UNL     1       1.360   8.660  19.814  0.00  0.00    +0.302 C 
ATOM      3  O   UNL     1       1.106   8.668  21.020  0.00  0.00    -0.253 OA
ATOM      4  N   UNL     1       2.193   7.727  19.253  0.00  0.00    -0.285 N 
ATOM      5  C   UNL     1       2.596   7.616  17.864  0.00  0.00    +0.017 C 
ATOM      6  C   UNL     1       3.703   6.565  17.859  0.00  0.00    -0.029 C 
ATOM      7  C   UNL     1       3.449   5.713  19.115  0.00  0.00    +0.004 C 
ATOM      8  C   UNL     1       2.875   6.757  20.086  0.00  0.00    +0.023 C 
ATOM      9  H   UNL     1       0.716   9.319  18.000  0.00  0.00    +0.151 HD
ATOM     10  H   UNL     1       1.725   7.317  17.277  0.00  0.00    +0.047 HD
ATOM     11  H   UNL     1       2.952   8.581  17.489  0.00  0.00    +0.047 HD
ATOM     12  H   UNL     1       4.665   7.083  17.987  0.00  0.00    +0.029 HD
ATOM     13  H   UNL     1       3.773   6.005  16.924  0.00  0.00    +0.029 HD
ATOM     14  H   UNL     1       4.420   5.366  19.492  0.00  0.00    +0.037 HD
ATOM     15  H   UNL     1       2.230   6.367  20.881  0.00  0.00    +0.047 HD
ATOM     16  H   UNL     1       3.700   7.298  20.569  0.00  0.00    +0.047 HD
ENDROOT
BRANCH   1  20
ATOM     17  C   UNL     1      -2.018  11.428  18.359  0.00  0.00    +0.062 C 
ATOM     18  C   UNL     1      -1.055  12.604  18.426  0.00  0.00    -0.038 C 
ATOM     19  C   UNL     1       0.316  11.974  18.594  0.00  0.00    -0.034 C 
ATOM     20  C   UNL     1       0.073  10.706  19.413  0.00  0.00    +0.025 C 
ATOM     21  C   UNL     1      -1.427  10.391  19.319  0.00  0.00    -0.021 C 
ATOM     22  H   UNL     1      -3.016  11.742  18.689  0.00  0.00    +0.042 HD
ATOM     23  H   UNL     1      -1.101  13.249  17.540  0.00  0.00    +0.027 HD
ATOM     24  H   UNL     1      -1.277  13.221  19.309  0.00  0.00    +0.027 HD
ATOM     25  H   UNL     1       0.757  11.749  17.617  0.00  0.00    +0.028 HD
ATOM     26  H   UNL     1       1.011  12.656  19.099  0.00  0.00    +0.028 HD
ATOM     27  H   UNL     1       0.330  10.901  20.461  0.00  0.00    +0.050 HD
ATOM     28  H   UNL     1      -1.884  10.501  20.318  0.00  0.00    +0.029 HD
ATOM     29  H   UNL     1      -1.623   9.356  18.999  0.00  0.00    +0.029 HD
BRANCH  17  31
ATOM     30  O   UNL     1      -1.677   9.569  16.935  0.00  0.00    -0.246 OA
ATOM     31  C   UNL     1      -2.145  10.744  16.984  0.00  0.00    +0.359 C 
ATOM     32  O   UNL     1      -2.680  11.425  16.064  0.00  0.00    -0.246 OA
ENDBRANCH  17  31
ENDBRANCH   1  20
BRANCH   7  33
ATOM     33  C   UNL     1       2.569   4.481  19.008  0.00  0.00    -0.008 A 
ATOM     34  C   UNL     1       2.891   3.537  18.014  0.00  0.00    -0.056 A 
ATOM     35  C   UNL     1       2.132   2.377  17.851  0.00  0.00    -0.061 A 
ATOM     36  C   UNL     1       1.029   2.140  18.670  0.00  0.00    -0.059 A 
ATOM     37  C   UNL     1       0.696   3.060  19.659  0.00  0.00    -0.026 A 
ATOM     38  C   UNL     1       1.458   4.214  19.815  0.00  0.00    +0.127 A 
ATOM     39  F   UNL     1       1.086   5.075  20.768  0.00  0.00    -0.205 F 
ATOM     40  H   UNL     1       3.746   3.701  17.363  0.00  0.00    +0.062 HD
ATOM     41  H   UNL     1       2.411   1.658  17.082  0.00  0.00    +0.062 HD
ATOM     42  H   UNL     1       0.439   1.236  18.543  0.00  0.00    +0.062 HD
ATOM     43  H   UNL     1      -0.153   2.888  20.314  0.00  0.00    +0.065 HD
ENDBRANCH   7  33
TORSDOF 3
ENDMDL
MODEL 9
REMARK VINA RESULT:    -7.163      3.338      7.765
REMARK INTER + INTRA:          -8.532
REMARK INTER:                  -7.929
REMARK INTRA:                  -0.603
REMARK UNBOUND:                -0.113
REMARK  Name = 
REMARK  3 active torsions:
REMARK  status: ('A' for Active; 'I' for Inactive)
REMARK    1  A    between atoms: C_2  and  C_4
REMARK    2  A    between atoms: C_7  and  N_8
REMARK    3  A    between atoms: C_14  and  C_15
REMARK                            x       y       z     vdW  Elec       q    Type
REMARK                         _______ _______ _______ _____ _____    ______ ____
ROOT
ATOM      1  N   UNL     1       0.551   9.568  19.864  0.00  0.00    -0.296 N 
ATOM      2  C   UNL     1       1.260   8.556  20.457  0.00  0.00    +0.302 C 
ATOM      3  O   UNL     1       1.281   8.377  21.676  0.00  0.00    -0.253 OA
ATOM      4  N   UNL     1       2.016   7.801  19.598  0.00  0.00    -0.285 N 
ATOM      5  C   UNL     1       2.106   7.920  18.155  0.00  0.00    +0.017 C 
ATOM      6  C   UNL     1       3.260   7.004  17.757  0.00  0.00    -0.029 C 
ATOM      7  C   UNL     1       3.358   5.971  18.893  0.00  0.00    +0.004 C 
ATOM      8  C   UNL     1       2.937   6.809  20.111  0.00  0.00    +0.023 C 
ATOM      9  H   UNL     1       0.179   9.378  18.940  0.00  0.00    +0.151 HD
ATOM     10  H   UNL     1       1.151   7.610  17.725  0.00  0.00    +0.047 HD
ATOM     11  H   UNL     1       2.294   8.959  17.866  0.00  0.00    +0.047 HD
ATOM     12  H   UNL     1       4.184   7.601  17.758  0.00  0.00    +0.029 HD
ATOM     13  H   UNL     1       3.162   6.584  16.753  0.00  0.00    +0.029 HD
ATOM     14  H   UNL     1       4.413   5.683  19.001  0.00  0.00    +0.037 HD
ATOM     15  H   UNL     1       2.517   6.249  20.954  0.00  0.00    +0.047 HD
ATOM     16  H   UNL     1       3.805   7.366  20.487  0.00  0.00    +0.047 HD
ENDROOT
BRANCH   1  20
ATOM     17  C   UNL     1      -1.466  12.410  19.762  0.00  0.00    +0.062 C 
ATOM     18  C   UNL     1      -0.489  12.886  20.827  0.00  0.00    -0.038 C 
ATOM     19  C   UNL     1       0.539  11.775  20.935  0.00  0.00    -0.034 C 
ATOM     20  C   UNL     1      -0.237  10.488  20.652  0.00  0.00    +0.025 C 
ATOM     21  C   UNL     1      -1.546  10.894  19.962  0.00  0.00    -0.021 C 
ATOM     22  H   UNL     1      -2.446  12.878  19.916  0.00  0.00    +0.042 HD
ATOM     23  H   UNL     1      -0.024  13.849  20.584  0.00  0.00    +0.027 HD
ATOM     24  H   UNL     1      -1.008  12.990  21.791  0.00  0.00    +0.027 HD
ATOM     25  H   UNL     1       1.348  11.928  20.213  0.00  0.00    +0.028 HD
ATOM     26  H   UNL     1       1.006  11.757  21.927  0.00  0.00    +0.028 HD
ATOM     27  H   UNL     1      -0.474   9.995  21.603  0.00  0.00    +0.050 HD
ATOM     28  H   UNL     1      -2.396  10.647  20.622  0.00  0.00    +0.029 HD
ATOM     29  H   UNL     1      -1.716  10.350  19.020  0.00  0.00    +0.029 HD
BRANCH  17  31
ATOM     30  O   UNL     1      -0.201  13.589  18.145  0.00  0.00    -0.246 OA
ATOM     31  C   UNL     1      -1.032  12.647  18.301  0.00  0.00    +0.359 C 
ATOM     32  O   UNL     1      -1.556  11.897  17.430  0.00  0.00    -0.246 OA
ENDBRANCH  17  31
ENDBRANCH   1  20
BRANCH   7  33
ATOM     33  C   UNL     1       2.572   4.676  18.785  0.00  0.00    -0.008 A 
ATOM     34  C   UNL     1       1.626   4.404  19.791  0.00  0.00    -0.056 A 
ATOM     35  C   UNL     1       0.863   3.236  19.764  0.00  0.00    -0.061 A 
ATOM     36  C   UNL     1       1.036   2.309  18.737  0.00  0.00    -0.059 A 
ATOM     37  C   UNL     1       1.965   2.561  17.733  0.00  0.00    -0.026 A 
ATOM     38  C   UNL     1       2.723   3.728  17.767  0.00  0.00    +0.127 A 
ATOM     39  F   UNL     1       3.614   3.914  16.789  0.00  0.00    -0.205 F 
ATOM     40  H   UNL     1       1.474   5.112  20.603  0.00  0.00    +0.062 HD
ATOM     41  H   UNL     1       0.129   3.057  20.549  0.00  0.00    +0.062 HD
ATOM     42  H   UNL     1       0.441   1.400  18.716  0.00  0.00    +0.062 HD
ATOM     43  H   UNL     1       2.107   1.856  16.919  0.00  0.00    +0.065 HD
ENDBRANCH   7  33
TORSDOF 3
ENDMDL
MODEL 10
REMARK VINA RESULT:    -7.151      5.530      8.018
REMARK INTER + INTRA:          -8.518
REMARK INTER:                  -8.987
REMARK INTRA:                   0.469
REMARK UNBOUND:                -0.113
REMARK  Name = 
REMARK  3 active torsions:
REMARK  status: ('A' for Active; 'I' for Inactive)
REMARK    1  A    between atoms: C_2  and  C_4
REMARK    2  A    between atoms: C_7  and  N_8
REMARK    3  A    between atoms: C_14  and  C_15
REMARK                            x       y       z     vdW  Elec       q    Type
REMARK                         _______ _______ _______ _____ _____    ______ ____
ROOT
ATOM      1  N   UNL     1       2.623   5.077  17.851  0.00  0.00    -0.296 N 
ATOM      2  C   UNL     1       3.632   4.207  17.532  0.00  0.00    +0.302 C 
ATOM      3  O   UNL     1       3.564   2.996  17.743  0.00  0.00    -0.253 OA
ATOM      4  N   UNL     1       4.764   4.796  17.032  0.00  0.00    -0.285 N 
ATOM      5  C   UNL     1       4.989   6.204  16.761  0.00  0.00    +0.017 C 
ATOM      6  C   UNL     1       6.480   6.312  16.454  0.00  0.00    -0.029 C 
ATOM      7  C   UNL     1       6.890   4.909  15.974  0.00  0.00    +0.004 C 
ATOM      8  C   UNL     1       5.962   4.012  16.809  0.00  0.00    +0.023 C 
ATOM      9  H   UNL     1       2.516   5.886  17.250  0.00  0.00    +0.151 HD
ATOM     10  H   UNL     1       4.360   6.496  15.917  0.00  0.00    +0.047 HD
ATOM     11  H   UNL     1       4.708   6.811  17.628  0.00  0.00    +0.047 HD
ATOM     12  H   UNL     1       7.007   6.517  17.398  0.00  0.00    +0.029 HD
ATOM     13  H   UNL     1       6.731   7.128  15.773  0.00  0.00    +0.029 HD
ATOM     14  H   UNL     1       7.931   4.735  16.281  0.00  0.00    +0.037 HD
ATOM     15  H   UNL     1       5.739   3.027  16.383  0.00  0.00    +0.047 HD
ATOM     16  H   UNL     1       6.406   3.848  17.799  0.00  0.00    +0.047 HD
ENDROOT
BRANCH   1  20
ATOM     17  C   UNL     1       1.223   3.535  20.648  0.00  0.00    +0.062 C 
ATOM     18  C   UNL     1       0.645   2.609  19.588  0.00  0.00    -0.038 C 
ATOM     19  C   UNL     1       1.242   3.096  18.280  0.00  0.00    -0.034 C 
ATOM     20  C   UNL     1       1.396   4.607  18.452  0.00  0.00    +0.025 C 
ATOM     21  C   UNL     1       1.319   4.899  19.957  0.00  0.00    -0.021 C 
ATOM     22  H   UNL     1       0.550   3.581  21.513  0.00  0.00    +0.042 HD
ATOM     23  H   UNL     1       0.872   1.552  19.771  0.00  0.00    +0.027 HD
ATOM     24  H   UNL     1      -0.448   2.722  19.548  0.00  0.00    +0.027 HD
ATOM     25  H   UNL     1       2.204   2.608  18.092  0.00  0.00    +0.028 HD
ATOM     26  H   UNL     1       0.596   2.848  17.429  0.00  0.00    +0.028 HD
ATOM     27  H   UNL     1       0.562   5.113  17.949  0.00  0.00    +0.050 HD
ATOM     28  H   UNL     1       0.411   5.491  20.166  0.00  0.00    +0.029 HD
ATOM     29  H   UNL     1       2.170   5.498  20.317  0.00  0.00    +0.029 HD
BRANCH  17  31
ATOM     30  O   UNL     1       2.702   2.146  21.866  0.00  0.00    -0.246 OA
ATOM     31  C   UNL     1       2.640   3.184  21.144  0.00  0.00    +0.359 C 
ATOM     32  O   UNL     1       3.568   3.966  20.795  0.00  0.00    -0.246 OA
ENDBRANCH  17  31
ENDBRANCH   1  20
BRANCH   7  33
ATOM     33  C   UNL     1       6.825   4.585  14.492  0.00  0.00    -0.008 A 
ATOM     34  C   UNL     1       5.814   3.706  14.063  0.00  0.00    -0.056 A 
ATOM     35  C   UNL     1       5.685   3.358  12.718  0.00  0.00    -0.061 A 
ATOM     36  C   UNL     1       6.572   3.875  11.773  0.00  0.00    -0.059 A 
ATOM     37  C   UNL     1       7.576   4.747  12.177  0.00  0.00    -0.026 A 
ATOM     38  C   UNL     1       7.698   5.089  13.521  0.00  0.00    +0.127 A 
ATOM     39  F   UNL     1       8.690   5.917  13.860  0.00  0.00    -0.205 F 
ATOM     40  H   UNL     1       5.111   3.289  14.782  0.00  0.00    +0.062 HD
ATOM     41  H   UNL     1       4.886   2.684  12.412  0.00  0.00    +0.062 HD
ATOM     42  H   UNL     1       6.471   3.605  10.725  0.00  0.00    +0.062 HD
ATOM     43  H   UNL     1       8.269   5.169  11.455  0.00  0.00    +0.065 HD
ENDBRANCH   7  33
TORSDOF 3
ENDMDL
MODEL 11
REMARK VINA RESULT:    -6.695      3.205      7.367
REMARK INTER + INTRA:          -7.982
REMARK INTER:                  -8.344
REMARK INTRA:                   0.363
REMARK UNBOUND:                -0.113
REMARK  Name = 
REMARK  3 active torsions:
REMARK  status: ('A' for Active; 'I' for Inactive)
REMARK    1  A    between atoms: C_2  and  C_4
REMARK    2  A    between atoms: C_7  and  N_8
REMARK    3  A    between atoms: C_14  and  C_15
REMARK                            x       y       z     vdW  Elec       q    Type
REMARK                         _______ _______ _______ _____ _____    ______ ____
ROOT
ATOM      1  N   UNL     1       0.277  10.241  18.069  0.00  0.00    -0.296 N 
ATOM      2  C   UNL     1       0.588   9.449  19.142  0.00  0.00    +0.302 C 
ATOM      3  O   UNL     1       0.063   9.581  20.249  0.00  0.00    -0.253 OA
ATOM      4  N   UNL     1       1.593   8.543  18.918  0.00  0.00    -0.285 N 
ATOM      5  C   UNL     1       2.312   8.301  17.681  0.00  0.00    +0.017 C 
ATOM      6  C   UNL     1       3.462   7.376  18.071  0.00  0.00    -0.029 C 
ATOM      7  C   UNL     1       2.986   6.666  19.350  0.00  0.00    +0.004 C 
ATOM      8  C   UNL     1       2.131   7.759  20.011  0.00  0.00    +0.023 C 
ATOM      9  H   UNL     1       0.335   9.808  17.155  0.00  0.00    +0.151 HD
ATOM     10  H   UNL     1       1.623   7.844  16.967  0.00  0.00    +0.047 HD
ATOM     11  H   UNL     1       2.675   9.243  17.258  0.00  0.00    +0.047 HD
ATOM     12  H   UNL     1       4.329   8.001  18.330  0.00  0.00    +0.029 HD
ATOM     13  H   UNL     1       3.785   6.714  17.264  0.00  0.00    +0.029 HD
ATOM     14  H   UNL     1       3.866   6.469  19.977  0.00  0.00    +0.037 HD
ATOM     15  H   UNL     1       1.349   7.407  20.693  0.00  0.00    +0.047 HD
ATOM     16  H   UNL     1       2.781   8.437  20.579  0.00  0.00    +0.047 HD
ENDROOT
BRANCH   1  20
ATOM     17  C   UNL     1      -0.741  13.028  19.901  0.00  0.00    +0.062 C 
ATOM     18  C   UNL     1      -2.057  12.265  19.935  0.00  0.00    -0.038 C 
ATOM     19  C   UNL     1      -1.759  10.948  19.240  0.00  0.00    -0.034 C 
ATOM     20  C   UNL     1      -0.714  11.287  18.177  0.00  0.00    +0.025 C 
ATOM     21  C   UNL     1      -0.108  12.645  18.560  0.00  0.00    -0.021 C 
ATOM     22  H   UNL     1      -0.933  14.107  19.949  0.00  0.00    +0.042 HD
ATOM     23  H   UNL     1      -2.438  12.111  20.952  0.00  0.00    +0.027 HD
ATOM     24  H   UNL     1      -2.820  12.808  19.361  0.00  0.00    +0.027 HD
ATOM     25  H   UNL     1      -1.384  10.210  19.958  0.00  0.00    +0.028 HD
ATOM     26  H   UNL     1      -2.664  10.517  18.795  0.00  0.00    +0.028 HD
ATOM     27  H   UNL     1      -1.209  11.381  17.203  0.00  0.00    +0.050 HD
ATOM     28  H   UNL     1      -0.375  13.391  17.792  0.00  0.00    +0.029 HD
ATOM     29  H   UNL     1       0.992  12.622  18.601  0.00  0.00    +0.029 HD
BRANCH  17  31
ATOM     30  O   UNL     1      -0.233  12.438  22.136  0.00  0.00    -0.246 OA
ATOM     31  C   UNL     1       0.277  12.659  20.998  0.00  0.00    +0.359 C 
ATOM     32  O   UNL     1       1.491  12.634  20.654  0.00  0.00    -0.246 OA
ENDBRANCH  17  31
ENDBRANCH   1  20
BRANCH   7  33
ATOM     33  C   UNL     1       2.244   5.346  19.232  0.00  0.00    -0.008 A 
ATOM     34  C   UNL     1       1.986   4.860  17.937  0.00  0.00    -0.056 A 
ATOM     35  C   UNL     1       1.311   3.654  17.743  0.00  0.00    -0.061 A 
ATOM     36  C   UNL     1       0.869   2.914  18.839  0.00  0.00    -0.059 A 
ATOM     37  C   UNL     1       1.116   3.378  20.126  0.00  0.00    -0.026 A 
ATOM     38  C   UNL     1       1.790   4.581  20.312  0.00  0.00    +0.127 A 
ATOM     39  F   UNL     1       1.987   4.991  21.568  0.00  0.00    -0.205 F 
ATOM     40  H   UNL     1       2.320   5.420  17.067  0.00  0.00    +0.062 HD
ATOM     41  H   UNL     1       1.134   3.295  16.730  0.00  0.00    +0.062 HD
ATOM     42  H   UNL     1       0.343   1.975  18.687  0.00  0.00    +0.062 HD
ATOM     43  H   UNL     1       0.790   2.810  20.993  0.00  0.00    +0.065 HD
ENDBRANCH   7  33
TORSDOF 3
ENDMDL
MODEL 12
REMARK VINA RESULT:    -6.642      1.393      1.789
REMARK INTER + INTRA:          -7.920
REMARK INTER:                  -7.916
REMARK INTRA:                  -0.004
REMARK UNBOUND:                -0.113
REMARK  Name = 
REMARK  3 active torsions:
REMARK  status: ('A' for Active; 'I' for Inactive)
REMARK    1  A    between atoms: C_2  and  C_4
REMARK    2  A    between atoms: C_7  and  N_8
REMARK    3  A    between atoms: C_14  and  C_15
REMARK                            x       y       z     vdW  Elec       q    Type
REMARK                         _______ _______ _______ _____ _____    ______ ____
ROOT
ATOM      1  N   UNL     1       1.860   6.356  20.859  0.00  0.00    -0.296 N 
ATOM      2  C   UNL     1       1.987   7.428  20.016  0.00  0.00    +0.302 C 
ATOM      3  O   UNL     1       2.828   7.479  19.117  0.00  0.00    -0.253 OA
ATOM      4  N   UNL     1       1.159   8.484  20.297  0.00  0.00    -0.285 N 
ATOM      5  C   UNL     1       0.149   8.569  21.336  0.00  0.00    +0.017 C 
ATOM      6  C   UNL     1      -0.284  10.033  21.342  0.00  0.00    -0.029 C 
ATOM      7  C   UNL     1       0.045  10.552  19.932  0.00  0.00    +0.004 C 
ATOM      8  C   UNL     1       1.304   9.739  19.589  0.00  0.00    +0.023 C 
ATOM      9  H   UNL     1       0.926   6.155  21.197  0.00  0.00    +0.151 HD
ATOM     10  H   UNL     1      -0.665   7.888  21.080  0.00  0.00    +0.047 HD
ATOM     11  H   UNL     1       0.564   8.265  22.302  0.00  0.00    +0.047 HD
ATOM     12  H   UNL     1       0.350  10.572  22.061  0.00  0.00    +0.029 HD
ATOM     13  H   UNL     1      -1.317  10.184  21.664  0.00  0.00    +0.029 HD
ATOM     14  H   UNL     1       0.314  11.614  20.015  0.00  0.00    +0.037 HD
ATOM     15  H   UNL     1       1.502   9.592  18.521  0.00  0.00    +0.047 HD
ATOM     16  H   UNL     1       2.185  10.232  20.021  0.00  0.00    +0.047 HD
ENDROOT
BRANCH   1  20
ATOM     17  C   UNL     1       2.477   3.461  19.017  0.00  0.00    +0.062 C 
ATOM     18  C   UNL     1       2.420   2.821  20.396  0.00  0.00    -0.038 C 
ATOM     19  C   UNL     1       2.061   3.958  21.336  0.00  0.00    -0.034 C 
ATOM     20  C   UNL     1       2.715   5.199  20.727  0.00  0.00    +0.025 C 
ATOM     21  C   UNL     1       3.041   4.863  19.265  0.00  0.00    -0.021 C 
ATOM     22  H   UNL     1       3.141   2.883  18.362  0.00  0.00    +0.042 HD
ATOM     23  H   UNL     1       1.698   1.998  20.458  0.00  0.00    +0.027 HD
ATOM     24  H   UNL     1       3.410   2.430  20.669  0.00  0.00    +0.027 HD
ATOM     25  H   UNL     1       0.973   4.067  21.409  0.00  0.00    +0.028 HD
ATOM     26  H   UNL     1       2.424   3.766  22.353  0.00  0.00    +0.028 HD
ATOM     27  H   UNL     1       3.650   5.410  21.260  0.00  0.00    +0.050 HD
ATOM     28  H   UNL     1       4.137   4.857  19.130  0.00  0.00    +0.029 HD
ATOM     29  H   UNL     1       2.646   5.611  18.560  0.00  0.00    +0.029 HD
BRANCH  17  31
ATOM     30  O   UNL     1       1.072   4.627  17.511  0.00  0.00    -0.246 OA
ATOM     31  C   UNL     1       1.122   3.643  18.306  0.00  0.00    +0.359 C 
ATOM     32  O   UNL     1       0.216   2.814  18.601  0.00  0.00    -0.246 OA
ENDBRANCH  17  31
ENDBRANCH   1  20
BRANCH   7  33
ATOM     33  C   UNL     1      -1.011  10.464  18.845  0.00  0.00    -0.008 A 
ATOM     34  C   UNL     1      -0.725   9.664  17.724  0.00  0.00    -0.056 A 
ATOM     35  C   UNL     1      -1.644   9.529  16.682  0.00  0.00    -0.061 A 
ATOM     36  C   UNL     1      -2.864  10.202  16.734  0.00  0.00    -0.059 A 
ATOM     37  C   UNL     1      -3.166  10.997  17.834  0.00  0.00    -0.026 A 
ATOM     38  C   UNL     1      -2.244  11.125  18.869  0.00  0.00    +0.127 A 
ATOM     39  F   UNL     1      -2.575  11.915  19.895  0.00  0.00    -0.205 F 
ATOM     40  H   UNL     1       0.221   9.130  17.661  0.00  0.00    +0.062 HD
ATOM     41  H   UNL     1      -1.402   8.894  15.832  0.00  0.00    +0.062 HD
ATOM     42  H   UNL     1      -3.580  10.097  15.922  0.00  0.00    +0.062 HD
ATOM     43  H   UNL     1      -4.116  11.520  17.898  0.00  0.00    +0.065 HD
ENDBRANCH   7  33
TORSDOF 3
ENDMDL
MODEL 13
REMARK VINA RESULT:    -6.602      3.242      7.719
REMARK INTER + INTRA:          -7.873
REMARK INTER:                  -8.046
REMARK INTRA:                   0.173
REMARK UNBOUND:                -0.113
REMARK  Name = 
REMARK  3 active torsions:
REMARK  status: ('A' for Active; 'I' for Inactive)
REMARK    1  A    between atoms: C_2  and  C_4
REMARK    2  A    between atoms: C_7  and  N_8
REMARK    3  A    between atoms: C_14  and  C_15
REMARK                            x       y       z     vdW  Elec       q    Type
REMARK                         _______ _______ _______ _____ _____    ______ ____
ROOT
ATOM      1  N   UNL     1       0.149  10.056  19.041  0.00  0.00    -0.296 N 
ATOM      2  C   UNL     1       0.640   9.153  19.947  0.00  0.00    +0.302 C 
ATOM      3  O   UNL     1       0.317   9.152  21.135  0.00  0.00    -0.253 OA
ATOM      4  N   UNL     1       1.587   8.295  19.449  0.00  0.00    -0.285 N 
ATOM      5  C   UNL     1       2.078   8.205  18.087  0.00  0.00    +0.017 C 
ATOM      6  C   UNL     1       3.275   7.261  18.162  0.00  0.00    -0.029 C 
ATOM      7  C   UNL     1       3.028   6.405  19.416  0.00  0.00    +0.004 C 
ATOM      8  C   UNL     1       2.305   7.402  20.336  0.00  0.00    +0.023 C 
ATOM      9  H   UNL     1       0.044   9.728  18.087  0.00  0.00    +0.151 HD
ATOM     10  H   UNL     1       1.273   7.820  17.457  0.00  0.00    +0.047 HD
ATOM     11  H   UNL     1       2.364   9.195  17.716  0.00  0.00    +0.047 HD
ATOM     12  H   UNL     1       4.176   7.868  18.336  0.00  0.00    +0.029 HD
ATOM     13  H   UNL     1       3.450   6.699  17.242  0.00  0.00    +0.029 HD
ATOM     14  H   UNL     1       4.004   6.153  19.854  0.00  0.00    +0.037 HD
ATOM     15  H   UNL     1       1.654   6.963  21.100  0.00  0.00    +0.047 HD
ATOM     16  H   UNL     1       3.047   8.023  20.855  0.00  0.00    +0.047 HD
ENDROOT
BRANCH   1  20
ATOM     17  C   UNL     1      -0.523  13.476  19.103  0.00  0.00    +0.062 C 
ATOM     18  C   UNL     1      -0.739  13.195  20.583  0.00  0.00    -0.038 C 
ATOM     19  C   UNL     1      -0.391  11.727  20.753  0.00  0.00    -0.034 C 
ATOM     20  C   UNL     1      -0.805  11.066  19.438  0.00  0.00    +0.025 C 
ATOM     21  C   UNL     1      -0.953  12.187  18.399  0.00  0.00    -0.021 C 
ATOM     22  H   UNL     1      -1.148  14.321  18.788  0.00  0.00    +0.042 HD
ATOM     23  H   UNL     1      -0.132  13.835  21.235  0.00  0.00    +0.027 HD
ATOM     24  H   UNL     1      -1.796  13.346  20.843  0.00  0.00    +0.027 HD
ATOM     25  H   UNL     1       0.680  11.606  20.950  0.00  0.00    +0.028 HD
ATOM     26  H   UNL     1      -0.916  11.288  21.610  0.00  0.00    +0.028 HD
ATOM     27  H   UNL     1      -1.776  10.575  19.573  0.00  0.00    +0.050 HD
ATOM     28  H   UNL     1      -2.012  12.260  18.094  0.00  0.00    +0.029 HD
ATOM     29  H   UNL     1      -0.378  11.992  17.480  0.00  0.00    +0.029 HD
BRANCH  17  31
ATOM     30  O   UNL     1       1.320  14.943  18.877  0.00  0.00    -0.246 OA
ATOM     31  C   UNL     1       0.933  13.755  18.679  0.00  0.00    +0.359 C 
ATOM     32  O   UNL     1       1.566  12.786  18.174  0.00  0.00    -0.246 OA
ENDBRANCH  17  31
ENDBRANCH   1  20
BRANCH   7  33
ATOM     33  C   UNL     1       2.272   5.095  19.280  0.00  0.00    -0.008 A 
ATOM     34  C   UNL     1       1.893   4.695  17.986  0.00  0.00    -0.056 A 
ATOM     35  C   UNL     1       1.197   3.503  17.776  0.00  0.00    -0.061 A 
ATOM     36  C   UNL     1       0.856   2.691  18.857  0.00  0.00    -0.059 A 
ATOM     37  C   UNL     1       1.224   3.069  20.143  0.00  0.00    -0.026 A 
ATOM     38  C   UNL     1       1.918   4.258  20.345  0.00  0.00    +0.127 A 
ATOM     39  F   UNL     1       2.232   4.584  21.602  0.00  0.00    -0.205 F 
ATOM     40  H   UNL     1       2.147   5.312  17.127  0.00  0.00    +0.062 HD
ATOM     41  H   UNL     1       0.926   3.212  16.762  0.00  0.00    +0.062 HD
ATOM     42  H   UNL     1       0.314   1.763  18.692  0.00  0.00    +0.062 HD
ATOM     43  H   UNL     1       0.977   2.444  20.997  0.00  0.00    +0.065 HD
ENDBRANCH   7  33
TORSDOF 3
ENDMDL
MODEL 14
REMARK VINA RESULT:    -6.575      2.430      4.118
REMARK INTER + INTRA:          -7.841
REMARK INTER:                  -7.262
REMARK INTRA:                  -0.579
REMARK UNBOUND:                -0.113
REMARK  Name = 
REMARK  3 active torsions:
REMARK  status: ('A' for Active; 'I' for Inactive)
REMARK    1  A    between atoms: C_2  and  C_4
REMARK    2  A    between atoms: C_7  and  N_8
REMARK    3  A    between atoms: C_14  and  C_15
REMARK                            x       y       z     vdW  Elec       q    Type
REMARK                         _______ _______ _______ _____ _____    ______ ____
ROOT
ATOM      1  N   UNL     1       2.401   6.935  18.472  0.00  0.00    -0.296 N 
ATOM      2  C   UNL     1       1.997   7.737  19.506  0.00  0.00    +0.302 C 
ATOM      3  O   UNL     1       2.199   7.460  20.689  0.00  0.00    -0.253 OA
ATOM      4  N   UNL     1       1.273   8.840  19.131  0.00  0.00    -0.285 N 
ATOM      5  C   UNL     1       0.939   9.268  17.786  0.00  0.00    +0.017 C 
ATOM      6  C   UNL     1      -0.069  10.399  17.973  0.00  0.00    -0.029 C 
ATOM      7  C   UNL     1       0.208  10.950  19.383  0.00  0.00    +0.004 C 
ATOM      8  C   UNL     1       0.647   9.681  20.131  0.00  0.00    +0.023 C 
ATOM      9  H   UNL     1       2.653   7.402  17.609  0.00  0.00    +0.151 HD
ATOM     10  H   UNL     1       1.856   9.596  17.292  0.00  0.00    +0.047 HD
ATOM     11  H   UNL     1       0.515   8.438  17.212  0.00  0.00    +0.047 HD
ATOM     12  H   UNL     1      -1.078   9.960  17.971  0.00  0.00    +0.029 HD
ATOM     13  H   UNL     1      -0.051  11.142  17.172  0.00  0.00    +0.029 HD
ATOM     14  H   UNL     1      -0.744  11.305  19.802  0.00  0.00    +0.037 HD
ATOM     15  H   UNL     1       1.291   9.838  21.003  0.00  0.00    +0.047 HD
ATOM     16  H   UNL     1      -0.242   9.134  20.474  0.00  0.00    +0.047 HD
ENDROOT
BRANCH   1  20
ATOM     17  C   UNL     1       4.971   4.853  17.368  0.00  0.00    +0.062 C 
ATOM     18  C   UNL     1       3.864   3.810  17.415  0.00  0.00    -0.038 C 
ATOM     19  C   UNL     1       2.617   4.585  17.801  0.00  0.00    -0.034 C 
ATOM     20  C   UNL     1       3.113   5.702  18.720  0.00  0.00    +0.025 C 
ATOM     21  C   UNL     1       4.626   5.832  18.494  0.00  0.00    -0.021 C 
ATOM     22  H   UNL     1       5.942   4.377  17.549  0.00  0.00    +0.042 HD
ATOM     23  H   UNL     1       3.735   3.278  16.464  0.00  0.00    +0.027 HD
ATOM     24  H   UNL     1       4.081   3.068  18.196  0.00  0.00    +0.027 HD
ATOM     25  H   UNL     1       2.120   4.983  16.910  0.00  0.00    +0.028 HD
ATOM     26  H   UNL     1       1.886   3.941  18.304  0.00  0.00    +0.028 HD
ATOM     27  H   UNL     1       2.933   5.416  19.763  0.00  0.00    +0.050 HD
ATOM     28  H   UNL     1       5.157   5.544  19.418  0.00  0.00    +0.029 HD
ATOM     29  H   UNL     1       4.933   6.865  18.268  0.00  0.00    +0.029 HD
BRANCH  17  31
ATOM     30  O   UNL     1       5.356   5.006  15.038  0.00  0.00    -0.246 OA
ATOM     31  C   UNL     1       5.060   5.678  16.069  0.00  0.00    +0.359 C 
ATOM     32  O   UNL     1       4.848   6.919  16.175  0.00  0.00    -0.246 OA
ENDBRANCH  17  31
ENDBRANCH   1  20
BRANCH   7  33
ATOM     33  C   UNL     1       1.197  12.089  19.551  0.00  0.00    -0.008 A 
ATOM     34  C   UNL     1       2.041  12.383  18.464  0.00  0.00    -0.056 A 
ATOM     35  C   UNL     1       2.977  13.415  18.537  0.00  0.00    -0.061 A 
ATOM     36  C   UNL     1       3.098  14.170  19.704  0.00  0.00    -0.059 A 
ATOM     37  C   UNL     1       2.272  13.895  20.789  0.00  0.00    -0.026 A 
ATOM     38  C   UNL     1       1.341  12.864  20.707  0.00  0.00    +0.127 A 
ATOM     39  F   UNL     1       0.584  12.629  21.783  0.00  0.00    -0.205 F 
ATOM     40  H   UNL     1       1.965  11.808  17.543  0.00  0.00    +0.062 HD
ATOM     41  H   UNL     1       3.609  13.629  17.676  0.00  0.00    +0.062 HD
ATOM     42  H   UNL     1       3.827  14.974  19.761  0.00  0.00    +0.062 HD
ATOM     43  H   UNL     1       2.343  14.478  21.703  0.00  0.00    +0.065 HD
ENDBRANCH   7  33
TORSDOF 3
ENDMDL
MODEL 15
REMARK VINA RESULT:    -6.569      2.374      3.671
REMARK INTER + INTRA:          -7.834
REMARK INTER:                  -7.316
REMARK INTRA:                  -0.518
REMARK UNBOUND:                -0.113
REMARK  Name = 
REMARK  3 active torsions:
REMARK  status: ('A' for Active; 'I' for Inactive)
REMARK    1  A    between atoms: C_2  and  C_4
REMARK    2  A    between atoms: C_7  and  N_8
REMARK    3  A    between atoms: C_14  and  C_15
REMARK                            x       y       z     vdW  Elec       q    Type
REMARK                         _______ _______ _______ _____ _____    ______ ____
ROOT
ATOM      1  N   UNL     1       2.245   6.905  19.667  0.00  0.00    -0.296 N 
ATOM      2  C   UNL     1       1.649   7.909  20.384  0.00  0.00    +0.302 C 
ATOM      3  O   UNL     1       1.505   7.866  21.606  0.00  0.00    -0.253 OA
ATOM      4  N   UNL     1       1.148   8.938  19.628  0.00  0.00    -0.285 N 
ATOM      5  C   UNL     1       1.222   9.102  18.188  0.00  0.00    +0.017 C 
ATOM      6  C   UNL     1       0.300  10.278  17.879  0.00  0.00    -0.029 C 
ATOM      7  C   UNL     1       0.237  11.089  19.186  0.00  0.00    +0.004 C 
ATOM      8  C   UNL     1       0.352   9.980  20.244  0.00  0.00    +0.023 C 
ATOM      9  H   UNL     1       2.757   7.184  18.838  0.00  0.00    +0.151 HD
ATOM     10  H   UNL     1       2.263   9.296  17.918  0.00  0.00    +0.047 HD
ATOM     11  H   UNL     1       0.898   8.188  17.681  0.00  0.00    +0.047 HD
ATOM     12  H   UNL     1      -0.704   9.879  17.676  0.00  0.00    +0.029 HD
ATOM     13  H   UNL     1       0.595  10.846  16.993  0.00  0.00    +0.029 HD
ATOM     14  H   UNL     1      -0.758  11.549  19.252  0.00  0.00    +0.037 HD
ATOM     15  H   UNL     1       0.751  10.286  21.217  0.00  0.00    +0.047 HD
ATOM     16  H   UNL     1      -0.639   9.540  20.420  0.00  0.00    +0.047 HD
ENDROOT
BRANCH   1  20
ATOM     17  C   UNL     1       3.593   3.728  19.176  0.00  0.00    +0.062 C 
ATOM     18  C   UNL     1       2.468   3.332  20.120  0.00  0.00    -0.038 C 
ATOM     19  C   UNL     1       1.703   4.619  20.372  0.00  0.00    -0.034 C 
ATOM     20  C   UNL     1       2.758   5.725  20.323  0.00  0.00    +0.025 C 
ATOM     21  C   UNL     1       3.990   5.139  19.618  0.00  0.00    -0.021 C 
ATOM     22  H   UNL     1       4.435   3.033  19.285  0.00  0.00    +0.042 HD
ATOM     23  H   UNL     1       1.820   2.547  19.713  0.00  0.00    +0.027 HD
ATOM     24  H   UNL     1       2.886   2.972  21.071  0.00  0.00    +0.027 HD
ATOM     25  H   UNL     1       0.929   4.761  19.609  0.00  0.00    +0.028 HD
ATOM     26  H   UNL     1       1.186   4.595  21.339  0.00  0.00    +0.028 HD
ATOM     27  H   UNL     1       3.034   6.004  21.347  0.00  0.00    +0.050 HD
ATOM     28  H   UNL     1       4.827   5.087  20.336  0.00  0.00    +0.029 HD
ATOM     29  H   UNL     1       4.337   5.765  18.781  0.00  0.00    +0.029 HD
BRANCH  17  31
ATOM     30  O   UNL     1       2.353   2.968  17.309  0.00  0.00    -0.246 OA
ATOM     31  C   UNL     1       3.216   3.815  17.684  0.00  0.00    +0.359 C 
ATOM     32  O   UNL     1       3.813   4.696  17.004  0.00  0.00    -0.246 OA
ENDBRANCH  17  31
ENDBRANCH   1  20
BRANCH   7  33
ATOM     33  C   UNL     1       1.239  12.207  19.412  0.00  0.00    -0.008 A 
ATOM     34  C   UNL     1       2.143  12.490  18.372  0.00  0.00    -0.056 A 
ATOM     35  C   UNL     1       3.094  13.503  18.500  0.00  0.00    -0.061 A 
ATOM     36  C   UNL     1       3.169  14.248  19.677  0.00  0.00    -0.059 A 
ATOM     37  C   UNL     1       2.283  13.984  20.716  0.00  0.00    -0.026 A 
ATOM     38  C   UNL     1       1.338  12.972  20.579  0.00  0.00    +0.127 A 
ATOM     39  F   UNL     1       0.521  12.747  21.613  0.00  0.00    -0.205 F 
ATOM     40  H   UNL     1       2.104  11.921  17.445  0.00  0.00    +0.062 HD
ATOM     41  H   UNL     1       3.774  13.708  17.675  0.00  0.00    +0.062 HD
ATOM     42  H   UNL     1       3.910  15.037  19.776  0.00  0.00    +0.062 HD
ATOM     43  H   UNL     1       2.319  14.561  21.635  0.00  0.00    +0.065 HD
ENDBRANCH   7  33
TORSDOF 3
ENDMDL
MODEL 16
REMARK VINA RESULT:    -6.492      3.480      7.739
REMARK INTER + INTRA:          -7.744
REMARK INTER:                  -8.138
REMARK INTRA:                   0.394
REMARK UNBOUND:                -0.113
REMARK  Name = 
REMARK  3 active torsions:
REMARK  status: ('A' for Active; 'I' for Inactive)
REMARK    1  A    between atoms: C_2  and  C_4
REMARK    2  A    between atoms: C_7  and  N_8
REMARK    3  A    between atoms: C_14  and  C_15
REMARK                            x       y       z     vdW  Elec       q    Type
REMARK                         _______ _______ _______ _____ _____    ______ ____
ROOT
ATOM      1  N   UNL     1       1.157   9.718  20.028  0.00  0.00    -0.296 N 
ATOM      2  C   UNL     1       1.632   9.209  18.848  0.00  0.00    +0.302 C 
ATOM      3  O   UNL     1       1.626   9.845  17.793  0.00  0.00    -0.253 OA
ATOM      4  N   UNL     1       2.043   7.902  18.907  0.00  0.00    -0.285 N 
ATOM      5  C   UNL     1       2.077   7.033  20.069  0.00  0.00    +0.017 C 
ATOM      6  C   UNL     1       2.382   5.645  19.512  0.00  0.00    -0.029 C 
ATOM      7  C   UNL     1       3.097   5.902  18.173  0.00  0.00    +0.004 C 
ATOM      8  C   UNL     1       2.411   7.194  17.699  0.00  0.00    +0.023 C 
ATOM      9  H   UNL     1       1.613   9.398  20.874  0.00  0.00    +0.151 HD
ATOM     10  H   UNL     1       2.851   7.398  20.747  0.00  0.00    +0.047 HD
ATOM     11  H   UNL     1       1.117   7.057  20.594  0.00  0.00    +0.047 HD
ATOM     12  H   UNL     1       1.426   5.147  19.297  0.00  0.00    +0.029 HD
ATOM     13  H   UNL     1       2.921   5.000  20.210  0.00  0.00    +0.029 HD
ATOM     14  H   UNL     1       2.838   5.084  17.487  0.00  0.00    +0.037 HD
ATOM     15  H   UNL     1       2.992   7.819  17.012  0.00  0.00    +0.047 HD
ATOM     16  H   UNL     1       1.469   6.942  17.195  0.00  0.00    +0.047 HD
ENDROOT
BRANCH   1  20
ATOM     17  C   UNL     1      -1.373  11.849  18.926  0.00  0.00    +0.062 C 
ATOM     18  C   UNL     1      -0.186  12.718  18.540  0.00  0.00    -0.038 C 
ATOM     19  C   UNL     1       1.034  11.881  18.878  0.00  0.00    -0.034 C 
ATOM     20  C   UNL     1       0.626  11.060  20.101  0.00  0.00    +0.025 C 
ATOM     21  C   UNL     1      -0.907  11.091  20.173  0.00  0.00    -0.021 C 
ATOM     22  H   UNL     1      -2.242  12.479  19.154  0.00  0.00    +0.042 HD
ATOM     23  H   UNL     1      -0.197  13.016  17.485  0.00  0.00    +0.027 HD
ATOM     24  H   UNL     1      -0.176  13.631  19.153  0.00  0.00    +0.027 HD
ATOM     25  H   UNL     1       1.307  11.241  18.031  0.00  0.00    +0.028 HD
ATOM     26  H   UNL     1       1.907  12.511  19.086  0.00  0.00    +0.028 HD
ATOM     27  H   UNL     1       1.033  11.532  21.003  0.00  0.00    +0.050 HD
ATOM     28  H   UNL     1      -1.217  11.636  21.081  0.00  0.00    +0.029 HD
ATOM     29  H   UNL     1      -1.349  10.085  20.248  0.00  0.00    +0.029 HD
BRANCH  17  31
ATOM     30  O   UNL     1      -2.168  11.261  16.776  0.00  0.00    -0.246 OA
ATOM     31  C   UNL     1      -1.793  10.789  17.888  0.00  0.00    +0.359 C 
ATOM     32  O   UNL     1      -1.733   9.583  18.260  0.00  0.00    -0.246 OA
ENDBRANCH  17  31
ENDBRANCH   1  20
BRANCH   7  33
ATOM     33  C   UNL     1       4.611   6.012  18.152  0.00  0.00    -0.008 A 
ATOM     34  C   UNL     1       5.178   7.016  17.345  0.00  0.00    -0.056 A 
ATOM     35  C   UNL     1       6.561   7.184  17.271  0.00  0.00    -0.061 A 
ATOM     36  C   UNL     1       7.409   6.345  17.994  0.00  0.00    -0.059 A 
ATOM     37  C   UNL     1       6.867   5.348  18.798  0.00  0.00    -0.026 A 
ATOM     38  C   UNL     1       5.486   5.187  18.866  0.00  0.00    +0.127 A 
ATOM     39  F   UNL     1       5.017   4.204  19.640  0.00  0.00    -0.205 F 
ATOM     40  H   UNL     1       4.537   7.682  16.771  0.00  0.00    +0.062 HD
ATOM     41  H   UNL     1       6.973   7.977  16.647  0.00  0.00    +0.062 HD
ATOM     42  H   UNL     1       8.486   6.476  17.936  0.00  0.00    +0.062 HD
ATOM     43  H   UNL     1       7.510   4.691  19.377  0.00  0.00    +0.065 HD
ENDBRANCH   7  33
TORSDOF 3
ENDMDL
MODEL 17
REMARK VINA RESULT:    -6.480      3.329      7.704
REMARK INTER + INTRA:          -7.729
REMARK INTER:                  -8.270
REMARK INTRA:                   0.541
REMARK UNBOUND:                -0.113
REMARK  Name = 
REMARK  3 active torsions:
REMARK  status: ('A' for Active; 'I' for Inactive)
REMARK    1  A    between atoms: C_2  and  C_4
REMARK    2  A    between atoms: C_7  and  N_8
REMARK    3  A    between atoms: C_14  and  C_15
REMARK                            x       y       z     vdW  Elec       q    Type
REMARK                         _______ _______ _______ _____ _____    ______ ____
ROOT
ATOM      1  N   UNL     1       1.191   9.726  20.023  0.00  0.00    -0.296 N 
ATOM      2  C   UNL     1       1.660   9.228  18.836  0.00  0.00    +0.302 C 
ATOM      3  O   UNL     1       1.671   9.882  17.792  0.00  0.00    -0.253 OA
ATOM      4  N   UNL     1       2.044   7.913  18.874  0.00  0.00    -0.285 N 
ATOM      5  C   UNL     1       2.057   7.023  20.020  0.00  0.00    +0.017 C 
ATOM      6  C   UNL     1       2.337   5.639  19.440  0.00  0.00    -0.029 C 
ATOM      7  C   UNL     1       3.061   5.905  18.109  0.00  0.00    +0.004 C 
ATOM      8  C   UNL     1       2.404   7.218  17.655  0.00  0.00    +0.023 C 
ATOM      9  H   UNL     1       1.637   9.382  20.866  0.00  0.00    +0.151 HD
ATOM     10  H   UNL     1       2.836   7.360  20.708  0.00  0.00    +0.047 HD
ATOM     11  H   UNL     1       1.095   7.056  20.543  0.00  0.00    +0.047 HD
ATOM     12  H   UNL     1       1.371   5.163  19.214  0.00  0.00    +0.029 HD
ATOM     13  H   UNL     1       2.859   4.972  20.129  0.00  0.00    +0.029 HD
ATOM     14  H   UNL     1       2.789   5.104  17.408  0.00  0.00    +0.037 HD
ATOM     15  H   UNL     1       3.000   7.844  16.981  0.00  0.00    +0.047 HD
ATOM     16  H   UNL     1       1.458   6.994  17.143  0.00  0.00    +0.047 HD
ENDROOT
BRANCH   1  20
ATOM     17  C   UNL     1      -1.305  11.920  18.967  0.00  0.00    +0.062 C 
ATOM     18  C   UNL     1      -0.104  12.772  18.585  0.00  0.00    -0.038 C 
ATOM     19  C   UNL     1       1.102  11.906  18.903  0.00  0.00    -0.034 C 
ATOM     20  C   UNL     1       0.687  11.077  20.118  0.00  0.00    +0.025 C 
ATOM     21  C   UNL     1      -0.845  11.137  20.200  0.00  0.00    -0.021 C 
ATOM     22  H   UNL     1      -2.159  12.564  19.209  0.00  0.00    +0.042 HD
ATOM     23  H   UNL     1      -0.115  13.084  17.533  0.00  0.00    +0.027 HD
ATOM     24  H   UNL     1      -0.071  13.676  19.210  0.00  0.00    +0.027 HD
ATOM     25  H   UNL     1       1.358  11.273  18.046  0.00  0.00    +0.028 HD
ATOM     26  H   UNL     1       1.989  12.517  19.113  0.00  0.00    +0.028 HD
ATOM     27  H   UNL     1       1.109  11.529  21.023  0.00  0.00    +0.050 HD
ATOM     28  H   UNL     1      -1.138  11.675  21.118  0.00  0.00    +0.029 HD
ATOM     29  H   UNL     1      -1.305  10.138  20.265  0.00  0.00    +0.029 HD
BRANCH  17  31
ATOM     30  O   UNL     1      -2.131  11.377  16.817  0.00  0.00    -0.246 OA
ATOM     31  C   UNL     1      -1.752  10.882  17.918  0.00  0.00    +0.359 C 
ATOM     32  O   UNL     1      -1.707   9.671  18.272  0.00  0.00    -0.246 OA
ENDBRANCH  17  31
ENDBRANCH   1  20
BRANCH   7  33
ATOM     33  C   UNL     1       4.577   5.985  18.094  0.00  0.00    -0.008 A 
ATOM     34  C   UNL     1       5.266   5.471  19.209  0.00  0.00    -0.056 A 
ATOM     35  C   UNL     1       6.659   5.506  19.273  0.00  0.00    -0.061 A 
ATOM     36  C   UNL     1       7.395   6.065  18.229  0.00  0.00    -0.059 A 
ATOM     37  C   UNL     1       6.733   6.576  17.118  0.00  0.00    -0.026 A 
ATOM     38  C   UNL     1       5.343   6.537  17.061  0.00  0.00    +0.127 A 
ATOM     39  F   UNL     1       4.754   7.058  15.980  0.00  0.00    -0.205 F 
ATOM     40  H   UNL     1       4.713   5.031  20.037  0.00  0.00    +0.062 HD
ATOM     41  H   UNL     1       7.167   5.091  20.143  0.00  0.00    +0.062 HD
ATOM     42  H   UNL     1       8.480   6.091  18.279  0.00  0.00    +0.062 HD
ATOM     43  H   UNL     1       7.288   7.005  16.289  0.00  0.00    +0.065 HD
ENDBRANCH   7  33
TORSDOF 3
ENDMDL
MODEL 18
REMARK VINA RESULT:    -6.478      1.923      2.633
REMARK INTER + INTRA:          -7.726
REMARK INTER:                  -8.147
REMARK INTRA:                   0.421
REMARK UNBOUND:                -0.113
REMARK  Name = 
REMARK  3 active torsions:
REMARK  status: ('A' for Active; 'I' for Inactive)
REMARK    1  A    between atoms: C_2  and  C_4
REMARK    2  A    between atoms: C_7  and  N_8
REMARK    3  A    between atoms: C_14  and  C_15
REMARK                            x       y       z     vdW  Elec       q    Type
REMARK                         _______ _______ _______ _____ _____    ______ ____
ROOT
ATOM      1  N   UNL     1       2.360   6.686  19.589  0.00  0.00    -0.296 N 
ATOM      2  C   UNL     1       2.120   7.619  18.614  0.00  0.00    +0.302 C 
ATOM      3  O   UNL     1       2.420   7.447  17.432  0.00  0.00    -0.253 OA
ATOM      4  N   UNL     1       1.592   8.801  19.065  0.00  0.00    -0.285 N 
ATOM      5  C   UNL     1       1.220   9.147  20.424  0.00  0.00    +0.017 C 
ATOM      6  C   UNL     1       0.925  10.645  20.382  0.00  0.00    -0.029 C 
ATOM      7  C   UNL     1       0.557  10.936  18.916  0.00  0.00    +0.004 C 
ATOM      8  C   UNL     1       1.444   9.928  18.167  0.00  0.00    +0.023 C 
ATOM      9  H   UNL     1       1.698   6.653  20.355  0.00  0.00    +0.151 HD
ATOM     10  H   UNL     1       0.348   8.552  20.703  0.00  0.00    +0.047 HD
ATOM     11  H   UNL     1       2.034   8.914  21.117  0.00  0.00    +0.047 HD
ATOM     12  H   UNL     1       1.857  11.181  20.612  0.00  0.00    +0.029 HD
ATOM     13  H   UNL     1       0.188  10.969  21.120  0.00  0.00    +0.029 HD
ATOM     14  H   UNL     1       0.890  11.956  18.679  0.00  0.00    +0.037 HD
ATOM     15  H   UNL     1       1.091   9.625  17.175  0.00  0.00    +0.047 HD
ATOM     16  H   UNL     1       2.450  10.351  18.042  0.00  0.00    +0.047 HD
ENDROOT
BRANCH   1  20
ATOM     17  C   UNL     1       4.937   5.130  17.830  0.00  0.00    +0.062 C 
ATOM     18  C   UNL     1       3.783   4.303  17.283  0.00  0.00    -0.038 C 
ATOM     19  C   UNL     1       2.539   4.922  17.894  0.00  0.00    -0.034 C 
ATOM     20  C   UNL     1       2.978   5.419  19.271  0.00  0.00    +0.025 C 
ATOM     21  C   UNL     1       4.511   5.492  19.256  0.00  0.00    -0.021 C 
ATOM     22  H   UNL     1       5.857   4.533  17.836  0.00  0.00    +0.042 HD
ATOM     23  H   UNL     1       3.739   4.297  16.187  0.00  0.00    +0.027 HD
ATOM     24  H   UNL     1       3.872   3.263  17.628  0.00  0.00    +0.027 HD
ATOM     25  H   UNL     1       2.168   5.739  17.266  0.00  0.00    +0.028 HD
ATOM     26  H   UNL     1       1.724   4.192  17.967  0.00  0.00    +0.028 HD
ATOM     27  H   UNL     1       2.664   4.694  20.032  0.00  0.00    +0.050 HD
ATOM     28  H   UNL     1       4.917   4.752  19.968  0.00  0.00    +0.029 HD
ATOM     29  H   UNL     1       4.893   6.473  19.577  0.00  0.00    +0.029 HD
BRANCH  17  31
ATOM     30  O   UNL     1       5.003   6.424  15.849  0.00  0.00    -0.246 OA
ATOM     31  C   UNL     1       5.216   6.457  17.096  0.00  0.00    +0.359 C 
ATOM     32  O   UNL     1       5.638   7.414  17.805  0.00  0.00    -0.246 OA
ENDBRANCH  17  31
ENDBRANCH   1  20
BRANCH   7  33
ATOM     33  C   UNL     1      -0.897  10.853  18.488  0.00  0.00    -0.008 A 
ATOM     34  C   UNL     1      -1.226   9.929  17.479  0.00  0.00    -0.056 A 
ATOM     35  C   UNL     1      -2.540   9.791  17.029  0.00  0.00    -0.061 A 
ATOM     36  C   UNL     1      -3.552  10.581  17.572  0.00  0.00    -0.059 A 
ATOM     37  C   UNL     1      -3.248  11.499  18.572  0.00  0.00    -0.026 A 
ATOM     38  C   UNL     1      -1.935  11.631  19.014  0.00  0.00    +0.127 A 
ATOM     39  F   UNL     1      -1.692  12.539  19.964  0.00  0.00    -0.205 F 
ATOM     40  H   UNL     1      -0.452   9.303  17.040  0.00  0.00    +0.062 HD
ATOM     41  H   UNL     1      -2.768   9.060  16.255  0.00  0.00    +0.062 HD
ATOM     42  H   UNL     1      -4.576  10.473  17.222  0.00  0.00    +0.062 HD
ATOM     43  H   UNL     1      -4.024  12.116  19.015  0.00  0.00    +0.065 HD
ENDBRANCH   7  33
TORSDOF 3
ENDMDL
MODEL 19
REMARK VINA RESULT:    -6.342      1.718      2.321
REMARK INTER + INTRA:          -7.567
REMARK INTER:                  -7.821
REMARK INTRA:                   0.255
REMARK UNBOUND:                -0.113
REMARK  Name = 
REMARK  3 active torsions:
REMARK  status: ('A' for Active; 'I' for Inactive)
REMARK    1  A    between atoms: C_2  and  C_4
REMARK    2  A    between atoms: C_7  and  N_8
REMARK    3  A    between atoms: C_14  and  C_15
REMARK                            x       y       z     vdW  Elec       q    Type
REMARK                         _______ _______ _______ _____ _____    ______ ____
ROOT
ATOM      1  N   UNL     1       1.992   5.476  19.810  0.00  0.00    -0.296 N 
ATOM      2  C   UNL     1       2.110   6.591  19.022  0.00  0.00    +0.302 C 
ATOM      3  O   UNL     1       2.596   6.565  17.890  0.00  0.00    -0.253 OA
ATOM      4  N   UNL     1       1.722   7.763  19.619  0.00  0.00    -0.285 N 
ATOM      5  C   UNL     1       1.163   7.941  20.946  0.00  0.00    +0.017 C 
ATOM      6  C   UNL     1       1.150   9.452  21.167  0.00  0.00    -0.029 C 
ATOM      7  C   UNL     1       1.125  10.060  19.753  0.00  0.00    +0.004 C 
ATOM      8  C   UNL     1       1.948   9.032  18.959  0.00  0.00    +0.023 C 
ATOM      9  H   UNL     1       1.201   5.451  20.442  0.00  0.00    +0.151 HD
ATOM     10  H   UNL     1       0.163   7.502  20.960  0.00  0.00    +0.047 HD
ATOM     11  H   UNL     1       1.777   7.428  21.694  0.00  0.00    +0.047 HD
ATOM     12  H   UNL     1       2.100   9.735  21.643  0.00  0.00    +0.029 HD
ATOM     13  H   UNL     1       0.354   9.792  21.833  0.00  0.00    +0.029 HD
ATOM     14  H   UNL     1       1.671  11.013  19.784  0.00  0.00    +0.037 HD
ATOM     15  H   UNL     1       1.743   8.983  17.884  0.00  0.00    +0.047 HD
ATOM     16  H   UNL     1       3.017   9.251  19.080  0.00  0.00    +0.047 HD
ENDROOT
BRANCH   1  20
ATOM     17  C   UNL     1       4.670   3.670  18.497  0.00  0.00    +0.062 C 
ATOM     18  C   UNL     1       3.641   3.319  17.433  0.00  0.00    -0.038 C 
ATOM     19  C   UNL     1       2.405   4.115  17.811  0.00  0.00    -0.034 C 
ATOM     20  C   UNL     1       2.427   4.182  19.339  0.00  0.00    +0.025 C 
ATOM     21  C   UNL     1       3.856   3.835  19.783  0.00  0.00    -0.021 C 
ATOM     22  H   UNL     1       5.399   2.856  18.597  0.00  0.00    +0.042 HD
ATOM     23  H   UNL     1       3.979   3.549  16.416  0.00  0.00    +0.027 HD
ATOM     24  H   UNL     1       3.405   2.246  17.481  0.00  0.00    +0.027 HD
ATOM     25  H   UNL     1       2.438   5.113  17.361  0.00  0.00    +0.028 HD
ATOM     26  H   UNL     1       1.491   3.636  17.440  0.00  0.00    +0.028 HD
ATOM     27  H   UNL     1       1.738   3.430  19.741  0.00  0.00    +0.050 HD
ATOM     28  H   UNL     1       3.840   2.883  20.343  0.00  0.00    +0.029 HD
ATOM     29  H   UNL     1       4.282   4.588  20.463  0.00  0.00    +0.029 HD
BRANCH  17  31
ATOM     30  O   UNL     1       5.780   5.582  19.344  0.00  0.00    -0.246 OA
ATOM     31  C   UNL     1       5.435   4.991  18.279  0.00  0.00    +0.359 C 
ATOM     32  O   UNL     1       5.616   5.345  17.080  0.00  0.00    -0.246 OA
ENDBRANCH  17  31
ENDBRANCH   1  20
BRANCH   7  33
ATOM     33  C   UNL     1      -0.212  10.357  19.099  0.00  0.00    -0.008 A 
ATOM     34  C   UNL     1      -0.492   9.721  17.875  0.00  0.00    -0.056 A 
ATOM     35  C   UNL     1      -1.699   9.940  17.209  0.00  0.00    -0.061 A 
ATOM     36  C   UNL     1      -2.648  10.807  17.748  0.00  0.00    -0.059 A 
ATOM     37  C   UNL     1      -2.391  11.443  18.958  0.00  0.00    -0.026 A 
ATOM     38  C   UNL     1      -1.185  11.220  19.615  0.00  0.00    +0.127 A 
ATOM     39  F   UNL     1      -0.979  11.869  20.765  0.00  0.00    -0.205 F 
ATOM     40  H   UNL     1       0.234   9.041  17.435  0.00  0.00    +0.062 HD
ATOM     41  H   UNL     1      -1.894   9.426  16.269  0.00  0.00    +0.062 HD
ATOM     42  H   UNL     1      -3.589  10.977  17.230  0.00  0.00    +0.062 HD
ATOM     43  H   UNL     1      -3.123  12.114  19.399  0.00  0.00    +0.065 HD
ENDBRANCH   7  33
TORSDOF 3
ENDMDL
MODEL 20
REMARK VINA RESULT:    -6.336      4.453      8.352
REMARK INTER + INTRA:          -7.560
REMARK INTER:                  -7.354
REMARK INTRA:                  -0.206
REMARK UNBOUND:                -0.113
REMARK  Name = 
REMARK  3 active torsions:
REMARK  status: ('A' for Active; 'I' for Inactive)
REMARK    1  A    between atoms: C_2  and  C_4
REMARK    2  A    between atoms: C_7  and  N_8
REMARK    3  A    between atoms: C_14  and  C_15
REMARK                            x       y       z     vdW  Elec       q    Type
REMARK                         _______ _______ _______ _____ _____    ______ ____
ROOT
ATOM      1  N   UNL     1       2.988   7.799  18.117  0.00  0.00    -0.296 N 
ATOM      2  C   UNL     1       3.435   6.509  18.004  0.00  0.00    +0.302 C 
ATOM      3  O   UNL     1       2.744   5.532  18.297  0.00  0.00    -0.253 OA
ATOM      4  N   UNL     1       4.744   6.384  17.617  0.00  0.00    -0.285 N 
ATOM      5  C   UNL     1       5.674   7.444  17.272  0.00  0.00    +0.017 C 
ATOM      6  C   UNL     1       7.031   6.754  17.162  0.00  0.00    -0.029 C 
ATOM      7  C   UNL     1       6.706   5.283  16.851  0.00  0.00    +0.004 C 
ATOM      8  C   UNL     1       5.389   5.087  17.619  0.00  0.00    +0.023 C 
ATOM      9  H   UNL     1       3.354   8.464  17.446  0.00  0.00    +0.151 HD
ATOM     10  H   UNL     1       5.348   7.892  16.331  0.00  0.00    +0.047 HD
ATOM     11  H   UNL     1       5.675   8.220  18.043  0.00  0.00    +0.047 HD
ATOM     12  H   UNL     1       7.515   6.795  18.149  0.00  0.00    +0.029 HD
ATOM     13  H   UNL     1       7.714   7.238  16.460  0.00  0.00    +0.029 HD
ATOM     14  H   UNL     1       7.486   4.658  17.308  0.00  0.00    +0.037 HD
ATOM     15  H   UNL     1       4.730   4.296  17.245  0.00  0.00    +0.047 HD
ATOM     16  H   UNL     1       5.611   4.859  18.670  0.00  0.00    +0.047 HD
ENDROOT
BRANCH   1  20
ATOM     17  C   UNL     1       0.681  10.327  18.784  0.00  0.00    +0.062 C 
ATOM     18  C   UNL     1       0.618   9.627  20.133  0.00  0.00    -0.038 C 
ATOM     19  C   UNL     1       1.657   8.523  20.046  0.00  0.00    -0.034 C 
ATOM     20  C   UNL     1       1.650   8.086  18.581  0.00  0.00    +0.025 C 
ATOM     21  C   UNL     1       0.969   9.206  17.781  0.00  0.00    -0.021 C 
ATOM     22  H   UNL     1      -0.281  10.808  18.566  0.00  0.00    +0.042 HD
ATOM     23  H   UNL     1       0.810  10.301  20.977  0.00  0.00    +0.027 HD
ATOM     24  H   UNL     1      -0.374   9.175  20.275  0.00  0.00    +0.027 HD
ATOM     25  H   UNL     1       2.640   8.895  20.354  0.00  0.00    +0.028 HD
ATOM     26  H   UNL     1       1.414   7.691  20.718  0.00  0.00    +0.028 HD
ATOM     27  H   UNL     1       1.057   7.169  18.482  0.00  0.00    +0.050 HD
ATOM     28  H   UNL     1       0.022   8.827  17.359  0.00  0.00    +0.029 HD
ATOM     29  H   UNL     1       1.576   9.546  16.927  0.00  0.00    +0.029 HD
BRANCH  17  31
ATOM     30  O   UNL     1       1.715  12.363  19.406  0.00  0.00    -0.246 OA
ATOM     31  C   UNL     1       1.803  11.372  18.623  0.00  0.00    +0.359 C 
ATOM     32  O   UNL     1       2.664  11.139  17.730  0.00  0.00    -0.246 OA
ENDBRANCH  17  31
ENDBRANCH   1  20
BRANCH   7  33
ATOM     33  C   UNL     1       6.600   4.838  15.403  0.00  0.00    -0.008 A 
ATOM     34  C   UNL     1       7.627   5.232  14.526  0.00  0.00    -0.056 A 
ATOM     35  C   UNL     1       7.605   4.864  13.180  0.00  0.00    -0.061 A 
ATOM     36  C   UNL     1       6.549   4.103  12.679  0.00  0.00    -0.059 A 
ATOM     37  C   UNL     1       5.525   3.703  13.531  0.00  0.00    -0.026 A 
ATOM     38  C   UNL     1       5.555   4.074  14.872  0.00  0.00    +0.127 A 
ATOM     39  F   UNL     1       4.539   3.679  15.645  0.00  0.00    -0.205 F 
ATOM     40  H   UNL     1       8.461   5.826  14.893  0.00  0.00    +0.062 HD
ATOM     41  H   UNL     1       8.419   5.172  12.525  0.00  0.00    +0.062 HD
ATOM     42  H   UNL     1       6.532   3.816  11.631  0.00  0.00    +0.062 HD
ATOM     43  H   UNL     1       4.700   3.100  13.163  0.00  0.00    +0.065 HD
ENDBRANCH   7  33
TORSDOF 3
ENDMDL
MODEL 21
REMARK VINA RESULT:    -6.103      2.710      4.252
REMARK INTER + INTRA:          -7.286
REMARK INTER:                  -7.097
REMARK INTRA:                  -0.189
REMARK UNBOUND:                -0.113
REMARK  Name = 
REMARK  3 active torsions:
REMARK  status: ('A' for Active; 'I' for Inactive)
REMARK    1  A    between atoms: C_2  and  C_4
REMARK    2  A    between atoms: C_7  and  N_8
REMARK    3  A    between atoms: C_14  and  C_15
REMARK                            x       y       z     vdW  Elec       q    Type
REMARK                         _______ _______ _______ _____ _____    ______ ____
ROOT
ATOM      1  N   UNL     1       3.874   7.218  17.600  0.00  0.00    -0.296 N 
ATOM      2  C   UNL     1       2.525   7.231  17.844  0.00  0.00    +0.302 C 
ATOM      3  O   UNL     1       1.826   6.218  17.800  0.00  0.00    -0.253 OA
ATOM      4  N   UNL     1       1.991   8.475  18.061  0.00  0.00    -0.285 N 
ATOM      5  C   UNL     1       2.689   9.746  18.111  0.00  0.00    +0.017 C 
ATOM      6  C   UNL     1       1.585  10.799  18.137  0.00  0.00    -0.029 C 
ATOM      7  C   UNL     1       0.355  10.073  18.708  0.00  0.00    +0.004 C 
ATOM      8  C   UNL     1       0.557   8.648  18.167  0.00  0.00    +0.023 C 
ATOM      9  H   UNL     1       4.431   7.896  18.106  0.00  0.00    +0.151 HD
ATOM     10  H   UNL     1       3.310   9.761  19.010  0.00  0.00    +0.047 HD
ATOM     11  H   UNL     1       3.339   9.861  17.239  0.00  0.00    +0.047 HD
ATOM     12  H   UNL     1       1.361  11.083  17.098  0.00  0.00    +0.029 HD
ATOM     13  H   UNL     1       1.866  11.718  18.657  0.00  0.00    +0.029 HD
ATOM     14  H   UNL     1      -0.542  10.509  18.248  0.00  0.00    +0.037 HD
ATOM     15  H   UNL     1       0.083   7.846  18.744  0.00  0.00    +0.047 HD
ATOM     16  H   UNL     1       0.167   8.589  17.143  0.00  0.00    +0.047 HD
ENDROOT
BRANCH   1  20
ATOM     17  C   UNL     1       6.952   5.581  17.640  0.00  0.00    +0.062 C 
ATOM     18  C   UNL     1       6.614   5.352  16.175  0.00  0.00    -0.038 C 
ATOM     19  C   UNL     1       5.309   6.096  15.957  0.00  0.00    -0.034 C 
ATOM     20  C   UNL     1       4.562   5.987  17.287  0.00  0.00    +0.025 C 
ATOM     21  C   UNL     1       5.596   5.594  18.352  0.00  0.00    -0.021 C 
ATOM     22  H   UNL     1       7.581   4.763  18.012  0.00  0.00    +0.042 HD
ATOM     23  H   UNL     1       7.399   5.699  15.493  0.00  0.00    +0.027 HD
ATOM     24  H   UNL     1       6.450   4.280  15.991  0.00  0.00    +0.027 HD
ATOM     25  H   UNL     1       5.503   7.140  15.684  0.00  0.00    +0.028 HD
ATOM     26  H   UNL     1       4.733   5.662  15.132  0.00  0.00    +0.028 HD
ATOM     27  H   UNL     1       3.810   5.192  17.212  0.00  0.00    +0.050 HD
ATOM     28  H   UNL     1       5.361   4.585  18.731  0.00  0.00    +0.029 HD
ATOM     29  H   UNL     1       5.581   6.266  19.225  0.00  0.00    +0.029 HD
BRANCH  17  31
ATOM     30  O   UNL     1       8.393   6.891  18.985  0.00  0.00    -0.246 OA
ATOM     31  C   UNL     1       7.643   6.920  17.967  0.00  0.00    +0.359 C 
ATOM     32  O   UNL     1       7.376   7.891  17.204  0.00  0.00    -0.246 OA
ENDBRANCH  17  31
ENDBRANCH   1  20
BRANCH   7  33
ATOM     33  C   UNL     1       0.115  10.091  20.208  0.00  0.00    -0.008 A 
ATOM     34  C   UNL     1       0.501   8.954  20.941  0.00  0.00    -0.056 A 
ATOM     35  C   UNL     1       0.315   8.892  22.323  0.00  0.00    -0.061 A 
ATOM     36  C   UNL     1      -0.269   9.962  23.000  0.00  0.00    -0.059 A 
ATOM     37  C   UNL     1      -0.655  11.095  22.293  0.00  0.00    -0.026 A 
ATOM     38  C   UNL     1      -0.467  11.149  20.915  0.00  0.00    +0.127 A 
ATOM     39  F   UNL     1      -0.871  12.253  20.279  0.00  0.00    -0.205 F 
ATOM     40  H   UNL     1       0.958   8.107  20.435  0.00  0.00    +0.062 HD
ATOM     41  H   UNL     1       0.634   8.004  22.868  0.00  0.00    +0.062 HD
ATOM     42  H   UNL     1      -0.413   9.913  24.076  0.00  0.00    +0.062 HD
ATOM     43  H   UNL     1      -1.103  11.943  22.804  0.00  0.00    +0.065 HD
ENDBRANCH   7  33
TORSDOF 3
ENDMDL
MODEL 22
REMARK VINA RESULT:    -5.957      5.656      7.400
REMARK INTER + INTRA:          -7.115
REMARK INTER:                  -8.102
REMARK INTRA:                   0.987
REMARK UNBOUND:                -0.113
REMARK  Name = 
REMARK  3 active torsions:
REMARK  status: ('A' for Active; 'I' for Inactive)
REMARK    1  A    between atoms: C_2  and  C_4
REMARK    2  A    between atoms: C_7  and  N_8
REMARK    3  A    between atoms: C_14  and  C_15
REMARK                            x       y       z     vdW  Elec       q    Type
REMARK                         _______ _______ _______ _____ _____    ______ ____
ROOT
ATOM      1  N   UNL     1       3.163   3.197  17.583  0.00  0.00    -0.296 N 
ATOM      2  C   UNL     1       3.388   4.525  17.328  0.00  0.00    +0.302 C 
ATOM      3  O   UNL     1       2.543   5.399  17.527  0.00  0.00    -0.253 OA
ATOM      4  N   UNL     1       4.601   4.804  16.753  0.00  0.00    -0.285 N 
ATOM      5  C   UNL     1       5.671   3.875  16.440  0.00  0.00    +0.017 C 
ATOM      6  C   UNL     1       6.661   4.684  15.605  0.00  0.00    -0.029 C 
ATOM      7  C   UNL     1       6.411   6.149  16.001  0.00  0.00    +0.004 C 
ATOM      8  C   UNL     1       4.899   6.141  16.283  0.00  0.00    +0.023 C 
ATOM      9  H   UNL     1       3.966   2.650  17.871  0.00  0.00    +0.151 HD
ATOM     10  H   UNL     1       6.100   3.517  17.378  0.00  0.00    +0.047 HD
ATOM     11  H   UNL     1       5.282   3.014  15.886  0.00  0.00    +0.047 HD
ATOM     12  H   UNL     1       6.390   4.565  14.546  0.00  0.00    +0.029 HD
ATOM     13  H   UNL     1       7.695   4.346  15.702  0.00  0.00    +0.029 HD
ATOM     14  H   UNL     1       6.610   6.777  15.122  0.00  0.00    +0.037 HD
ATOM     15  H   UNL     1       4.536   6.913  16.970  0.00  0.00    +0.047 HD
ATOM     16  H   UNL     1       4.352   6.259  15.338  0.00  0.00    +0.047 HD
ENDROOT
BRANCH   1  20
ATOM     17  C   UNL     1       0.842   3.627  20.149  0.00  0.00    +0.062 C 
ATOM     18  C   UNL     1       1.039   2.126  20.296  0.00  0.00    -0.038 C 
ATOM     19  C   UNL     1       2.116   1.775  19.286  0.00  0.00    -0.034 C 
ATOM     20  C   UNL     1       1.902   2.746  18.124  0.00  0.00    +0.025 C 
ATOM     21  C   UNL     1       1.034   3.897  18.654  0.00  0.00    -0.021 C 
ATOM     22  H   UNL     1      -0.170   3.906  20.469  0.00  0.00    +0.042 HD
ATOM     23  H   UNL     1       1.322   1.827  21.313  0.00  0.00    +0.027 HD
ATOM     24  H   UNL     1       0.112   1.598  20.030  0.00  0.00    +0.027 HD
ATOM     25  H   UNL     1       3.111   1.887  19.730  0.00  0.00    +0.028 HD
ATOM     26  H   UNL     1       2.036   0.731  18.961  0.00  0.00    +0.028 HD
ATOM     27  H   UNL     1       1.358   2.232  17.322  0.00  0.00    +0.050 HD
ATOM     28  H   UNL     1       0.057   3.881  18.140  0.00  0.00    +0.029 HD
ATOM     29  H   UNL     1       1.474   4.886  18.453  0.00  0.00    +0.029 HD
BRANCH  17  31
ATOM     30  O   UNL     1       2.460   3.934  21.848  0.00  0.00    -0.246 OA
ATOM     31  C   UNL     1       1.857   4.513  20.898  0.00  0.00    +0.359 C 
ATOM     32  O   UNL     1       1.963   5.707  20.499  0.00  0.00    -0.246 OA
ENDBRANCH  17  31
ENDBRANCH   1  20
BRANCH   7  33
ATOM     33  C   UNL     1       7.206   6.753  17.145  0.00  0.00    -0.008 A 
ATOM     34  C   UNL     1       7.543   8.116  17.053  0.00  0.00    -0.056 A 
ATOM     35  C   UNL     1       8.272   8.747  18.062  0.00  0.00    -0.061 A 
ATOM     36  C   UNL     1       8.689   8.026  19.181  0.00  0.00    -0.059 A 
ATOM     37  C   UNL     1       8.364   6.678  19.290  0.00  0.00    -0.026 A 
ATOM     38  C   UNL     1       7.637   6.056  18.279  0.00  0.00    +0.127 A 
ATOM     39  F   UNL     1       7.366   4.756  18.424  0.00  0.00    -0.205 F 
ATOM     40  H   UNL     1       7.229   8.700  16.190  0.00  0.00    +0.062 HD
ATOM     41  H   UNL     1       8.508   9.806  17.972  0.00  0.00    +0.062 HD
ATOM     42  H   UNL     1       9.256   8.518  19.967  0.00  0.00    +0.062 HD
ATOM     43  H   UNL     1       8.671   6.102  20.158  0.00  0.00    +0.065 HD
ENDBRANCH   7  33
TORSDOF 3
ENDMDL
MODEL 23
REMARK VINA RESULT:    -5.669      3.669      7.851
REMARK INTER + INTRA:          -6.776
REMARK INTER:                  -7.067
REMARK INTRA:                   0.291
REMARK UNBOUND:                -0.113
REMARK  Name = 
REMARK  3 active torsions:
REMARK  status: ('A' for Active; 'I' for Inactive)
REMARK    1  A    between atoms: C_2  and  C_4
REMARK    2  A    between atoms: C_7  and  N_8
REMARK    3  A    between atoms: C_14  and  C_15
REMARK                            x       y       z     vdW  Elec       q    Type
REMARK                         _______ _______ _______ _____ _____    ______ ____
ROOT
ATOM      1  N   UNL     1       0.858   9.297  19.937  0.00  0.00    -0.296 N 
ATOM      2  C   UNL     1       1.307   8.660  18.810  0.00  0.00    +0.302 C 
ATOM      3  O   UNL     1       1.077   9.069  17.672  0.00  0.00    -0.253 OA
ATOM      4  N   UNL     1       1.969   7.481  19.040  0.00  0.00    -0.285 N 
ATOM      5  C   UNL     1       2.283   6.873  20.319  0.00  0.00    +0.017 C 
ATOM      6  C   UNL     1       2.799   5.478  19.974  0.00  0.00    -0.029 C 
ATOM      7  C   UNL     1       3.318   5.592  18.530  0.00  0.00    +0.004 C 
ATOM      8  C   UNL     1       2.351   6.628  17.934  0.00  0.00    +0.023 C 
ATOM      9  H   UNL     1       1.446   9.231  20.759  0.00  0.00    +0.151 HD
ATOM     10  H   UNL     1       3.033   7.490  20.818  0.00  0.00    +0.047 HD
ATOM     11  H   UNL     1       1.392   6.830  20.953  0.00  0.00    +0.047 HD
ATOM     12  H   UNL     1       1.942   4.788  19.975  0.00  0.00    +0.029 HD
ATOM     13  H   UNL     1       3.517   5.084  20.696  0.00  0.00    +0.029 HD
ATOM     14  H   UNL     1       3.159   4.624  18.034  0.00  0.00    +0.037 HD
ATOM     15  H   UNL     1       2.731   7.200  17.080  0.00  0.00    +0.047 HD
ATOM     16  H   UNL     1       1.432   6.123  17.608  0.00  0.00    +0.047 HD
ENDROOT
BRANCH   1  20
ATOM     17  C   UNL     1       0.876  12.615  18.867  0.00  0.00    +0.062 C 
ATOM     18  C   UNL     1       0.439  12.862  20.303  0.00  0.00    -0.038 C 
ATOM     19  C   UNL     1       0.466  11.493  20.958  0.00  0.00    -0.034 C 
ATOM     20  C   UNL     1       0.085  10.514  19.847  0.00  0.00    +0.025 C 
ATOM     21  C   UNL     1       0.283  11.249  18.513  0.00  0.00    -0.021 C 
ATOM     22  H   UNL     1       0.473  13.398  18.213  0.00  0.00    +0.042 HD
ATOM     23  H   UNL     1       1.081  13.578  20.831  0.00  0.00    +0.027 HD
ATOM     24  H   UNL     1      -0.590  13.248  20.320  0.00  0.00    +0.027 HD
ATOM     25  H   UNL     1       1.461  11.280  21.363  0.00  0.00    +0.028 HD
ATOM     26  H   UNL     1      -0.232  11.439  21.802  0.00  0.00    +0.028 HD
ATOM     27  H   UNL     1      -0.974  10.247  19.951  0.00  0.00    +0.050 HD
ATOM     28  H   UNL     1      -0.697  11.380  18.022  0.00  0.00    +0.029 HD
ATOM     29  H   UNL     1       0.911  10.683  17.807  0.00  0.00    +0.029 HD
BRANCH  17  31
ATOM     30  O   UNL     1       3.086  13.332  19.318  0.00  0.00    -0.246 OA
ATOM     31  C   UNL     1       2.397  12.517  18.637  0.00  0.00    +0.359 C 
ATOM     32  O   UNL     1       2.784  11.657  17.796  0.00  0.00    -0.246 OA
ENDBRANCH  17  31
ENDBRANCH   1  20
BRANCH   7  33
ATOM     33  C   UNL     1       4.772   5.957  18.293  0.00  0.00    -0.008 A 
ATOM     34  C   UNL     1       5.040   7.005  17.393  0.00  0.00    -0.056 A 
ATOM     35  C   UNL     1       6.350   7.403  17.121  0.00  0.00    -0.061 A 
ATOM     36  C   UNL     1       7.421   6.755  17.735  0.00  0.00    -0.059 A 
ATOM     37  C   UNL     1       7.176   5.718  18.628  0.00  0.00    -0.026 A 
ATOM     38  C   UNL     1       5.867   5.327  18.894  0.00  0.00    +0.127 A 
ATOM     39  F   UNL     1       5.686   4.314  19.747  0.00  0.00    -0.205 F 
ATOM     40  H   UNL     1       4.221   7.526  16.901  0.00  0.00    +0.062 HD
ATOM     41  H   UNL     1       6.528   8.225  16.429  0.00  0.00    +0.062 HD
ATOM     42  H   UNL     1       8.441   7.065  17.523  0.00  0.00    +0.062 HD
ATOM     43  H   UNL     1       7.996   5.207  19.125  0.00  0.00    +0.065 HD
ENDBRANCH   7  33
TORSDOF 3
ENDMDL
MODEL 24
REMARK VINA RESULT:    -5.575      2.559      4.191
REMARK INTER + INTRA:          -6.665
REMARK INTER:                  -6.153
REMARK INTRA:                  -0.512
REMARK UNBOUND:                -0.113
REMARK  Name = 
REMARK  3 active torsions:
REMARK  status: ('A' for Active; 'I' for Inactive)
REMARK    1  A    between atoms: C_2  and  C_4
REMARK    2  A    between atoms: C_7  and  N_8
REMARK    3  A    between atoms: C_14  and  C_15
REMARK                            x       y       z     vdW  Elec       q    Type
REMARK                         _______ _______ _______ _____ _____    ______ ____
ROOT
ATOM      1  N   UNL     1       3.909   6.334  18.082  0.00  0.00    -0.296 N 
ATOM      2  C   UNL     1       2.559   6.530  18.206  0.00  0.00    +0.302 C 
ATOM      3  O   UNL     1       1.750   5.603  18.274  0.00  0.00    -0.253 OA
ATOM      4  N   UNL     1       2.160   7.841  18.168  0.00  0.00    -0.285 N 
ATOM      5  C   UNL     1       2.998   9.022  18.063  0.00  0.00    +0.017 C 
ATOM      6  C   UNL     1       2.025  10.173  17.821  0.00  0.00    -0.029 C 
ATOM      7  C   UNL     1       0.684   9.690  18.401  0.00  0.00    +0.004 C 
ATOM      8  C   UNL     1       0.752   8.179  18.124  0.00  0.00    +0.023 C 
ATOM      9  H   UNL     1       4.508   7.029  18.512  0.00  0.00    +0.151 HD
ATOM     10  H   UNL     1       3.557   9.129  18.995  0.00  0.00    +0.047 HD
ATOM     11  H   UNL     1       3.712   8.915  17.241  0.00  0.00    +0.047 HD
ATOM     12  H   UNL     1       1.903  10.292  16.734  0.00  0.00    +0.029 HD
ATOM     13  H   UNL     1       2.377  11.134  18.202  0.00  0.00    +0.029 HD
ATOM     14  H   UNL     1      -0.124  10.130  17.801  0.00  0.00    +0.037 HD
ATOM     15  H   UNL     1       0.152   7.544  18.785  0.00  0.00    +0.047 HD
ATOM     16  H   UNL     1       0.425   7.983  17.094  0.00  0.00    +0.047 HD
ENDROOT
BRANCH   1  20
ATOM     17  C   UNL     1       6.659   4.426  17.105  0.00  0.00    +0.062 C 
ATOM     18  C   UNL     1       5.582   3.616  16.398  0.00  0.00    -0.038 C 
ATOM     19  C   UNL     1       4.294   4.379  16.651  0.00  0.00    -0.034 C 
ATOM     20  C   UNL     1       4.468   5.002  18.036  0.00  0.00    +0.025 C 
ATOM     21  C   UNL     1       5.969   4.975  18.357  0.00  0.00    -0.021 C 
ATOM     22  H   UNL     1       7.500   3.776  17.375  0.00  0.00    +0.042 HD
ATOM     23  H   UNL     1       5.775   3.487  15.326  0.00  0.00    +0.027 HD
ATOM     24  H   UNL     1       5.503   2.619  16.853  0.00  0.00    +0.027 HD
ATOM     25  H   UNL     1       4.140   5.141  15.879  0.00  0.00    +0.028 HD
ATOM     26  H   UNL     1       3.422   3.716  16.612  0.00  0.00    +0.028 HD
ATOM     27  H   UNL     1       3.936   4.391  18.775  0.00  0.00    +0.050 HD
ATOM     28  H   UNL     1       6.145   4.297  19.210  0.00  0.00    +0.029 HD
ATOM     29  H   UNL     1       6.356   5.961  18.658  0.00  0.00    +0.029 HD
BRANCH  17  31
ATOM     30  O   UNL     1       7.224   5.491  15.068  0.00  0.00    -0.246 OA
ATOM     31  C   UNL     1       7.204   5.639  16.325  0.00  0.00    +0.359 C 
ATOM     32  O   UNL     1       7.582   6.627  17.016  0.00  0.00    -0.246 OA
ENDBRANCH  17  31
ENDBRANCH   1  20
BRANCH   7  33
ATOM     33  C   UNL     1       0.352   9.995  19.851  0.00  0.00    -0.008 A 
ATOM     34  C   UNL     1       0.309   8.913  20.749  0.00  0.00    -0.056 A 
ATOM     35  C   UNL     1       0.012   9.109  22.099  0.00  0.00    -0.061 A 
ATOM     36  C   UNL     1      -0.258  10.391  22.577  0.00  0.00    -0.059 A 
ATOM     37  C   UNL     1      -0.218  11.473  21.705  0.00  0.00    -0.026 A 
ATOM     38  C   UNL     1       0.079  11.269  20.361  0.00  0.00    +0.127 A 
ATOM     39  F   UNL     1       0.087  12.339  19.561  0.00  0.00    -0.205 F 
ATOM     40  H   UNL     1       0.515   7.904  20.399  0.00  0.00    +0.062 HD
ATOM     41  H   UNL     1      -0.003   8.255  22.774  0.00  0.00    +0.062 HD
ATOM     42  H   UNL     1      -0.488  10.543  23.629  0.00  0.00    +0.062 HD
ATOM     43  H   UNL     1      -0.415  12.480  22.061  0.00  0.00    +0.065 HD
ENDBRANCH   7  33
TORSDOF 3
ENDMDL
MODEL 25
REMARK VINA RESULT:    -5.520      1.936      3.092
REMARK INTER + INTRA:          -6.600
REMARK INTER:                  -7.111
REMARK INTRA:                   0.511
REMARK UNBOUND:                -0.113
REMARK  Name = 
REMARK  3 active torsions:
REMARK  status: ('A' for Active; 'I' for Inactive)
REMARK    1  A    between atoms: C_2  and  C_4
REMARK    2  A    between atoms: C_7  and  N_8
REMARK    3  A    between atoms: C_14  and  C_15
REMARK                            x       y       z     vdW  Elec       q    Type
REMARK                         _______ _______ _______ _____ _____    ______ ____
ROOT
ATOM      1  N   UNL     1       2.343   7.020  17.894  0.00  0.00    -0.296 N 
ATOM      2  C   UNL     1       2.130   7.705  19.062  0.00  0.00    +0.302 C 
ATOM      3  O   UNL     1       2.604   7.353  20.142  0.00  0.00    -0.253 OA
ATOM      4  N   UNL     1       1.277   8.774  18.956  0.00  0.00    -0.285 N 
ATOM      5  C   UNL     1       0.629   9.279  17.759  0.00  0.00    +0.017 C 
ATOM      6  C   UNL     1      -0.379  10.309  18.264  0.00  0.00    -0.029 C 
ATOM      7  C   UNL     1       0.169  10.767  19.626  0.00  0.00    +0.004 C 
ATOM      8  C   UNL     1       0.837   9.482  20.141  0.00  0.00    +0.023 C 
ATOM      9  H   UNL     1       2.370   7.572  17.045  0.00  0.00    +0.151 HD
ATOM     10  H   UNL     1       1.394   9.715  17.113  0.00  0.00    +0.047 HD
ATOM     11  H   UNL     1       0.139   8.465  17.215  0.00  0.00    +0.047 HD
ATOM     12  H   UNL     1      -1.335   9.793  18.437  0.00  0.00    +0.029 HD
ATOM     13  H   UNL     1      -0.581  11.110  17.550  0.00  0.00    +0.029 HD
ATOM     14  H   UNL     1      -0.686  11.012  20.272  0.00  0.00    +0.037 HD
ATOM     15  H   UNL     1       1.647   9.620  20.865  0.00  0.00    +0.047 HD
ATOM     16  H   UNL     1       0.081   8.842  20.613  0.00  0.00    +0.047 HD
ENDROOT
BRANCH   1  20
ATOM     17  C   UNL     1       2.842   3.865  19.291  0.00  0.00    +0.062 C 
ATOM     18  C   UNL     1       4.250   4.405  19.490  0.00  0.00    -0.038 C 
ATOM     19  C   UNL     1       4.186   5.842  19.004  0.00  0.00    -0.034 C 
ATOM     20  C   UNL     1       3.164   5.832  17.867  0.00  0.00    +0.025 C 
ATOM     21  C   UNL     1       2.347   4.540  18.008  0.00  0.00    -0.021 C 
ATOM     22  H   UNL     1       2.872   2.775  19.173  0.00  0.00    +0.042 HD
ATOM     23  H   UNL     1       4.592   4.342  20.530  0.00  0.00    +0.027 HD
ATOM     24  H   UNL     1       4.958   3.846  18.862  0.00  0.00    +0.027 HD
ATOM     25  H   UNL     1       3.882   6.510  19.818  0.00  0.00    +0.028 HD
ATOM     26  H   UNL     1       5.167   6.194  18.664  0.00  0.00    +0.028 HD
ATOM     27  H   UNL     1       3.695   5.814  16.908  0.00  0.00    +0.050 HD
ATOM     28  H   UNL     1       2.547   3.888  17.140  0.00  0.00    +0.029 HD
ATOM     29  H   UNL     1       1.262   4.723  18.016  0.00  0.00    +0.029 HD
BRANCH  17  31
ATOM     30  O   UNL     1       2.335   4.351  21.551  0.00  0.00    -0.246 OA
ATOM     31  C   UNL     1       1.828   4.212  20.400  0.00  0.00    +0.359 C 
ATOM     32  O   UNL     1       0.619   4.303  20.047  0.00  0.00    -0.246 OA
ENDBRANCH  17  31
ENDBRANCH   1  20
BRANCH   7  33
ATOM     33  C   UNL     1       1.102  11.964  19.684  0.00  0.00    -0.008 A 
ATOM     34  C   UNL     1       1.919  12.206  18.565  0.00  0.00    -0.056 A 
ATOM     35  C   UNL     1       2.803  13.285  18.538  0.00  0.00    -0.061 A 
ATOM     36  C   UNL     1       2.896  14.141  19.635  0.00  0.00    -0.059 A 
ATOM     37  C   UNL     1       2.096  13.920  20.750  0.00  0.00    -0.026 A 
ATOM     38  C   UNL     1       1.217  12.841  20.769  0.00  0.00    +0.127 A 
ATOM     39  F   UNL     1       0.483  12.661  21.871  0.00  0.00    -0.205 F 
ATOM     40  H   UNL     1       1.864  11.551  17.697  0.00  0.00    +0.062 HD
ATOM     41  H   UNL     1       3.415  13.456  17.654  0.00  0.00    +0.062 HD
ATOM     42  H   UNL     1       3.585  14.982  19.614  0.00  0.00    +0.062 HD
ATOM     43  H   UNL     1       2.146  14.581  21.610  0.00  0.00    +0.065 HD
ENDBRANCH   7  33
TORSDOF 3
ENDMDL
MODEL 26
REMARK VINA RESULT:    -5.512      3.915      8.140
REMARK INTER + INTRA:          -6.592
REMARK INTER:                  -6.107
REMARK INTRA:                  -0.485
REMARK UNBOUND:                -0.113
REMARK  Name = 
REMARK  3 active torsions:
REMARK  status: ('A' for Active; 'I' for Inactive)
REMARK    1  A    between atoms: C_2  and  C_4
REMARK    2  A    between atoms: C_7  and  N_8
REMARK    3  A    between atoms: C_14  and  C_15
REMARK                            x       y       z     vdW  Elec       q    Type
REMARK                         _______ _______ _______ _____ _____    ______ ____
ROOT
ATOM      1  N   UNL     1       2.336   7.398  19.281  0.00  0.00    -0.296 N 
ATOM      2  C   UNL     1       2.383   6.226  18.573  0.00  0.00    +0.302 C 
ATOM      3  O   UNL     1       1.400   5.744  18.009  0.00  0.00    -0.253 OA
ATOM      4  N   UNL     1       3.592   5.580  18.606  0.00  0.00    -0.285 N 
ATOM      5  C   UNL     1       4.816   6.017  19.252  0.00  0.00    +0.017 C 
ATOM      6  C   UNL     1       5.751   4.813  19.174  0.00  0.00    -0.029 C 
ATOM      7  C   UNL     1       5.244   3.991  17.977  0.00  0.00    +0.004 C 
ATOM      8  C   UNL     1       3.730   4.254  18.039  0.00  0.00    +0.023 C 
ATOM      9  H   UNL     1       3.180   7.960  19.280  0.00  0.00    +0.151 HD
ATOM     10  H   UNL     1       5.197   6.886  18.711  0.00  0.00    +0.047 HD
ATOM     11  H   UNL     1       4.620   6.312  20.287  0.00  0.00    +0.047 HD
ATOM     12  H   UNL     1       5.610   4.213  20.085  0.00  0.00    +0.029 HD
ATOM     13  H   UNL     1       6.810   5.081  19.139  0.00  0.00    +0.029 HD
ATOM     14  H   UNL     1       5.434   2.930  18.188  0.00  0.00    +0.037 HD
ATOM     15  H   UNL     1       3.187   4.148  17.093  0.00  0.00    +0.047 HD
ATOM     16  H   UNL     1       3.270   3.566  18.760  0.00  0.00    +0.047 HD
ENDROOT
BRANCH   1  20
ATOM     17  C   UNL     1       0.791  10.448  18.600  0.00  0.00    +0.062 C 
ATOM     18  C   UNL     1       0.470  10.379  20.086  0.00  0.00    -0.038 C 
ATOM     19  C   UNL     1       1.164   9.121  20.575  0.00  0.00    -0.034 C 
ATOM     20  C   UNL     1       1.110   8.153  19.393  0.00  0.00    +0.025 C 
ATOM     21  C   UNL     1       0.807   8.988  18.141  0.00  0.00    -0.021 C 
ATOM     22  H   UNL     1       0.013  11.015  18.075  0.00  0.00    +0.042 HD
ATOM     23  H   UNL     1       0.800  11.268  20.639  0.00  0.00    +0.027 HD
ATOM     24  H   UNL     1      -0.614  10.270  20.230  0.00  0.00    +0.027 HD
ATOM     25  H   UNL     1       2.195   9.342  20.872  0.00  0.00    +0.028 HD
ATOM     26  H   UNL     1       0.667   8.708  21.461  0.00  0.00    +0.028 HD
ATOM     27  H   UNL     1       0.291   7.440  19.551  0.00  0.00    +0.050 HD
ATOM     28  H   UNL     1      -0.186   8.706  17.749  0.00  0.00    +0.029 HD
ATOM     29  H   UNL     1       1.526   8.806  17.327  0.00  0.00    +0.029 HD
BRANCH  17  31
ATOM     30  O   UNL     1       2.976  10.226  17.717  0.00  0.00    -0.246 OA
ATOM     31  C   UNL     1       2.166  11.046  18.239  0.00  0.00    +0.359 C 
ATOM     32  O   UNL     1       2.338  12.267  18.515  0.00  0.00    -0.246 OA
ENDBRANCH  17  31
ENDBRANCH   1  20
BRANCH   7  33
ATOM     33  C   UNL     1       5.819   4.259  16.597  0.00  0.00    -0.008 A 
ATOM     34  C   UNL     1       4.974   4.057  15.491  0.00  0.00    -0.056 A 
ATOM     35  C   UNL     1       5.426   4.282  14.190  0.00  0.00    -0.061 A 
ATOM     36  C   UNL     1       6.736   4.704  13.966  0.00  0.00    -0.059 A 
ATOM     37  C   UNL     1       7.586   4.911  15.047  0.00  0.00    -0.026 A 
ATOM     38  C   UNL     1       7.127   4.684  16.342  0.00  0.00    +0.127 A 
ATOM     39  F   UNL     1       7.988   4.881  17.345  0.00  0.00    -0.205 F 
ATOM     40  H   UNL     1       3.948   3.727  15.640  0.00  0.00    +0.062 HD
ATOM     41  H   UNL     1       4.747   4.129  13.352  0.00  0.00    +0.062 HD
ATOM     42  H   UNL     1       7.087   4.880  12.953  0.00  0.00    +0.062 HD
ATOM     43  H   UNL     1       8.606   5.250  14.895  0.00  0.00    +0.065 HD
ENDBRANCH   7  33
TORSDOF 3
ENDMDL
MODEL 27
REMARK VINA RESULT:    -5.423      2.066      2.857
REMARK INTER + INTRA:          -6.487
REMARK INTER:                  -7.053
REMARK INTRA:                   0.566
REMARK UNBOUND:                -0.113
REMARK  Name = 
REMARK  3 active torsions:
REMARK  status: ('A' for Active; 'I' for Inactive)
REMARK    1  A    between atoms: C_2  and  C_4
REMARK    2  A    between atoms: C_7  and  N_8
REMARK    3  A    between atoms: C_14  and  C_15
REMARK                            x       y       z     vdW  Elec       q    Type
REMARK                         _______ _______ _______ _____ _____    ______ ____
ROOT
ATOM      1  N   UNL     1       2.921   5.594  18.814  0.00  0.00    -0.296 N 
ATOM      2  C   UNL     1       2.892   6.881  18.347  0.00  0.00    +0.302 C 
ATOM      3  O   UNL     1       3.456   7.232  17.310  0.00  0.00    -0.253 OA
ATOM      4  N   UNL     1       2.253   7.777  19.166  0.00  0.00    -0.285 N 
ATOM      5  C   UNL     1       1.575   7.508  20.421  0.00  0.00    +0.017 C 
ATOM      6  C   UNL     1       1.271   8.885  21.006  0.00  0.00    -0.029 C 
ATOM      7  C   UNL     1       1.241   9.834  19.795  0.00  0.00    +0.004 C 
ATOM      8  C   UNL     1       2.293   9.195  18.874  0.00  0.00    +0.023 C 
ATOM      9  H   UNL     1       2.102   5.278  19.322  0.00  0.00    +0.151 HD
ATOM     10  H   UNL     1       0.674   6.930  20.206  0.00  0.00    +0.047 HD
ATOM     11  H   UNL     1       2.215   6.918  21.084  0.00  0.00    +0.047 HD
ATOM     12  H   UNL     1       2.117   9.176  21.646  0.00  0.00    +0.029 HD
ATOM     13  H   UNL     1       0.380   8.907  21.637  0.00  0.00    +0.029 HD
ATOM     14  H   UNL     1       1.601  10.818  20.125  0.00  0.00    +0.037 HD
ATOM     15  H   UNL     1       2.180   9.401  17.804  0.00  0.00    +0.047 HD
ATOM     16  H   UNL     1       3.293   9.539  19.170  0.00  0.00    +0.047 HD
ENDROOT
BRANCH   1  20
ATOM     17  C   UNL     1       6.052   4.365  17.896  0.00  0.00    +0.062 C 
ATOM     18  C   UNL     1       5.438   4.432  16.505  0.00  0.00    -0.038 C 
ATOM     19  C   UNL     1       4.067   5.047  16.715  0.00  0.00    -0.034 C 
ATOM     20  C   UNL     1       3.617   4.555  18.091  0.00  0.00    +0.025 C 
ATOM     21  C   UNL     1       4.872   4.058  18.823  0.00  0.00    -0.021 C 
ATOM     22  H   UNL     1       6.800   3.565  17.937  0.00  0.00    +0.042 HD
ATOM     23  H   UNL     1       6.041   5.013  15.797  0.00  0.00    +0.027 HD
ATOM     24  H   UNL     1       5.318   3.417  16.099  0.00  0.00    +0.027 HD
ATOM     25  H   UNL     1       4.125   6.140  16.674  0.00  0.00    +0.028 HD
ATOM     26  H   UNL     1       3.367   4.743  15.928  0.00  0.00    +0.028 HD
ATOM     27  H   UNL     1       2.925   3.714  17.963  0.00  0.00    +0.050 HD
ATOM     28  H   UNL     1       4.793   2.969  18.982  0.00  0.00    +0.029 HD
ATOM     29  H   UNL     1       4.988   4.510  19.821  0.00  0.00    +0.029 HD
BRANCH  17  31
ATOM     30  O   UNL     1       6.966   6.513  17.502  0.00  0.00    -0.246 OA
ATOM     31  C   UNL     1       6.696   5.669  18.407  0.00  0.00    +0.359 C 
ATOM     32  O   UNL     1       6.897   5.747  19.651  0.00  0.00    -0.246 OA
ENDBRANCH  17  31
ENDBRANCH   1  20
BRANCH   7  33
ATOM     33  C   UNL     1      -0.076  10.080  19.081  0.00  0.00    -0.008 A 
ATOM     34  C   UNL     1      -0.237   9.517  17.802  0.00  0.00    -0.056 A 
ATOM     35  C   UNL     1      -1.418   9.696  17.080  0.00  0.00    -0.061 A 
ATOM     36  C   UNL     1      -2.460  10.451  17.617  0.00  0.00    -0.059 A 
ATOM     37  C   UNL     1      -2.321  11.014  18.881  0.00  0.00    -0.026 A 
ATOM     38  C   UNL     1      -1.140  10.831  19.594  0.00  0.00    +0.127 A 
ATOM     39  F   UNL     1      -1.049  11.407  20.797  0.00  0.00    -0.205 F 
ATOM     40  H   UNL     1       0.562   8.925  17.361  0.00  0.00    +0.062 HD
ATOM     41  H   UNL     1      -1.520   9.239  16.096  0.00  0.00    +0.062 HD
ATOM     42  H   UNL     1      -3.380  10.590  17.055  0.00  0.00    +0.062 HD
ATOM     43  H   UNL     1      -3.125  11.596  19.321  0.00  0.00    +0.065 HD
ENDBRANCH   7  33
TORSDOF 3
ENDMDL
MODEL 28
REMARK VINA RESULT:    -5.300      3.335      5.470
REMARK INTER + INTRA:          -6.342
REMARK INTER:                  -7.802
REMARK INTRA:                   1.459
REMARK UNBOUND:                -0.113
REMARK  Name = 
REMARK  3 active torsions:
REMARK  status: ('A' for Active; 'I' for Inactive)
REMARK    1  A    between atoms: C_2  and  C_4
REMARK    2  A    between atoms: C_7  and  N_8
REMARK    3  A    between atoms: C_14  and  C_15
REMARK                            x       y       z     vdW  Elec       q    Type
REMARK                         _______ _______ _______ _____ _____    ______ ____
ROOT
ATOM      1  N   UNL     1       4.262   3.923  17.260  0.00  0.00    -0.296 N 
ATOM      2  C   UNL     1       4.341   4.543  18.480  0.00  0.00    +0.302 C 
ATOM      3  O   UNL     1       5.408   4.891  18.987  0.00  0.00    -0.253 OA
ATOM      4  N   UNL     1       3.145   4.677  19.137  0.00  0.00    -0.285 N 
ATOM      5  C   UNL     1       1.827   4.289  18.672  0.00  0.00    +0.017 C 
ATOM      6  C   UNL     1       0.920   4.443  19.890  0.00  0.00    -0.029 C 
ATOM      7  C   UNL     1       1.631   5.471  20.788  0.00  0.00    +0.004 C 
ATOM      8  C   UNL     1       3.109   5.163  20.501  0.00  0.00    +0.023 C 
ATOM      9  H   UNL     1       3.432   4.112  16.711  0.00  0.00    +0.151 HD
ATOM     10  H   UNL     1       1.546   4.948  17.848  0.00  0.00    +0.047 HD
ATOM     11  H   UNL     1       1.838   3.258  18.303  0.00  0.00    +0.047 HD
ATOM     12  H   UNL     1       0.900   3.481  20.424  0.00  0.00    +0.029 HD
ATOM     13  H   UNL     1      -0.116   4.682  19.639  0.00  0.00    +0.029 HD
ATOM     14  H   UNL     1       1.407   5.221  21.834  0.00  0.00    +0.037 HD
ATOM     15  H   UNL     1       3.810   5.989  20.666  0.00  0.00    +0.047 HD
ATOM     16  H   UNL     1       3.436   4.326  21.131  0.00  0.00    +0.047 HD
ENDROOT
BRANCH   1  20
ATOM     17  C   UNL     1       7.303   5.219  16.152  0.00  0.00    +0.062 C 
ATOM     18  C   UNL     1       6.750   4.799  14.798  0.00  0.00    -0.038 C 
ATOM     19  C   UNL     1       5.354   4.281  15.093  0.00  0.00    -0.034 C 
ATOM     20  C   UNL     1       5.449   3.652  16.484  0.00  0.00    +0.025 C 
ATOM     21  C   UNL     1       6.727   4.198  17.137  0.00  0.00    -0.021 C 
ATOM     22  H   UNL     1       8.399   5.174  16.139  0.00  0.00    +0.042 HD
ATOM     23  H   UNL     1       6.735   5.617  14.067  0.00  0.00    +0.027 HD
ATOM     24  H   UNL     1       7.356   3.981  14.384  0.00  0.00    +0.027 HD
ATOM     25  H   UNL     1       4.627   5.100  15.066  0.00  0.00    +0.028 HD
ATOM     26  H   UNL     1       5.030   3.552  14.340  0.00  0.00    +0.028 HD
ATOM     27  H   UNL     1       5.541   2.564  16.380  0.00  0.00    +0.050 HD
ATOM     28  H   UNL     1       7.442   3.370  17.283  0.00  0.00    +0.029 HD
ATOM     29  H   UNL     1       6.542   4.628  18.134  0.00  0.00    +0.029 HD
BRANCH  17  31
ATOM     30  O   UNL     1       7.724   7.198  17.379  0.00  0.00    -0.246 OA
ATOM     31  C   UNL     1       6.872   6.613  16.648  0.00  0.00    +0.359 C 
ATOM     32  O   UNL     1       5.727   7.008  16.291  0.00  0.00    -0.246 OA
ENDBRANCH  17  31
ENDBRANCH   1  20
BRANCH   7  33
ATOM     33  C   UNL     1       1.307   6.945  20.624  0.00  0.00    -0.008 A 
ATOM     34  C   UNL     1       0.425   7.524  21.556  0.00  0.00    -0.056 A 
ATOM     35  C   UNL     1       0.077   8.873  21.476  0.00  0.00    -0.061 A 
ATOM     36  C   UNL     1       0.595   9.671  20.456  0.00  0.00    -0.059 A 
ATOM     37  C   UNL     1       1.469   9.117  19.527  0.00  0.00    -0.026 A 
ATOM     38  C   UNL     1       1.811   7.771  19.614  0.00  0.00    +0.127 A 
ATOM     39  F   UNL     1       2.641   7.284  18.687  0.00  0.00    -0.205 F 
ATOM     40  H   UNL     1       0.007   6.921  22.360  0.00  0.00    +0.062 HD
ATOM     41  H   UNL     1      -0.599   9.298  22.217  0.00  0.00    +0.062 HD
ATOM     42  H   UNL     1       0.324  10.721  20.394  0.00  0.00    +0.062 HD
ATOM     43  H   UNL     1       1.892   9.725  18.732  0.00  0.00    +0.065 HD
ENDBRANCH   7  33
TORSDOF 3
ENDMDL
MODEL 29
REMARK VINA RESULT:    -5.083      2.325      3.461
REMARK INTER + INTRA:          -6.087
REMARK INTER:                  -5.994
REMARK INTRA:                  -0.093
REMARK UNBOUND:                -0.113
REMARK  Name = 
REMARK  3 active torsions:
REMARK  status: ('A' for Active; 'I' for Inactive)
REMARK    1  A    between atoms: C_2  and  C_4
REMARK    2  A    between atoms: C_7  and  N_8
REMARK    3  A    between atoms: C_14  and  C_15
REMARK                            x       y       z     vdW  Elec       q    Type
REMARK                         _______ _______ _______ _____ _____    ______ ____
ROOT
ATOM      1  N   UNL     1       1.972   9.390  18.216  0.00  0.00    -0.296 N 
ATOM      2  C   UNL     1       0.721   9.942  18.138  0.00  0.00    +0.302 C 
ATOM      3  O   UNL     1      -0.189   9.449  17.469  0.00  0.00    -0.253 OA
ATOM      4  N   UNL     1       0.575  11.136  18.796  0.00  0.00    -0.285 N 
ATOM      5  C   UNL     1       1.564  11.839  19.592  0.00  0.00    +0.017 C 
ATOM      6  C   UNL     1       0.943  13.205  19.872  0.00  0.00    -0.029 C 
ATOM      7  C   UNL     1      -0.575  12.985  19.749  0.00  0.00    +0.004 C 
ATOM      8  C   UNL     1      -0.645  11.906  18.657  0.00  0.00    +0.023 C 
ATOM      9  H   UNL     1       2.469   9.519  19.090  0.00  0.00    +0.151 HD
ATOM     10  H   UNL     1       1.746  11.262  20.501  0.00  0.00    +0.047 HD
ATOM     11  H   UNL     1       2.507  11.927  19.043  0.00  0.00    +0.047 HD
ATOM     12  H   UNL     1       1.254  13.891  19.070  0.00  0.00    +0.029 HD
ATOM     13  H   UNL     1       1.273  13.653  20.812  0.00  0.00    +0.029 HD
ATOM     14  H   UNL     1      -1.023  13.913  19.368  0.00  0.00    +0.037 HD
ATOM     15  H   UNL     1      -1.538  11.272  18.667  0.00  0.00    +0.047 HD
ATOM     16  H   UNL     1      -0.592  12.383  17.669  0.00  0.00    +0.047 HD
ENDROOT
BRANCH   1  20
ATOM     17  C   UNL     1       2.352   5.939  18.529  0.00  0.00    +0.062 C 
ATOM     18  C   UNL     1       3.702   6.240  17.895  0.00  0.00    -0.038 C 
ATOM     19  C   UNL     1       3.742   7.752  17.768  0.00  0.00    -0.034 C 
ATOM     20  C   UNL     1       2.293   8.168  17.516  0.00  0.00    +0.025 C 
ATOM     21  C   UNL     1       1.406   6.988  17.939  0.00  0.00    -0.021 C 
ATOM     22  H   UNL     1       2.029   4.925  18.259  0.00  0.00    +0.042 HD
ATOM     23  H   UNL     1       4.547   5.857  18.481  0.00  0.00    +0.027 HD
ATOM     24  H   UNL     1       3.752   5.794  16.891  0.00  0.00    +0.027 HD
ATOM     25  H   UNL     1       4.141   8.204  18.683  0.00  0.00    +0.028 HD
ATOM     26  H   UNL     1       4.403   8.068  16.952  0.00  0.00    +0.028 HD
ATOM     27  H   UNL     1       2.153   8.350  16.443  0.00  0.00    +0.050 HD
ATOM     28  H   UNL     1       0.898   6.578  17.049  0.00  0.00    +0.029 HD
ATOM     29  H   UNL     1       0.611   7.286  18.641  0.00  0.00    +0.029 HD
BRANCH  17  31
ATOM     30  O   UNL     1       2.707   5.081  20.706  0.00  0.00    -0.246 OA
ATOM     31  C   UNL     1       2.285   6.085  20.062  0.00  0.00    +0.359 C 
ATOM     32  O   UNL     1       1.807   7.168  20.503  0.00  0.00    -0.246 OA
ENDBRANCH  17  31
ENDBRANCH   1  20
BRANCH   7  33
ATOM     33  C   UNL     1      -1.370  12.606  20.985  0.00  0.00    -0.008 A 
ATOM     34  C   UNL     1      -0.736  11.791  21.941  0.00  0.00    -0.056 A 
ATOM     35  C   UNL     1      -1.398  11.398  23.105  0.00  0.00    -0.061 A 
ATOM     36  C   UNL     1      -2.712  11.804  23.334  0.00  0.00    -0.059 A 
ATOM     37  C   UNL     1      -3.355  12.612  22.403  0.00  0.00    -0.026 A 
ATOM     38  C   UNL     1      -2.688  12.999  21.244  0.00  0.00    +0.127 A 
ATOM     39  F   UNL     1      -3.356  13.760  20.372  0.00  0.00    -0.205 F 
ATOM     40  H   UNL     1       0.289  11.461  21.784  0.00  0.00    +0.062 HD
ATOM     41  H   UNL     1      -0.879  10.777  23.834  0.00  0.00    +0.062 HD
ATOM     42  H   UNL     1      -3.227  11.499  24.242  0.00  0.00    +0.062 HD
ATOM     43  H   UNL     1      -4.375  12.947  22.568  0.00  0.00    +0.065 HD
ENDBRANCH   7  33
TORSDOF 3
ENDMDL
