MODEL 1
REMARK VINA RESULT:    -9.053      0.000      0.000
REMARK INTER + INTRA:          -9.053
REMARK INTER:                  -9.053
REMARK INTRA:                   0.000
REMARK UNBOUND:                 0.000
REMARK  Name = 
REMARK  0 active torsions:
REMARK  status: ('A' for Active; 'I' for Inactive)
REMARK                            x       y       z     vdW  Elec       q    Type
REMARK                         _______ _______ _______ _____ _____    ______ ____
ROOT
ATOM      1  O   UNL     1       1.975  10.360  17.765  0.00  0.00    -0.244 OA
ATOM      2  C   UNL     1       2.139   9.264  18.289  0.00  0.00    +0.347 A 
ATOM      3  O   UNL     1       2.873   8.263  17.671  0.00  0.00    -0.421 OA
ATOM      4  C   UNL     1       3.071   6.974  18.266  0.00  0.00    +0.144 A 
ATOM      5  C   UNL     1       2.572   6.615  19.476  0.00  0.00    +0.020 A 
ATOM      6  C   UNL     1       1.834   7.653  20.096  0.00  0.00    +0.061 A 
ATOM      7  N   UNL     1       1.244   7.560  21.321  0.00  0.00    -0.354 N 
ATOM      8  C   UNL     1       0.610   8.753  21.615  0.00  0.00    +0.048 A 
ATOM      9  C   UNL     1      -0.125   9.127  22.747  0.00  0.00    -0.038 A 
ATOM     10  C   UNL     1      -0.658  10.418  22.776  0.00  0.00    -0.060 A 
ATOM     11  C   UNL     1      -0.464  11.301  21.717  0.00  0.00    -0.061 A 
ATOM     12  C   UNL     1       0.274  10.915  20.593  0.00  0.00    -0.052 A 
ATOM     13  C   UNL     1       0.822   9.619  20.536  0.00  0.00    +0.014 A 
ATOM     14  C   UNL     1       1.602   8.907  19.585  0.00  0.00    +0.092 A 
ATOM     15  C   UNL     1       2.834   5.233  20.029  0.00  0.00    -0.018 C 
ATOM     16  C   UNL     1       3.038   4.175  18.939  0.00  0.00    -0.023 C 
ATOM     17  C   UNL     1       3.909   4.670  17.815  0.00  0.00    -0.036 A 
ATOM     18  C   UNL     1       4.672   3.766  17.063  0.00  0.00    -0.058 A 
ATOM     19  C   UNL     1       5.436   4.217  15.988  0.00  0.00    -0.061 A 
ATOM     20  C   UNL     1       5.434   5.569  15.651  0.00  0.00    -0.061 A 
ATOM     21  C   UNL     1       4.666   6.473  16.387  0.00  0.00    -0.051 A 
ATOM     22  C   UNL     1       3.895   6.038  17.475  0.00  0.00    +0.021 A 
ATOM     23  H   UNL     1       1.255   6.757  21.933  0.00  0.00    +0.166 HD
ATOM     24  H   UNL     1      -0.281   8.443  23.576  0.00  0.00    +0.064 HD
ATOM     25  H   UNL     1      -1.235  10.739  23.641  0.00  0.00    +0.062 HD
ATOM     26  H   UNL     1      -0.887  12.302  21.761  0.00  0.00    +0.062 HD
ATOM     27  H   UNL     1       0.422  11.611  19.770  0.00  0.00    +0.062 HD
ATOM     28  H   UNL     1       2.002   4.908  20.665  0.00  0.00    +0.032 HD
ATOM     29  H   UNL     1       3.724   5.284  20.669  0.00  0.00    +0.032 HD
ATOM     30  H   UNL     1       2.067   3.888  18.516  0.00  0.00    +0.032 HD
ATOM     31  H   UNL     1       3.473   3.278  19.396  0.00  0.00    +0.032 HD
ATOM     32  H   UNL     1       4.670   2.707  17.307  0.00  0.00    +0.062 HD
ATOM     33  H   UNL     1       6.030   3.514  15.409  0.00  0.00    +0.062 HD
ATOM     34  H   UNL     1       6.027   5.921  14.811  0.00  0.00    +0.062 HD
ATOM     35  H   UNL     1       4.679   7.522  16.101  0.00  0.00    +0.062 HD
ENDROOT
TORSDOF 0
ENDMDL
MODEL 2
REMARK VINA RESULT:    -8.428      1.756      7.117
REMARK INTER + INTRA:          -8.428
REMARK INTER:                  -8.428
REMARK INTRA:                   0.000
REMARK UNBOUND:                 0.000
REMARK  Name = 
REMARK  0 active torsions:
REMARK  status: ('A' for Active; 'I' for Inactive)
REMARK                            x       y       z     vdW  Elec       q    Type
REMARK                         _______ _______ _______ _____ _____    ______ ____
ROOT
ATOM      1  O   UNL     1       2.470   4.803  20.726  0.00  0.00    -0.244 OA
ATOM      2  C   UNL     1       2.348   5.908  20.207  0.00  0.00    +0.347 A 
ATOM      3  O   UNL     1       1.579   6.905  20.789  0.00  0.00    -0.421 OA
ATOM      4  C   UNL     1       1.421   8.201  20.196  0.00  0.00    +0.144 A 
ATOM      5  C   UNL     1       2.004   8.574  19.029  0.00  0.00    +0.020 A 
ATOM      6  C   UNL     1       2.793   7.547  18.455  0.00  0.00    +0.061 A 
ATOM      7  N   UNL     1       3.499   7.667  17.295  0.00  0.00    -0.354 N 
ATOM      8  C   UNL     1       4.151   6.477  17.031  0.00  0.00    +0.048 A 
ATOM      9  C   UNL     1       4.984   6.125  15.962  0.00  0.00    -0.038 A 
ATOM     10  C   UNL     1       5.517   4.833  15.954  0.00  0.00    -0.060 A 
ATOM     11  C   UNL     1       5.229   3.930  16.974  0.00  0.00    -0.061 A 
ATOM     12  C   UNL     1       4.396   4.295  18.037  0.00  0.00    -0.052 A 
ATOM     13  C   UNL     1       3.844   5.590  18.070  0.00  0.00    +0.014 A 
ATOM     14  C   UNL     1       2.987   6.285  18.964  0.00  0.00    +0.092 A 
ATOM     15  C   UNL     1       1.785   9.964  18.478  0.00  0.00    -0.018 C 
ATOM     16  C   UNL     1       0.442  10.574  18.894  0.00  0.00    -0.023 C 
ATOM     17  C   UNL     1       0.123  10.323  20.345  0.00  0.00    -0.036 A 
ATOM     18  C   UNL     1      -0.689  11.219  21.054  0.00  0.00    -0.058 A 
ATOM     19  C   UNL     1      -1.029  10.959  22.380  0.00  0.00    -0.061 A 
ATOM     20  C   UNL     1      -0.571   9.800  23.001  0.00  0.00    -0.061 A 
ATOM     21  C   UNL     1       0.226   8.896  22.297  0.00  0.00    -0.051 A 
ATOM     22  C   UNL     1       0.583   9.143  20.964  0.00  0.00    +0.021 A 
ATOM     23  H   UNL     1       3.550   8.486  16.706  0.00  0.00    +0.166 HD
ATOM     24  H   UNL     1       5.213   6.825  15.165  0.00  0.00    +0.064 HD
ATOM     25  H   UNL     1       6.168   4.529  15.137  0.00  0.00    +0.062 HD
ATOM     26  H   UNL     1       5.655   2.929  16.948  0.00  0.00    +0.062 HD
ATOM     27  H   UNL     1       4.177   3.583  18.830  0.00  0.00    +0.062 HD
ATOM     28  H   UNL     1       1.829   9.957  17.383  0.00  0.00    +0.032 HD
ATOM     29  H   UNL     1       2.607  10.603  18.826  0.00  0.00    +0.032 HD
ATOM     30  H   UNL     1      -0.364  10.141  18.288  0.00  0.00    +0.032 HD
ATOM     31  H   UNL     1       0.465  11.651  18.687  0.00  0.00    +0.032 HD
ATOM     32  H   UNL     1      -1.064  12.120  20.575  0.00  0.00    +0.062 HD
ATOM     33  H   UNL     1      -1.656  11.658  22.929  0.00  0.00    +0.062 HD
ATOM     34  H   UNL     1      -0.839   9.594  24.035  0.00  0.00    +0.062 HD
ATOM     35  H   UNL     1       0.567   7.995  22.804  0.00  0.00    +0.062 HD
ENDROOT
TORSDOF 0
ENDMDL
MODEL 3
REMARK VINA RESULT:    -8.395      1.780      7.133
REMARK INTER + INTRA:          -8.395
REMARK INTER:                  -8.395
REMARK INTRA:                   0.000
REMARK UNBOUND:                 0.000
REMARK  Name = 
REMARK  0 active torsions:
REMARK  status: ('A' for Active; 'I' for Inactive)
REMARK                            x       y       z     vdW  Elec       q    Type
REMARK                         _______ _______ _______ _____ _____    ______ ____
ROOT
ATOM      1  O   UNL     1       1.875   4.777  20.963  0.00  0.00    -0.244 OA
ATOM      2  C   UNL     1       1.890   5.887  20.442  0.00  0.00    +0.347 A 
ATOM      3  O   UNL     1       1.197   6.957  20.988  0.00  0.00    -0.421 OA
ATOM      4  C   UNL     1       1.199   8.261  20.391  0.00  0.00    +0.144 A 
ATOM      5  C   UNL     1       1.873   8.571  19.255  0.00  0.00    +0.020 A 
ATOM      6  C   UNL     1       2.582   7.469  18.718  0.00  0.00    +0.061 A 
ATOM      7  N   UNL     1       3.353   7.515  17.595  0.00  0.00    -0.354 N 
ATOM      8  C   UNL     1       3.896   6.266  17.360  0.00  0.00    +0.048 A 
ATOM      9  C   UNL     1       4.741   5.830  16.333  0.00  0.00    -0.038 A 
ATOM     10  C   UNL     1       5.142   4.491  16.347  0.00  0.00    -0.060 A 
ATOM     11  C   UNL     1       4.715   3.623  17.349  0.00  0.00    -0.061 A 
ATOM     12  C   UNL     1       3.872   4.072  18.371  0.00  0.00    -0.052 A 
ATOM     13  C   UNL     1       3.451   5.416  18.380  0.00  0.00    +0.014 A 
ATOM     14  C   UNL     1       2.624   6.195  19.233  0.00  0.00    +0.092 A 
ATOM     15  C   UNL     1       1.821   9.975  18.698  0.00  0.00    -0.018 C 
ATOM     16  C   UNL     1       0.527  10.717  19.049  0.00  0.00    -0.023 C 
ATOM     17  C   UNL     1       0.113  10.502  20.481  0.00  0.00    -0.036 A 
ATOM     18  C   UNL     1      -0.639  11.477  21.152  0.00  0.00    -0.058 A 
ATOM     19  C   UNL     1      -1.068  11.255  22.459  0.00  0.00    -0.061 A 
ATOM     20  C   UNL     1      -0.760  10.057  23.099  0.00  0.00    -0.061 A 
ATOM     21  C   UNL     1      -0.023   9.076  22.432  0.00  0.00    -0.051 A 
ATOM     22  C   UNL     1       0.421   9.284  21.119  0.00  0.00    +0.021 A 
ATOM     23  H   UNL     1       3.515   8.324  17.011  0.00  0.00    +0.166 HD
ATOM     24  H   UNL     1       5.078   6.501  15.549  0.00  0.00    +0.064 HD
ATOM     25  H   UNL     1       5.799   4.122  15.563  0.00  0.00    +0.062 HD
ATOM     26  H   UNL     1       5.040   2.585  17.341  0.00  0.00    +0.062 HD
ATOM     27  H   UNL     1       3.543   3.388  19.150  0.00  0.00    +0.062 HD
ATOM     28  H   UNL     1       1.918   9.961  17.606  0.00  0.00    +0.032 HD
ATOM     29  H   UNL     1       2.685  10.529  19.087  0.00  0.00    +0.032 HD
ATOM     30  H   UNL     1      -0.287  10.365  18.403  0.00  0.00    +0.032 HD
ATOM     31  H   UNL     1       0.667  11.785  18.845  0.00  0.00    +0.032 HD
ATOM     32  H   UNL     1      -0.899  12.410  20.657  0.00  0.00    +0.062 HD
ATOM     33  H   UNL     1      -1.649  12.014  22.978  0.00  0.00    +0.062 HD
ATOM     34  H   UNL     1      -1.098   9.882  24.117  0.00  0.00    +0.062 HD
ATOM     35  H   UNL     1       0.201   8.148  22.953  0.00  0.00    +0.062 HD
ENDROOT
TORSDOF 0
ENDMDL
MODEL 4
REMARK VINA RESULT:    -8.109      1.191      6.947
REMARK INTER + INTRA:          -8.109
REMARK INTER:                  -8.109
REMARK INTRA:                   0.000
REMARK UNBOUND:                 0.000
REMARK  Name = 
REMARK  0 active torsions:
REMARK  status: ('A' for Active; 'I' for Inactive)
REMARK                            x       y       z     vdW  Elec       q    Type
REMARK                         _______ _______ _______ _____ _____    ______ ____
ROOT
ATOM      1  O   UNL     1       2.122   9.845  17.424  0.00  0.00    -0.244 OA
ATOM      2  C   UNL     1       1.658   9.532  18.516  0.00  0.00    +0.347 A 
ATOM      3  O   UNL     1       0.810  10.376  19.217  0.00  0.00    -0.421 OA
ATOM      4  C   UNL     1       0.263  10.029  20.496  0.00  0.00    +0.144 A 
ATOM      5  C   UNL     1       0.513   8.856  21.132  0.00  0.00    +0.020 A 
ATOM      6  C   UNL     1       1.372   8.004  20.397  0.00  0.00    +0.061 A 
ATOM      7  N   UNL     1       1.766   6.763  20.800  0.00  0.00    -0.354 N 
ATOM      8  C   UNL     1       2.600   6.214  19.845  0.00  0.00    +0.048 A 
ATOM      9  C   UNL     1       3.247   4.972  19.821  0.00  0.00    -0.038 A 
ATOM     10  C   UNL     1       4.039   4.676  18.709  0.00  0.00    -0.060 A 
ATOM     11  C   UNL     1       4.178   5.583  17.662  0.00  0.00    -0.061 A 
ATOM     12  C   UNL     1       3.525   6.820  17.697  0.00  0.00    -0.052 A 
ATOM     13  C   UNL     1       2.721   7.146  18.807  0.00  0.00    +0.014 A 
ATOM     14  C   UNL     1       1.934   8.271  19.171  0.00  0.00    +0.092 A 
ATOM     15  C   UNL     1      -0.111   8.573  22.479  0.00  0.00    -0.018 C 
ATOM     16  C   UNL     1      -0.398   9.840  23.291  0.00  0.00    -0.023 C 
ATOM     17  C   UNL     1      -0.990  10.939  22.449  0.00  0.00    -0.036 A 
ATOM     18  C   UNL     1      -1.827  11.901  23.031  0.00  0.00    -0.058 A 
ATOM     19  C   UNL     1      -2.331  12.950  22.263  0.00  0.00    -0.061 A 
ATOM     20  C   UNL     1      -1.993  13.051  20.916  0.00  0.00    -0.061 A 
ATOM     21  C   UNL     1      -1.148  12.105  20.333  0.00  0.00    -0.051 A 
ATOM     22  C   UNL     1      -0.636  11.040  21.088  0.00  0.00    +0.021 A 
ATOM     23  H   UNL     1       1.503   6.300  21.659  0.00  0.00    +0.166 HD
ATOM     24  H   UNL     1       3.143   4.261  20.634  0.00  0.00    +0.064 HD
ATOM     25  H   UNL     1       4.555   3.719  18.660  0.00  0.00    +0.062 HD
ATOM     26  H   UNL     1       4.799   5.331  16.805  0.00  0.00    +0.062 HD
ATOM     27  H   UNL     1       3.638   7.523  16.875  0.00  0.00    +0.062 HD
ATOM     28  H   UNL     1       0.541   7.926  23.078  0.00  0.00    +0.032 HD
ATOM     29  H   UNL     1      -1.044   8.018  22.314  0.00  0.00    +0.032 HD
ATOM     30  H   UNL     1       0.534  10.214  23.734  0.00  0.00    +0.032 HD
ATOM     31  H   UNL     1      -1.072   9.584  24.117  0.00  0.00    +0.032 HD
ATOM     32  H   UNL     1      -2.086  11.841  24.085  0.00  0.00    +0.062 HD
ATOM     33  H   UNL     1      -2.983  13.692  22.717  0.00  0.00    +0.062 HD
ATOM     34  H   UNL     1      -2.382  13.870  20.318  0.00  0.00    +0.062 HD
ATOM     35  H   UNL     1      -0.896  12.209  19.279  0.00  0.00    +0.062 HD
ENDROOT
TORSDOF 0
ENDMDL
MODEL 5
REMARK VINA RESULT:    -8.088      1.172      6.908
REMARK INTER + INTRA:          -8.088
REMARK INTER:                  -8.088
REMARK INTRA:                   0.000
REMARK UNBOUND:                 0.000
REMARK  Name = 
REMARK  0 active torsions:
REMARK  status: ('A' for Active; 'I' for Inactive)
REMARK                            x       y       z     vdW  Elec       q    Type
REMARK                         _______ _______ _______ _____ _____    ______ ____
ROOT
ATOM      1  O   UNL     1       2.167   9.703  17.393  0.00  0.00    -0.244 OA
ATOM      2  C   UNL     1       1.716   9.401  18.493  0.00  0.00    +0.347 A 
ATOM      3  O   UNL     1       0.876  10.252  19.194  0.00  0.00    -0.421 OA
ATOM      4  C   UNL     1       0.343   9.919  20.483  0.00  0.00    +0.144 A 
ATOM      5  C   UNL     1       0.601   8.754  21.129  0.00  0.00    +0.020 A 
ATOM      6  C   UNL     1       1.452   7.894  20.393  0.00  0.00    +0.061 A 
ATOM      7  N   UNL     1       1.852   6.658  20.806  0.00  0.00    -0.354 N 
ATOM      8  C   UNL     1       2.676   6.099  19.847  0.00  0.00    +0.048 A 
ATOM      9  C   UNL     1       3.324   4.858  19.830  0.00  0.00    -0.038 A 
ATOM     10  C   UNL     1       4.104   4.549  18.712  0.00  0.00    -0.060 A 
ATOM     11  C   UNL     1       4.230   5.445  17.654  0.00  0.00    -0.061 A 
ATOM     12  C   UNL     1       3.576   6.681  17.683  0.00  0.00    -0.052 A 
ATOM     13  C   UNL     1       2.785   7.019  18.798  0.00  0.00    +0.014 A 
ATOM     14  C   UNL     1       2.001   8.148  19.159  0.00  0.00    +0.092 A 
ATOM     15  C   UNL     1      -0.007   8.485  22.486  0.00  0.00    -0.018 C 
ATOM     16  C   UNL     1      -0.286   9.760  23.287  0.00  0.00    -0.023 C 
ATOM     17  C   UNL     1      -0.888  10.850  22.439  0.00  0.00    -0.036 A 
ATOM     18  C   UNL     1      -1.720  11.817  23.020  0.00  0.00    -0.058 A 
ATOM     19  C   UNL     1      -2.233  12.857  22.247  0.00  0.00    -0.061 A 
ATOM     20  C   UNL     1      -1.911  12.943  20.895  0.00  0.00    -0.061 A 
ATOM     21  C   UNL     1      -1.072  11.991  20.312  0.00  0.00    -0.051 A 
ATOM     22  C   UNL     1      -0.550  10.936  21.074  0.00  0.00    +0.021 A 
ATOM     23  H   UNL     1       1.599   6.204  21.673  0.00  0.00    +0.166 HD
ATOM     24  H   UNL     1       3.230   4.155  20.652  0.00  0.00    +0.064 HD
ATOM     25  H   UNL     1       4.620   3.593  18.668  0.00  0.00    +0.062 HD
ATOM     26  H   UNL     1       4.841   5.184  16.793  0.00  0.00    +0.062 HD
ATOM     27  H   UNL     1       3.679   7.375  16.852  0.00  0.00    +0.062 HD
ATOM     28  H   UNL     1       0.652   7.845  23.085  0.00  0.00    +0.032 HD
ATOM     29  H   UNL     1      -0.941   7.927  22.337  0.00  0.00    +0.032 HD
ATOM     30  H   UNL     1       0.651  10.140  23.715  0.00  0.00    +0.032 HD
ATOM     31  H   UNL     1      -0.951   9.513  24.123  0.00  0.00    +0.032 HD
ATOM     32  H   UNL     1      -1.967  11.769  24.078  0.00  0.00    +0.062 HD
ATOM     33  H   UNL     1      -2.881  13.604  22.699  0.00  0.00    +0.062 HD
ATOM     34  H   UNL     1      -2.308  13.756  20.292  0.00  0.00    +0.062 HD
ATOM     35  H   UNL     1      -0.832  12.084  19.255  0.00  0.00    +0.062 HD
ENDROOT
TORSDOF 0
ENDMDL
MODEL 6
REMARK VINA RESULT:    -8.025      2.124      3.534
REMARK INTER + INTRA:          -8.025
REMARK INTER:                  -8.025
REMARK INTRA:                   0.000
REMARK UNBOUND:                 0.000
REMARK  Name = 
REMARK  0 active torsions:
REMARK  status: ('A' for Active; 'I' for Inactive)
REMARK                            x       y       z     vdW  Elec       q    Type
REMARK                         _______ _______ _______ _____ _____    ______ ____
ROOT
ATOM      1  O   UNL     1      -0.009   8.944  22.449  0.00  0.00    -0.244 OA
ATOM      2  C   UNL     1       0.553   8.777  21.372  0.00  0.00    +0.347 A 
ATOM      3  O   UNL     1       1.217   7.597  21.072  0.00  0.00    -0.421 OA
ATOM      4  C   UNL     1       1.883   7.384  19.820  0.00  0.00    +0.144 A 
ATOM      5  C   UNL     1       1.924   8.301  18.821  0.00  0.00    +0.020 A 
ATOM      6  C   UNL     1       1.233   9.495  19.141  0.00  0.00    +0.061 A 
ATOM      7  N   UNL     1       1.105  10.566  18.307  0.00  0.00    -0.354 N 
ATOM      8  C   UNL     1       0.373  11.553  18.939  0.00  0.00    +0.048 A 
ATOM      9  C   UNL     1      -0.008  12.821  18.484  0.00  0.00    -0.038 A 
ATOM     10  C   UNL     1      -0.761  13.621  19.348  0.00  0.00    -0.060 A 
ATOM     11  C   UNL     1      -1.119  13.170  20.616  0.00  0.00    -0.061 A 
ATOM     12  C   UNL     1      -0.734  11.900  21.057  0.00  0.00    -0.052 A 
ATOM     13  C   UNL     1       0.027  11.074  20.208  0.00  0.00    +0.014 A 
ATOM     14  C   UNL     1       0.576   9.768  20.317  0.00  0.00    +0.092 A 
ATOM     15  C   UNL     1       2.649   7.990  17.531  0.00  0.00    -0.018 C 
ATOM     16  C   UNL     1       3.804   7.000  17.711  0.00  0.00    -0.023 C 
ATOM     17  C   UNL     1       3.441   5.854  18.619  0.00  0.00    -0.036 A 
ATOM     18  C   UNL     1       4.069   4.610  18.470  0.00  0.00    -0.058 A 
ATOM     19  C   UNL     1       3.773   3.565  19.344  0.00  0.00    -0.061 A 
ATOM     20  C   UNL     1       2.860   3.760  20.377  0.00  0.00    -0.061 A 
ATOM     21  C   UNL     1       2.240   5.001  20.540  0.00  0.00    -0.051 A 
ATOM     22  C   UNL     1       2.522   6.061  19.667  0.00  0.00    +0.021 A 
ATOM     23  H   UNL     1       1.480  10.646  17.372  0.00  0.00    +0.166 HD
ATOM     24  H   UNL     1       0.268  13.179  17.497  0.00  0.00    +0.064 HD
ATOM     25  H   UNL     1      -1.073  14.612  19.024  0.00  0.00    +0.062 HD
ATOM     26  H   UNL     1      -1.707  13.809  21.272  0.00  0.00    +0.062 HD
ATOM     27  H   UNL     1      -1.018  11.555  22.049  0.00  0.00    +0.062 HD
ATOM     28  H   UNL     1       3.054   8.906  17.086  0.00  0.00    +0.032 HD
ATOM     29  H   UNL     1       1.919   7.585  16.818  0.00  0.00    +0.032 HD
ATOM     30  H   UNL     1       4.669   7.516  18.144  0.00  0.00    +0.032 HD
ATOM     31  H   UNL     1       4.105   6.627  16.724  0.00  0.00    +0.032 HD
ATOM     32  H   UNL     1       4.795   4.450  17.677  0.00  0.00    +0.062 HD
ATOM     33  H   UNL     1       4.259   2.600  19.224  0.00  0.00    +0.062 HD
ATOM     34  H   UNL     1       2.631   2.947  21.062  0.00  0.00    +0.062 HD
ATOM     35  H   UNL     1       1.534   5.128  21.358  0.00  0.00    +0.062 HD
ENDROOT
TORSDOF 0
ENDMDL
MODEL 7
REMARK VINA RESULT:    -7.978      2.355      4.060
REMARK INTER + INTRA:          -7.978
REMARK INTER:                  -7.978
REMARK INTRA:                   0.000
REMARK UNBOUND:                 0.000
REMARK  Name = 
REMARK  0 active torsions:
REMARK  status: ('A' for Active; 'I' for Inactive)
REMARK                            x       y       z     vdW  Elec       q    Type
REMARK                         _______ _______ _______ _____ _____    ______ ____
ROOT
ATOM      1  O   UNL     1       0.112   9.291  23.654  0.00  0.00    -0.244 OA
ATOM      2  C   UNL     1       0.331   9.336  22.448  0.00  0.00    +0.347 A 
ATOM      3  O   UNL     1       1.015   8.323  21.793  0.00  0.00    -0.421 OA
ATOM      4  C   UNL     1       1.284   8.360  20.386  0.00  0.00    +0.144 A 
ATOM      5  C   UNL     1       0.898   9.373  19.569  0.00  0.00    +0.020 A 
ATOM      6  C   UNL     1       0.194  10.392  20.253  0.00  0.00    +0.061 A 
ATOM      7  N   UNL     1      -0.320  11.510  19.665  0.00  0.00    -0.354 N 
ATOM      8  C   UNL     1      -0.942  12.288  20.623  0.00  0.00    +0.048 A 
ATOM      9  C   UNL     1      -1.602  13.516  20.497  0.00  0.00    -0.038 A 
ATOM     10  C   UNL     1      -2.147  14.081  21.652  0.00  0.00    -0.060 A 
ATOM     11  C   UNL     1      -2.037  13.443  22.885  0.00  0.00    -0.061 A 
ATOM     12  C   UNL     1      -1.376  12.216  22.998  0.00  0.00    -0.052 A 
ATOM     13  C   UNL     1      -0.816  11.624  21.850  0.00  0.00    +0.014 A 
ATOM     14  C   UNL     1      -0.098  10.425  21.596  0.00  0.00    +0.092 A 
ATOM     15  C   UNL     1       1.224   9.327  18.093  0.00  0.00    -0.018 C 
ATOM     16  C   UNL     1       2.494   8.530  17.779  0.00  0.00    -0.023 C 
ATOM     17  C   UNL     1       2.577   7.249  18.567  0.00  0.00    -0.036 A 
ATOM     18  C   UNL     1       3.282   6.150  18.056  0.00  0.00    -0.058 A 
ATOM     19  C   UNL     1       3.405   4.984  18.809  0.00  0.00    -0.061 A 
ATOM     20  C   UNL     1       2.837   4.912  20.078  0.00  0.00    -0.061 A 
ATOM     21  C   UNL     1       2.146   6.007  20.600  0.00  0.00    -0.051 A 
ATOM     22  C   UNL     1       2.007   7.186  19.855  0.00  0.00    +0.021 A 
ATOM     23  H   UNL     1      -0.264  11.751  18.685  0.00  0.00    +0.166 HD
ATOM     24  H   UNL     1      -1.691  14.018  19.538  0.00  0.00    +0.064 HD
ATOM     25  H   UNL     1      -2.667  15.035  21.587  0.00  0.00    +0.062 HD
ATOM     26  H   UNL     1      -2.470  13.901  23.772  0.00  0.00    +0.062 HD
ATOM     27  H   UNL     1      -1.295  11.724  23.965  0.00  0.00    +0.062 HD
ATOM     28  H   UNL     1       1.352  10.340  17.695  0.00  0.00    +0.032 HD
ATOM     29  H   UNL     1       0.367   8.885  17.568  0.00  0.00    +0.032 HD
ATOM     30  H   UNL     1       3.378   9.135  18.018  0.00  0.00    +0.032 HD
ATOM     31  H   UNL     1       2.521   8.321  16.703  0.00  0.00    +0.032 HD
ATOM     32  H   UNL     1       3.742   6.200  17.072  0.00  0.00    +0.062 HD
ATOM     33  H   UNL     1       3.949   4.132  18.408  0.00  0.00    +0.062 HD
ATOM     34  H   UNL     1       2.936   4.003  20.667  0.00  0.00    +0.062 HD
ATOM     35  H   UNL     1       1.715   5.926  21.596  0.00  0.00    +0.062 HD
ENDROOT
TORSDOF 0
ENDMDL
MODEL 8
REMARK VINA RESULT:    -7.600      1.540      6.409
REMARK INTER + INTRA:          -7.600
REMARK INTER:                  -7.600
REMARK INTRA:                   0.000
REMARK UNBOUND:                 0.000
REMARK  Name = 
REMARK  0 active torsions:
REMARK  status: ('A' for Active; 'I' for Inactive)
REMARK                            x       y       z     vdW  Elec       q    Type
REMARK                         _______ _______ _______ _____ _____    ______ ____
ROOT
ATOM      1  O   UNL     1       3.551   7.410  17.113  0.00  0.00    -0.244 OA
ATOM      2  C   UNL     1       2.886   7.548  18.135  0.00  0.00    +0.347 A 
ATOM      3  O   UNL     1       2.254   8.745  18.436  0.00  0.00    -0.421 OA
ATOM      4  C   UNL     1       1.476   8.927  19.627  0.00  0.00    +0.144 A 
ATOM      5  C   UNL     1       1.283   7.958  20.558  0.00  0.00    +0.020 A 
ATOM      6  C   UNL     1       1.927   6.742  20.228  0.00  0.00    +0.061 A 
ATOM      7  N   UNL     1       1.877   5.607  20.983  0.00  0.00    -0.354 N 
ATOM      8  C   UNL     1       2.616   4.614  20.367  0.00  0.00    +0.048 A 
ATOM      9  C   UNL     1       2.857   3.294  20.764  0.00  0.00    -0.038 A 
ATOM     10  C   UNL     1       3.651   2.501  19.932  0.00  0.00    -0.060 A 
ATOM     11  C   UNL     1       4.182   3.008  18.749  0.00  0.00    -0.061 A 
ATOM     12  C   UNL     1       3.933   4.329  18.363  0.00  0.00    -0.052 A 
ATOM     13  C   UNL     1       3.137   5.151  19.184  0.00  0.00    +0.014 A 
ATOM     14  C   UNL     1       2.688   6.497  19.110  0.00  0.00    +0.092 A 
ATOM     15  C   UNL     1       0.444   8.238  21.784  0.00  0.00    -0.018 C 
ATOM     16  C   UNL     1       0.456   9.712  22.202  0.00  0.00    -0.023 C 
ATOM     17  C   UNL     1       0.330  10.643  21.024  0.00  0.00    -0.036 A 
ATOM     18  C   UNL     1      -0.242  11.912  21.186  0.00  0.00    -0.058 A 
ATOM     19  C   UNL     1      -0.310  12.794  20.109  0.00  0.00    -0.061 A 
ATOM     20  C   UNL     1       0.203  12.420  18.870  0.00  0.00    -0.061 A 
ATOM     21  C   UNL     1       0.788  11.163  18.705  0.00  0.00    -0.051 A 
ATOM     22  C   UNL     1       0.860  10.260  19.775  0.00  0.00    +0.021 A 
ATOM     23  H   UNL     1       1.384   5.490  21.857  0.00  0.00    +0.166 HD
ATOM     24  H   UNL     1       2.445   2.892  21.685  0.00  0.00    +0.064 HD
ATOM     25  H   UNL     1       3.856   1.470  20.213  0.00  0.00    +0.062 HD
ATOM     26  H   UNL     1       4.798   2.373  18.115  0.00  0.00    +0.062 HD
ATOM     27  H   UNL     1       4.352   4.717  17.437  0.00  0.00    +0.062 HD
ATOM     28  H   UNL     1       0.793   7.641  22.635  0.00  0.00    +0.032 HD
ATOM     29  H   UNL     1      -0.586   7.919  21.573  0.00  0.00    +0.032 HD
ATOM     30  H   UNL     1       1.397   9.941  22.718  0.00  0.00    +0.032 HD
ATOM     31  H   UNL     1      -0.359   9.882  22.915  0.00  0.00    +0.032 HD
ATOM     32  H   UNL     1      -0.633  12.221  22.153  0.00  0.00    +0.062 HD
ATOM     33  H   UNL     1      -0.758  13.776  20.237  0.00  0.00    +0.062 HD
ATOM     34  H   UNL     1       0.155  13.109  18.031  0.00  0.00    +0.062 HD
ATOM     35  H   UNL     1       1.185  10.896  17.727  0.00  0.00    +0.062 HD
ENDROOT
TORSDOF 0
ENDMDL
MODEL 9
REMARK VINA RESULT:    -7.439      4.114      7.814
REMARK INTER + INTRA:          -7.439
REMARK INTER:                  -7.439
REMARK INTRA:                   0.000
REMARK UNBOUND:                 0.000
REMARK  Name = 
REMARK  0 active torsions:
REMARK  status: ('A' for Active; 'I' for Inactive)
REMARK                            x       y       z     vdW  Elec       q    Type
REMARK                         _______ _______ _______ _____ _____    ______ ____
ROOT
ATOM      1  O   UNL     1       6.740   6.799  17.028  0.00  0.00    -0.244 OA
ATOM      2  C   UNL     1       5.960   5.857  16.937  0.00  0.00    +0.347 A 
ATOM      3  O   UNL     1       5.077   5.541  17.959  0.00  0.00    -0.421 OA
ATOM      4  C   UNL     1       4.161   4.441  17.874  0.00  0.00    +0.144 A 
ATOM      5  C   UNL     1       4.069   3.618  16.799  0.00  0.00    +0.020 A 
ATOM      6  C   UNL     1       4.970   3.961  15.763  0.00  0.00    +0.061 A 
ATOM      7  N   UNL     1       5.068   3.307  14.571  0.00  0.00    -0.354 N 
ATOM      8  C   UNL     1       6.047   3.906  13.800  0.00  0.00    +0.048 A 
ATOM      9  C   UNL     1       6.502   3.585  12.515  0.00  0.00    -0.038 A 
ATOM     10  C   UNL     1       7.517   4.375  11.970  0.00  0.00    -0.060 A 
ATOM     11  C   UNL     1       8.056   5.444  12.682  0.00  0.00    -0.061 A 
ATOM     12  C   UNL     1       7.592   5.754  13.965  0.00  0.00    -0.052 A 
ATOM     13  C   UNL     1       6.570   4.973  14.538  0.00  0.00    +0.014 A 
ATOM     14  C   UNL     1       5.874   4.996  15.777  0.00  0.00    +0.092 A 
ATOM     15  C   UNL     1       3.070   2.482  16.795  0.00  0.00    -0.018 C 
ATOM     16  C   UNL     1       2.749   1.954  18.196  0.00  0.00    -0.023 C 
ATOM     17  C   UNL     1       2.563   3.063  19.198  0.00  0.00    -0.036 A 
ATOM     18  C   UNL     1       1.738   2.873  20.316  0.00  0.00    -0.058 A 
ATOM     19  C   UNL     1       1.608   3.879  21.271  0.00  0.00    -0.061 A 
ATOM     20  C   UNL     1       2.309   5.073  21.124  0.00  0.00    -0.061 A 
ATOM     21  C   UNL     1       3.143   5.264  20.021  0.00  0.00    -0.051 A 
ATOM     22  C   UNL     1       3.282   4.266  19.047  0.00  0.00    +0.021 A 
ATOM     23  H   UNL     1       4.522   2.510  14.277  0.00  0.00    +0.166 HD
ATOM     24  H   UNL     1       6.085   2.753  11.954  0.00  0.00    +0.064 HD
ATOM     25  H   UNL     1       7.892   4.152  10.974  0.00  0.00    +0.062 HD
ATOM     26  H   UNL     1       8.846   6.047  12.239  0.00  0.00    +0.062 HD
ATOM     27  H   UNL     1       8.018   6.591  14.514  0.00  0.00    +0.062 HD
ATOM     28  H   UNL     1       3.442   1.644  16.193  0.00  0.00    +0.032 HD
ATOM     29  H   UNL     1       2.151   2.838  16.311  0.00  0.00    +0.032 HD
ATOM     30  H   UNL     1       3.569   1.313  18.546  0.00  0.00    +0.032 HD
ATOM     31  H   UNL     1       1.848   1.332  18.140  0.00  0.00    +0.032 HD
ATOM     32  H   UNL     1       1.197   1.939  20.449  0.00  0.00    +0.062 HD
ATOM     33  H   UNL     1       0.965   3.730  22.135  0.00  0.00    +0.062 HD
ATOM     34  H   UNL     1       2.211   5.857  21.871  0.00  0.00    +0.062 HD
ATOM     35  H   UNL     1       3.683   6.205  19.931  0.00  0.00    +0.062 HD
ENDROOT
TORSDOF 0
ENDMDL
MODEL 10
REMARK VINA RESULT:    -7.122      2.186      3.919
REMARK INTER + INTRA:          -7.122
REMARK INTER:                  -7.122
REMARK INTRA:                   0.000
REMARK UNBOUND:                 0.000
REMARK  Name = 
REMARK  0 active torsions:
REMARK  status: ('A' for Active; 'I' for Inactive)
REMARK                            x       y       z     vdW  Elec       q    Type
REMARK                         _______ _______ _______ _____ _____    ______ ____
ROOT
ATOM      1  O   UNL     1      -0.918  12.427  18.122  0.00  0.00    -0.244 OA
ATOM      2  C   UNL     1      -0.536  11.613  18.957  0.00  0.00    +0.347 A 
ATOM      3  O   UNL     1       0.335  10.586  18.627  0.00  0.00    -0.421 OA
ATOM      4  C   UNL     1       0.789   9.623  19.587  0.00  0.00    +0.144 A 
ATOM      5  C   UNL     1       0.419   9.626  20.893  0.00  0.00    +0.020 A 
ATOM      6  C   UNL     1      -0.463  10.686  21.212  0.00  0.00    +0.061 A 
ATOM      7  N   UNL     1      -0.969  10.927  22.455  0.00  0.00    -0.354 N 
ATOM      8  C   UNL     1      -1.792  12.037  22.407  0.00  0.00    +0.048 A 
ATOM      9  C   UNL     1      -2.528  12.656  23.424  0.00  0.00    -0.038 A 
ATOM     10  C   UNL     1      -3.282  13.783  23.085  0.00  0.00    -0.060 A 
ATOM     11  C   UNL     1      -3.298  14.271  21.781  0.00  0.00    -0.061 A 
ATOM     12  C   UNL     1      -2.557  13.644  20.774  0.00  0.00    -0.052 A 
ATOM     13  C   UNL     1      -1.789  12.506  21.088  0.00  0.00    +0.014 A 
ATOM     14  C   UNL     1      -0.939  11.641  20.346  0.00  0.00    +0.092 A 
ATOM     15  C   UNL     1       0.950   8.570  21.836  0.00  0.00    -0.018 C 
ATOM     16  C   UNL     1       1.288   7.250  21.138  0.00  0.00    -0.023 C 
ATOM     17  C   UNL     1       2.004   7.460  19.829  0.00  0.00    -0.036 A 
ATOM     18  C   UNL     1       2.880   6.482  19.338  0.00  0.00    -0.058 A 
ATOM     19  C   UNL     1       3.500   6.652  18.102  0.00  0.00    -0.061 A 
ATOM     20  C   UNL     1       3.240   7.791  17.344  0.00  0.00    -0.061 A 
ATOM     21  C   UNL     1       2.358   8.763  17.819  0.00  0.00    -0.051 A 
ATOM     22  C   UNL     1       1.729   8.611  19.063  0.00  0.00    +0.021 A 
ATOM     23  H   UNL     1      -0.786  10.391  23.291  0.00  0.00    +0.166 HD
ATOM     24  H   UNL     1      -2.520  12.280  24.443  0.00  0.00    +0.064 HD
ATOM     25  H   UNL     1      -3.865  14.287  23.853  0.00  0.00    +0.062 HD
ATOM     26  H   UNL     1      -3.891  15.151  21.539  0.00  0.00    +0.062 HD
ATOM     27  H   UNL     1      -2.574  14.033  19.759  0.00  0.00    +0.062 HD
ATOM     28  H   UNL     1       0.220   8.359  22.627  0.00  0.00    +0.032 HD
ATOM     29  H   UNL     1       1.845   8.972  22.328  0.00  0.00    +0.032 HD
ATOM     30  H   UNL     1       0.365   6.692  20.935  0.00  0.00    +0.032 HD
ATOM     31  H   UNL     1       1.898   6.640  21.815  0.00  0.00    +0.032 HD
ATOM     32  H   UNL     1       3.079   5.582  19.914  0.00  0.00    +0.062 HD
ATOM     33  H   UNL     1       4.181   5.893  17.726  0.00  0.00    +0.062 HD
ATOM     34  H   UNL     1       3.720   7.922  16.377  0.00  0.00    +0.062 HD
ATOM     35  H   UNL     1       2.169   9.641  17.206  0.00  0.00    +0.062 HD
ENDROOT
TORSDOF 0
ENDMDL
MODEL 11
REMARK VINA RESULT:    -6.898      3.413      8.947
REMARK INTER + INTRA:          -6.898
REMARK INTER:                  -6.898
REMARK INTRA:                   0.000
REMARK UNBOUND:                 0.000
REMARK  Name = 
REMARK  0 active torsions:
REMARK  status: ('A' for Active; 'I' for Inactive)
REMARK                            x       y       z     vdW  Elec       q    Type
REMARK                         _______ _______ _______ _____ _____    ______ ____
ROOT
ATOM      1  O   UNL     1       0.153   9.264  23.455  0.00  0.00    -0.244 OA
ATOM      2  C   UNL     1      -0.346  10.045  22.651  0.00  0.00    +0.347 A 
ATOM      3  O   UNL     1      -1.231  11.035  23.050  0.00  0.00    -0.421 OA
ATOM      4  C   UNL     1      -1.827  11.954  22.124  0.00  0.00    +0.144 A 
ATOM      5  C   UNL     1      -1.583  11.946  20.789  0.00  0.00    +0.020 A 
ATOM      6  C   UNL     1      -0.670  10.936  20.403  0.00  0.00    +0.061 A 
ATOM      7  N   UNL     1      -0.241  10.724  19.127  0.00  0.00    -0.354 N 
ATOM      8  C   UNL     1       0.642   9.660  19.111  0.00  0.00    +0.048 A 
ATOM      9  C   UNL     1       1.332   9.079  18.040  0.00  0.00    -0.038 A 
ATOM     10  C   UNL     1       2.174   8.000  18.320  0.00  0.00    -0.060 A 
ATOM     11  C   UNL     1       2.321   7.521  19.620  0.00  0.00    -0.061 A 
ATOM     12  C   UNL     1       1.628   8.112  20.681  0.00  0.00    -0.052 A 
ATOM     13  C   UNL     1       0.771   9.201  20.427  0.00  0.00    +0.014 A 
ATOM     14  C   UNL     1      -0.063  10.022  21.232  0.00  0.00    +0.092 A 
ATOM     15  C   UNL     1      -2.255  12.956  19.887  0.00  0.00    -0.018 C 
ATOM     16  C   UNL     1      -3.612  13.430  20.415  0.00  0.00    -0.023 C 
ATOM     17  C   UNL     1      -3.587  13.703  21.896  0.00  0.00    -0.036 A 
ATOM     18  C   UNL     1      -4.464  14.643  22.455  0.00  0.00    -0.058 A 
ATOM     19  C   UNL     1      -4.479  14.857  23.832  0.00  0.00    -0.061 A 
ATOM     20  C   UNL     1      -3.630  14.126  24.659  0.00  0.00    -0.061 A 
ATOM     21  C   UNL     1      -2.764  13.178  24.111  0.00  0.00    -0.051 A 
ATOM     22  C   UNL     1      -2.731  12.953  22.728  0.00  0.00    +0.021 A 
ATOM     23  H   UNL     1      -0.513  11.249  18.307  0.00  0.00    +0.166 HD
ATOM     24  H   UNL     1       1.221   9.447  17.024  0.00  0.00    +0.064 HD
ATOM     25  H   UNL     1       2.724   7.526  17.510  0.00  0.00    +0.062 HD
ATOM     26  H   UNL     1       2.983   6.680  19.816  0.00  0.00    +0.062 HD
ATOM     27  H   UNL     1       1.749   7.733  21.693  0.00  0.00    +0.062 HD
ATOM     28  H   UNL     1      -2.408  12.536  18.886  0.00  0.00    +0.032 HD
ATOM     29  H   UNL     1      -1.580  13.814  19.772  0.00  0.00    +0.032 HD
ATOM     30  H   UNL     1      -4.372  12.662  20.223  0.00  0.00    +0.032 HD
ATOM     31  H   UNL     1      -3.910  14.330  19.864  0.00  0.00    +0.032 HD
ATOM     32  H   UNL     1      -5.143  15.209  21.821  0.00  0.00    +0.062 HD
ATOM     33  H   UNL     1      -5.158  15.589  24.262  0.00  0.00    +0.062 HD
ATOM     34  H   UNL     1      -3.644  14.289  25.734  0.00  0.00    +0.062 HD
ATOM     35  H   UNL     1      -2.113  12.618  24.780  0.00  0.00    +0.062 HD
ENDROOT
TORSDOF 0
ENDMDL
MODEL 12
REMARK VINA RESULT:    -6.706      6.083      9.853
REMARK INTER + INTRA:          -6.706
REMARK INTER:                  -6.706
REMARK INTRA:                   0.000
REMARK UNBOUND:                 0.000
REMARK  Name = 
REMARK  0 active torsions:
REMARK  status: ('A' for Active; 'I' for Inactive)
REMARK                            x       y       z     vdW  Elec       q    Type
REMARK                         _______ _______ _______ _____ _____    ______ ____
ROOT
ATOM      1  O   UNL     1      -0.162  10.996  19.893  0.00  0.00    -0.244 OA
ATOM      2  C   UNL     1      -1.195  11.621  20.113  0.00  0.00    +0.347 A 
ATOM      3  O   UNL     1      -1.365  12.363  21.271  0.00  0.00    -0.421 OA
ATOM      4  C   UNL     1      -2.566  13.095  21.548  0.00  0.00    +0.144 A 
ATOM      5  C   UNL     1      -3.636  13.135  20.713  0.00  0.00    +0.020 A 
ATOM      6  C   UNL     1      -3.441  12.379  19.533  0.00  0.00    +0.061 A 
ATOM      7  N   UNL     1      -4.350  12.267  18.523  0.00  0.00    -0.354 N 
ATOM      8  C   UNL     1      -3.834  11.456  17.530  0.00  0.00    +0.048 A 
ATOM      9  C   UNL     1      -4.398  11.053  16.313  0.00  0.00    -0.038 A 
ATOM     10  C   UNL     1      -3.636  10.220  15.490  0.00  0.00    -0.060 A 
ATOM     11  C   UNL     1      -2.361   9.807  15.867  0.00  0.00    -0.061 A 
ATOM     12  C   UNL     1      -1.809  10.218  17.085  0.00  0.00    -0.052 A 
ATOM     13  C   UNL     1      -2.555  11.057  17.935  0.00  0.00    +0.014 A 
ATOM     14  C   UNL     1      -2.321  11.654  19.203  0.00  0.00    +0.092 A 
ATOM     15  C   UNL     1      -4.862  13.937  21.086  0.00  0.00    -0.018 C 
ATOM     16  C   UNL     1      -5.065  14.064  22.599  0.00  0.00    -0.023 C 
ATOM     17  C   UNL     1      -3.778  14.351  23.328  0.00  0.00    -0.036 A 
ATOM     18  C   UNL     1      -3.796  15.049  24.543  0.00  0.00    -0.058 A 
ATOM     19  C   UNL     1      -2.611  15.267  25.244  0.00  0.00    -0.061 A 
ATOM     20  C   UNL     1      -1.407  14.779  24.744  0.00  0.00    -0.061 A 
ATOM     21  C   UNL     1      -1.383  14.070  23.542  0.00  0.00    -0.051 A 
ATOM     22  C   UNL     1      -2.564  13.846  22.820  0.00  0.00    +0.021 A 
ATOM     23  H   UNL     1      -5.262  12.699  18.487  0.00  0.00    +0.166 HD
ATOM     24  H   UNL     1      -5.392  11.371  16.013  0.00  0.00    +0.064 HD
ATOM     25  H   UNL     1      -4.046   9.889  14.538  0.00  0.00    +0.062 HD
ATOM     26  H   UNL     1      -1.785   9.159  15.211  0.00  0.00    +0.062 HD
ATOM     27  H   UNL     1      -0.811   9.892  17.372  0.00  0.00    +0.062 HD
ATOM     28  H   UNL     1      -5.764  13.482  20.660  0.00  0.00    +0.032 HD
ATOM     29  H   UNL     1      -4.767  14.934  20.638  0.00  0.00    +0.032 HD
ATOM     30  H   UNL     1      -5.480  13.129  22.996  0.00  0.00    +0.032 HD
ATOM     31  H   UNL     1      -5.799  14.856  22.790  0.00  0.00    +0.032 HD
ATOM     32  H   UNL     1      -4.732  15.422  24.951  0.00  0.00    +0.062 HD
ATOM     33  H   UNL     1      -2.628  15.812  26.185  0.00  0.00    +0.062 HD
ATOM     34  H   UNL     1      -0.483  14.945  25.293  0.00  0.00    +0.062 HD
ATOM     35  H   UNL     1      -0.429  13.695  23.175  0.00  0.00    +0.062 HD
ENDROOT
TORSDOF 0
ENDMDL
MODEL 13
REMARK VINA RESULT:    -6.446      1.806      2.976
REMARK INTER + INTRA:          -6.446
REMARK INTER:                  -6.446
REMARK INTRA:                   0.000
REMARK UNBOUND:                 0.000
REMARK  Name = 
REMARK  0 active torsions:
REMARK  status: ('A' for Active; 'I' for Inactive)
REMARK                            x       y       z     vdW  Elec       q    Type
REMARK                         _______ _______ _______ _____ _____    ______ ____
ROOT
ATOM      1  O   UNL     1       1.915   4.934  21.144  0.00  0.00    -0.244 OA
ATOM      2  C   UNL     1       2.302   5.575  20.172  0.00  0.00    +0.347 A 
ATOM      3  O   UNL     1       3.116   5.009  19.202  0.00  0.00    -0.421 OA
ATOM      4  C   UNL     1       3.581   5.744  18.063  0.00  0.00    +0.144 A 
ATOM      5  C   UNL     1       3.271   7.044  17.824  0.00  0.00    +0.020 A 
ATOM      6  C   UNL     1       2.432   7.601  18.818  0.00  0.00    +0.061 A 
ATOM      7  N   UNL     1       1.960   8.880  18.809  0.00  0.00    -0.354 N 
ATOM      8  C   UNL     1       1.174   9.087  19.927  0.00  0.00    +0.048 A 
ATOM      9  C   UNL     1       0.486  10.232  20.344  0.00  0.00    -0.038 A 
ATOM     10  C   UNL     1      -0.243  10.154  21.534  0.00  0.00    -0.060 A 
ATOM     11  C   UNL     1      -0.282   8.976  22.277  0.00  0.00    -0.061 A 
ATOM     12  C   UNL     1       0.410   7.839  21.848  0.00  0.00    -0.052 A 
ATOM     13  C   UNL     1       1.153   7.890  20.653  0.00  0.00    +0.014 A 
ATOM     14  C   UNL     1       1.951   6.960  19.935  0.00  0.00    +0.092 A 
ATOM     15  C   UNL     1       3.805   7.740  16.592  0.00  0.00    -0.018 C 
ATOM     16  C   UNL     1       5.140   7.167  16.106  0.00  0.00    -0.023 C 
ATOM     17  C   UNL     1       5.166   5.662  16.141  0.00  0.00    -0.036 A 
ATOM     18  C   UNL     1       5.984   4.949  15.253  0.00  0.00    -0.058 A 
ATOM     19  C   UNL     1       6.049   3.559  15.322  0.00  0.00    -0.061 A 
ATOM     20  C   UNL     1       5.310   2.874  16.283  0.00  0.00    -0.061 A 
ATOM     21  C   UNL     1       4.505   3.578  17.180  0.00  0.00    -0.051 A 
ATOM     22  C   UNL     1       4.422   4.976  17.123  0.00  0.00    +0.021 A 
ATOM     23  H   UNL     1       2.143   9.581  18.105  0.00  0.00    +0.166 HD
ATOM     24  H   UNL     1       0.512  11.153  19.770  0.00  0.00    +0.064 HD
ATOM     25  H   UNL     1      -0.789  11.027  21.885  0.00  0.00    +0.062 HD
ATOM     26  H   UNL     1      -0.856   8.937  23.200  0.00  0.00    +0.062 HD
ATOM     27  H   UNL     1       0.373   6.923  22.434  0.00  0.00    +0.062 HD
ATOM     28  H   UNL     1       3.944   8.810  16.784  0.00  0.00    +0.032 HD
ATOM     29  H   UNL     1       3.052   7.654  15.798  0.00  0.00    +0.032 HD
ATOM     30  H   UNL     1       5.954   7.537  16.743  0.00  0.00    +0.032 HD
ATOM     31  H   UNL     1       5.330   7.531  15.089  0.00  0.00    +0.032 HD
ATOM     32  H   UNL     1       6.577   5.474  14.508  0.00  0.00    +0.062 HD
ATOM     33  H   UNL     1       6.681   3.008  14.630  0.00  0.00    +0.062 HD
ATOM     34  H   UNL     1       5.364   1.789  16.340  0.00  0.00    +0.062 HD
ATOM     35  H   UNL     1       3.940   3.019  17.924  0.00  0.00    +0.062 HD
ENDROOT
TORSDOF 0
ENDMDL
MODEL 14
REMARK VINA RESULT:    -6.359      6.192      7.976
REMARK INTER + INTRA:          -6.359
REMARK INTER:                  -6.359
REMARK INTRA:                   0.000
REMARK UNBOUND:                 0.000
REMARK  Name = 
REMARK  0 active torsions:
REMARK  status: ('A' for Active; 'I' for Inactive)
REMARK                            x       y       z     vdW  Elec       q    Type
REMARK                         _______ _______ _______ _____ _____    ______ ____
ROOT
ATOM      1  O   UNL     1       0.084  12.572  21.433  0.00  0.00    -0.244 OA
ATOM      2  C   UNL     1      -1.062  12.551  20.996  0.00  0.00    +0.347 A 
ATOM      3  O   UNL     1      -1.372  11.934  19.794  0.00  0.00    -0.421 OA
ATOM      4  C   UNL     1      -2.705  11.903  19.265  0.00  0.00    +0.144 A 
ATOM      5  C   UNL     1      -3.775  12.463  19.883  0.00  0.00    +0.020 A 
ATOM      6  C   UNL     1      -3.441  13.080  21.112  0.00  0.00    +0.061 A 
ATOM      7  N   UNL     1      -4.332  13.699  21.938  0.00  0.00    -0.354 N 
ATOM      8  C   UNL     1      -3.666  14.189  23.046  0.00  0.00    +0.048 A 
ATOM      9  C   UNL     1      -4.156  14.893  24.152  0.00  0.00    -0.038 A 
ATOM     10  C   UNL     1      -3.241  15.267  25.140  0.00  0.00    -0.060 A 
ATOM     11  C   UNL     1      -1.890  14.948  25.026  0.00  0.00    -0.061 A 
ATOM     12  C   UNL     1      -1.414  14.243  23.917  0.00  0.00    -0.052 A 
ATOM     13  C   UNL     1      -2.314  13.855  22.905  0.00  0.00    +0.014 A 
ATOM     14  C   UNL     1      -2.190  13.150  21.677  0.00  0.00    +0.092 A 
ATOM     15  C   UNL     1      -5.147  12.380  19.252  0.00  0.00    -0.018 C 
ATOM     16  C   UNL     1      -5.105  12.287  17.723  0.00  0.00    -0.023 C 
ATOM     17  C   UNL     1      -4.038  11.342  17.236  0.00  0.00    -0.036 A 
ATOM     18  C   UNL     1      -4.187  10.682  16.009  0.00  0.00    -0.058 A 
ATOM     19  C   UNL     1      -3.176   9.850  15.531  0.00  0.00    -0.061 A 
ATOM     20  C   UNL     1      -2.007   9.682  16.269  0.00  0.00    -0.061 A 
ATOM     21  C   UNL     1      -1.845  10.348  17.486  0.00  0.00    -0.051 A 
ATOM     22  C   UNL     1      -2.853  11.185  17.984  0.00  0.00    +0.021 A 
ATOM     23  H   UNL     1      -5.326  13.796  21.783  0.00  0.00    +0.166 HD
ATOM     24  H   UNL     1      -5.208  15.145  24.246  0.00  0.00    +0.064 HD
ATOM     25  H   UNL     1      -3.591  15.815  26.012  0.00  0.00    +0.062 HD
ATOM     26  H   UNL     1      -1.195  15.248  25.808  0.00  0.00    +0.062 HD
ATOM     27  H   UNL     1      -0.357  13.997  23.836  0.00  0.00    +0.062 HD
ATOM     28  H   UNL     1      -5.749  13.256  19.522  0.00  0.00    +0.032 HD
ATOM     29  H   UNL     1      -5.660  11.502  19.665  0.00  0.00    +0.032 HD
ATOM     30  H   UNL     1      -4.902  13.278  17.298  0.00  0.00    +0.032 HD
ATOM     31  H   UNL     1      -6.091  11.971  17.363  0.00  0.00    +0.032 HD
ATOM     32  H   UNL     1      -5.089  10.816  15.417  0.00  0.00    +0.062 HD
ATOM     33  H   UNL     1      -3.297   9.336  14.581  0.00  0.00    +0.062 HD
ATOM     34  H   UNL     1      -1.216   9.036  15.896  0.00  0.00    +0.062 HD
ATOM     35  H   UNL     1      -0.920  10.203  18.041  0.00  0.00    +0.062 HD
ENDROOT
TORSDOF 0
ENDMDL
MODEL 15
REMARK VINA RESULT:    -6.218      3.196      8.701
REMARK INTER + INTRA:          -6.218
REMARK INTER:                  -6.218
REMARK INTRA:                   0.000
REMARK UNBOUND:                 0.000
REMARK  Name = 
REMARK  0 active torsions:
REMARK  status: ('A' for Active; 'I' for Inactive)
REMARK                            x       y       z     vdW  Elec       q    Type
REMARK                         _______ _______ _______ _____ _____    ______ ____
ROOT
ATOM      1  O   UNL     1      -1.394  11.768  17.419  0.00  0.00    -0.244 OA
ATOM      2  C   UNL     1      -1.410  11.693  18.643  0.00  0.00    +0.347 A 
ATOM      3  O   UNL     1      -2.245  12.489  19.411  0.00  0.00    -0.421 OA
ATOM      4  C   UNL     1      -2.274  12.418  20.843  0.00  0.00    +0.144 A 
ATOM      5  C   UNL     1      -1.502  11.575  21.573  0.00  0.00    +0.020 A 
ATOM      6  C   UNL     1      -0.663  10.763  20.772  0.00  0.00    +0.061 A 
ATOM      7  N   UNL     1       0.196   9.820  21.253  0.00  0.00    -0.354 N 
ATOM      8  C   UNL     1       0.855   9.220  20.197  0.00  0.00    +0.048 A 
ATOM      9  C   UNL     1       1.823   8.208  20.199  0.00  0.00    -0.038 A 
ATOM     10  C   UNL     1       2.322   7.786  18.964  0.00  0.00    -0.060 A 
ATOM     11  C   UNL     1       1.870   8.352  17.774  0.00  0.00    -0.061 A 
ATOM     12  C   UNL     1       0.901   9.361  17.786  0.00  0.00    -0.052 A 
ATOM     13  C   UNL     1       0.382   9.807  19.017  0.00  0.00    +0.014 A 
ATOM     14  C   UNL     1      -0.581  10.779  19.400  0.00  0.00    +0.092 A 
ATOM     15  C   UNL     1      -1.601  11.566  23.082  0.00  0.00    -0.018 C 
ATOM     16  C   UNL     1      -2.028  12.915  23.668  0.00  0.00    -0.023 C 
ATOM     17  C   UNL     1      -3.145  13.552  22.884  0.00  0.00    -0.036 A 
ATOM     18  C   UNL     1      -4.042  14.425  23.516  0.00  0.00    -0.058 A 
ATOM     19  C   UNL     1      -5.042  15.058  22.780  0.00  0.00    -0.061 A 
ATOM     20  C   UNL     1      -5.146  14.832  21.410  0.00  0.00    -0.061 A 
ATOM     21  C   UNL     1      -4.248  13.975  20.771  0.00  0.00    -0.051 A 
ATOM     22  C   UNL     1      -3.239  13.326  21.496  0.00  0.00    +0.021 A 
ATOM     23  H   UNL     1       0.343   9.583  22.224  0.00  0.00    +0.166 HD
ATOM     24  H   UNL     1       2.180   7.763  21.122  0.00  0.00    +0.064 HD
ATOM     25  H   UNL     1       3.075   7.002  18.931  0.00  0.00    +0.062 HD
ATOM     26  H   UNL     1       2.271   8.007  16.823  0.00  0.00    +0.062 HD
ATOM     27  H   UNL     1       0.552   9.797  16.853  0.00  0.00    +0.062 HD
ATOM     28  H   UNL     1      -0.638  11.291  23.530  0.00  0.00    +0.032 HD
ATOM     29  H   UNL     1      -2.320  10.789  23.373  0.00  0.00    +0.032 HD
ATOM     30  H   UNL     1      -1.175  13.605  23.667  0.00  0.00    +0.032 HD
ATOM     31  H   UNL     1      -2.327  12.767  24.712  0.00  0.00    +0.032 HD
ATOM     32  H   UNL     1      -3.961  14.621  24.583  0.00  0.00    +0.062 HD
ATOM     33  H   UNL     1      -5.738  15.731  23.274  0.00  0.00    +0.062 HD
ATOM     34  H   UNL     1      -5.924  15.328  20.834  0.00  0.00    +0.062 HD
ATOM     35  H   UNL     1      -4.348  13.819  19.699  0.00  0.00    +0.062 HD
ENDROOT
TORSDOF 0
ENDMDL
MODEL 16
REMARK VINA RESULT:    -6.055      2.513      7.835
REMARK INTER + INTRA:          -6.055
REMARK INTER:                  -6.055
REMARK INTRA:                   0.000
REMARK UNBOUND:                 0.000
REMARK  Name = 
REMARK  0 active torsions:
REMARK  status: ('A' for Active; 'I' for Inactive)
REMARK                            x       y       z     vdW  Elec       q    Type
REMARK                         _______ _______ _______ _____ _____    ______ ____
ROOT
ATOM      1  O   UNL     1       0.488   8.128  22.217  0.00  0.00    -0.244 OA
ATOM      2  C   UNL     1       0.534   9.041  21.400  0.00  0.00    +0.347 A 
ATOM      3  O   UNL     1      -0.068  10.267  21.643  0.00  0.00    -0.421 OA
ATOM      4  C   UNL     1      -0.029  11.345  20.699  0.00  0.00    +0.144 A 
ATOM      5  C   UNL     1       0.595  11.273  19.495  0.00  0.00    +0.020 A 
ATOM      6  C   UNL     1       1.211  10.019  19.269  0.00  0.00    +0.061 A 
ATOM      7  N   UNL     1       1.917   9.691  18.150  0.00  0.00    -0.354 N 
ATOM      8  C   UNL     1       2.377   8.392  18.262  0.00  0.00    +0.048 A 
ATOM      9  C   UNL     1       3.137   7.626  17.370  0.00  0.00    -0.038 A 
ATOM     10  C   UNL     1       3.464   6.322  17.751  0.00  0.00    -0.060 A 
ATOM     11  C   UNL     1       3.049   5.805  18.976  0.00  0.00    -0.061 A 
ATOM     12  C   UNL     1       2.291   6.582  19.858  0.00  0.00    -0.052 A 
ATOM     13  C   UNL     1       1.945   7.899  19.499  0.00  0.00    +0.014 A 
ATOM     14  C   UNL     1       1.212   8.943  20.125  0.00  0.00    +0.092 A 
ATOM     15  C   UNL     1       0.587  12.462  18.562  0.00  0.00    -0.018 C 
ATOM     16  C   UNL     1      -0.642  13.360  18.737  0.00  0.00    -0.023 C 
ATOM     17  C   UNL     1      -0.983  13.589  20.185  0.00  0.00    -0.036 A 
ATOM     18  C   UNL     1      -1.642  14.763  20.578  0.00  0.00    -0.058 A 
ATOM     19  C   UNL     1      -2.006  14.951  21.910  0.00  0.00    -0.061 A 
ATOM     20  C   UNL     1      -1.728  13.965  22.853  0.00  0.00    -0.061 A 
ATOM     21  C   UNL     1      -1.085  12.787  22.467  0.00  0.00    -0.051 A 
ATOM     22  C   UNL     1      -0.706  12.583  21.133  0.00  0.00    +0.021 A 
ATOM     23  H   UNL     1       2.089  10.288  17.353  0.00  0.00    +0.166 HD
ATOM     24  H   UNL     1       3.464   8.023  16.414  0.00  0.00    +0.064 HD
ATOM     25  H   UNL     1       4.054   5.701  17.080  0.00  0.00    +0.062 HD
ATOM     26  H   UNL     1       3.316   4.788  19.253  0.00  0.00    +0.062 HD
ATOM     27  H   UNL     1       1.971   6.171  20.813  0.00  0.00    +0.062 HD
ATOM     28  H   UNL     1       0.621  12.132  17.517  0.00  0.00    +0.032 HD
ATOM     29  H   UNL     1       1.501  13.043  18.742  0.00  0.00    +0.032 HD
ATOM     30  H   UNL     1      -1.510  12.896  18.251  0.00  0.00    +0.032 HD
ATOM     31  H   UNL     1      -0.455  14.315  18.230  0.00  0.00    +0.032 HD
ATOM     32  H   UNL     1      -1.878  15.533  19.848  0.00  0.00    +0.062 HD
ATOM     33  H   UNL     1      -2.514  15.864  22.212  0.00  0.00    +0.062 HD
ATOM     34  H   UNL     1      -2.015  14.109  23.892  0.00  0.00    +0.062 HD
ATOM     35  H   UNL     1      -0.883  12.031  23.223  0.00  0.00    +0.062 HD
ENDROOT
TORSDOF 0
ENDMDL
