MODEL 1
REMARK VINA RESULT:    -7.773      0.000      0.000
REMARK INTER + INTRA:          -9.945
REMARK INTER:                  -9.334
REMARK INTRA:                  -0.611
REMARK UNBOUND:                -0.582
REMARK  Name = 
REMARK  4 active torsions:
REMARK  status: ('A' for Active; 'I' for Inactive)
REMARK    1  A    between atoms: C_1  and  C_2
REMARK    2  A    between atoms: C_8  and  C_9
REMARK    3  A    between atoms: C_9  and  N_10
REMARK    4  A    between atoms: C_15  and  C_16
REMARK                            x       y       z     vdW  Elec       q    Type
REMARK                         _______ _______ _______ _____ _____    ______ ____
ROOT
ATOM      1  N   UNL     1       0.693  11.274  18.137  0.00  0.00    -0.315 N 
ATOM      2  C   UNL     1       1.098  10.073  18.621  0.00  0.00    +0.182 A 
ATOM      3  N   UNL     1       1.770   9.218  17.899  0.00  0.00    -0.142 NA
ATOM      4  N   UNL     1       1.983   8.146  18.693  0.00  0.00    -0.212 N 
ATOM      5  C   UNL     1       2.617   6.964  18.479  0.00  0.00    +0.054 A 
ATOM      6  C   UNL     1       2.487   6.274  19.679  0.00  0.00    +0.065 A 
ATOM      7  N   UNL     1       1.799   7.035  20.618  0.00  0.00    -0.225 NA
ATOM      8  C   UNL     1       1.524   8.129  19.966  0.00  0.00    +0.197 A 
ATOM      9  S   UNL     1       0.713   9.595  20.304  0.00  0.00    -0.013 S 
ATOM     10  H   UNL     1       1.038  11.507  17.209  0.00  0.00    +0.148 HD
ATOM     11  H   UNL     1       3.085   6.721  17.538  0.00  0.00    +0.085 HD
ENDROOT
BRANCH   6  12
ATOM     12  C   UNL     1       2.989   4.908  20.015  0.00  0.00    +0.003 C 
ATOM     13  C   UNL     1       2.883   3.924  18.842  0.00  0.00    -0.045 C 
ATOM     14  C   UNL     1       2.574   2.583  19.495  0.00  0.00    -0.052 C 
ATOM     15  C   UNL     1       1.627   2.968  20.619  0.00  0.00    -0.052 C 
ATOM     16  C   UNL     1       2.228   4.251  21.182  0.00  0.00    -0.045 C 
ATOM     17  H   UNL     1       4.047   4.988  20.305  0.00  0.00    +0.036 HD
ATOM     18  H   UNL     1       3.806   3.887  18.254  0.00  0.00    +0.027 HD
ATOM     19  H   UNL     1       2.069   4.193  18.156  0.00  0.00    +0.027 HD
ATOM     20  H   UNL     1       3.490   2.136  19.900  0.00  0.00    +0.027 HD
ATOM     21  H   UNL     1       2.124   1.874  18.796  0.00  0.00    +0.027 HD
ATOM     22  H   UNL     1       0.626   3.168  20.219  0.00  0.00    +0.027 HD
ATOM     23  H   UNL     1       1.540   2.182  21.377  0.00  0.00    +0.027 HD
ATOM     24  H   UNL     1       2.943   3.998  21.978  0.00  0.00    +0.027 HD
ATOM     25  H   UNL     1       1.458   4.890  21.630  0.00  0.00    +0.027 HD
ENDBRANCH   6  12
BRANCH   1  26
ATOM     26  C   UNL     1       0.229  12.411  18.908  0.00  0.00    +0.073 C 
ATOM     27  H   UNL     1       0.793  12.461  19.847  0.00  0.00    +0.054 HD
ATOM     28  H   UNL     1       0.429  13.333  18.345  0.00  0.00    +0.054 HD
BRANCH  26  35
ATOM     29  C   UNL     1      -3.020  10.998  16.491  0.00  0.00    +0.059 A 
ATOM     30  C   UNL     1      -4.394  11.070  17.077  0.00  0.00    -0.035 A 
ATOM     31  C   UNL     1      -4.519  11.573  18.311  0.00  0.00    -0.014 A 
ATOM     32  C   UNL     1      -3.365  12.000  18.996  0.00  0.00    +0.178 A 
ATOM     33  N   UNL     1      -3.173  12.512  20.193  0.00  0.00    -0.128 NA
ATOM     34  N   UNL     1      -1.822  12.739  20.340  0.00  0.00    -0.131 NA
ATOM     35  C   UNL     1      -1.222  12.366  19.222  0.00  0.00    +0.172 A 
ATOM     36  N   UNL     1      -2.157  11.884  18.341  0.00  0.00    -0.195 N 
ATOM     37  N   UNL     1      -1.933  11.387  17.088  0.00  0.00    -0.169 NA
ATOM     38  H   UNL     1      -5.240  10.719  16.502  0.00  0.00    +0.064 HD
ATOM     39  H   UNL     1      -5.483  11.655  18.803  0.00  0.00    +0.066 HD
BRANCH  29  40
ATOM     40  C   UNL     1      -2.894  10.423  15.101  0.00  0.00    -0.021 C 
ATOM     41  H   UNL     1      -3.698   9.703  14.932  0.00  0.00    +0.029 HD
ATOM     42  H   UNL     1      -2.981  11.232  14.369  0.00  0.00    +0.029 HD
ATOM     43  H   UNL     1      -1.935   9.918  14.959  0.00  0.00    +0.029 HD
ENDBRANCH  29  40
ENDBRANCH  26  35
ENDBRANCH   1  26
TORSDOF 4
ENDMDL
MODEL 2
REMARK VINA RESULT:    -7.678      1.222      1.507
REMARK INTER + INTRA:          -9.831
REMARK INTER:                  -9.343
REMARK INTRA:                  -0.488
REMARK UNBOUND:                -0.582
REMARK  Name = 
REMARK  4 active torsions:
REMARK  status: ('A' for Active; 'I' for Inactive)
REMARK    1  A    between atoms: C_1  and  C_2
REMARK    2  A    between atoms: C_8  and  C_9
REMARK    3  A    between atoms: C_9  and  N_10
REMARK    4  A    between atoms: C_15  and  C_16
REMARK                            x       y       z     vdW  Elec       q    Type
REMARK                         _______ _______ _______ _____ _____    ______ ____
ROOT
ATOM      1  N   UNL     1       0.584  10.512  19.946  0.00  0.00    -0.315 N 
ATOM      2  C   UNL     1       1.194   9.357  19.578  0.00  0.00    +0.182 A 
ATOM      3  N   UNL     1       1.329   8.346  20.393  0.00  0.00    -0.142 NA
ATOM      4  N   UNL     1       1.989   7.394  19.698  0.00  0.00    -0.212 N 
ATOM      5  C   UNL     1       2.405   6.144  20.033  0.00  0.00    +0.054 A 
ATOM      6  C   UNL     1       3.036   5.667  18.890  0.00  0.00    +0.065 A 
ATOM      7  N   UNL     1       2.988   6.607  17.866  0.00  0.00    -0.225 NA
ATOM      8  C   UNL     1       2.360   7.609  18.416  0.00  0.00    +0.197 A 
ATOM      9  S   UNL     1       1.864   9.169  17.928  0.00  0.00    -0.013 S 
ATOM     10  H   UNL     1       0.146  10.498  20.864  0.00  0.00    +0.148 HD
ATOM     11  H   UNL     1       2.227   5.717  21.008  0.00  0.00    +0.085 HD
ENDROOT
BRANCH   6  12
ATOM     12  C   UNL     1       3.695   4.343  18.686  0.00  0.00    +0.003 C 
ATOM     13  C   UNL     1       3.208   3.617  17.424  0.00  0.00    -0.045 C 
ATOM     14  C   UNL     1       3.232   2.141  17.799  0.00  0.00    -0.052 C 
ATOM     15  C   UNL     1       2.754   2.153  19.241  0.00  0.00    -0.052 C 
ATOM     16  C   UNL     1       3.458   3.361  19.850  0.00  0.00    -0.045 C 
ATOM     17  H   UNL     1       4.779   4.504  18.596  0.00  0.00    +0.036 HD
ATOM     18  H   UNL     1       3.846   3.828  16.559  0.00  0.00    +0.027 HD
ATOM     19  H   UNL     1       2.185   3.909  17.155  0.00  0.00    +0.027 HD
ATOM     20  H   UNL     1       4.254   1.748  17.736  0.00  0.00    +0.027 HD
ATOM     21  H   UNL     1       2.590   1.537  17.153  0.00  0.00    +0.027 HD
ATOM     22  H   UNL     1       1.668   2.294  19.279  0.00  0.00    +0.027 HD
ATOM     23  H   UNL     1       2.996   1.223  19.767  0.00  0.00    +0.027 HD
ATOM     24  H   UNL     1       4.429   3.049  20.258  0.00  0.00    +0.027 HD
ATOM     25  H   UNL     1       2.880   3.784  20.680  0.00  0.00    +0.027 HD
ENDBRANCH   6  12
BRANCH   1  26
ATOM     26  C   UNL     1       0.103  11.560  19.068  0.00  0.00    +0.073 C 
ATOM     27  H   UNL     1       0.655  12.484  19.279  0.00  0.00    +0.054 HD
ATOM     28  H   UNL     1       0.305  11.278  18.026  0.00  0.00    +0.054 HD
BRANCH  26  35
ATOM     29  C   UNL     1      -3.057  10.790  16.273  0.00  0.00    +0.059 A 
ATOM     30  C   UNL     1      -4.445  11.166  16.685  0.00  0.00    -0.035 A 
ATOM     31  C   UNL     1      -4.608  11.718  17.893  0.00  0.00    -0.014 A 
ATOM     32  C   UNL     1      -3.480  11.914  18.714  0.00  0.00    +0.178 A 
ATOM     33  N   UNL     1      -3.330  12.408  19.924  0.00  0.00    -0.128 NA
ATOM     34  N   UNL     1      -1.989  12.351  20.236  0.00  0.00    -0.131 NA
ATOM     35  C   UNL     1      -1.352  11.829  19.202  0.00  0.00    +0.172 A 
ATOM     36  N   UNL     1      -2.254  11.529  18.213  0.00  0.00    -0.195 N 
ATOM     37  N   UNL     1      -1.992  10.960  16.999  0.00  0.00    -0.169 NA
ATOM     38  H   UNL     1      -5.271  10.984  16.010  0.00  0.00    +0.064 HD
ATOM     39  H   UNL     1      -5.585  12.015  18.262  0.00  0.00    +0.066 HD
BRANCH  29  40
ATOM     40  C   UNL     1      -2.890  10.163  14.910  0.00  0.00    -0.021 C 
ATOM     41  H   UNL     1      -3.844   9.738  14.587  0.00  0.00    +0.029 HD
ATOM     42  H   UNL     1      -2.581  10.932  14.196  0.00  0.00    +0.029 HD
ATOM     43  H   UNL     1      -2.139   9.369  14.922  0.00  0.00    +0.029 HD
ENDBRANCH  29  40
ENDBRANCH  26  35
ENDBRANCH   1  26
TORSDOF 4
ENDMDL
MODEL 3
REMARK VINA RESULT:    -7.501      2.715      8.543
REMARK INTER + INTRA:          -9.618
REMARK INTER:                  -9.321
REMARK INTRA:                  -0.297
REMARK UNBOUND:                -0.582
REMARK  Name = 
REMARK  4 active torsions:
REMARK  status: ('A' for Active; 'I' for Inactive)
REMARK    1  A    between atoms: C_1  and  C_2
REMARK    2  A    between atoms: C_8  and  C_9
REMARK    3  A    between atoms: C_9  and  N_10
REMARK    4  A    between atoms: C_15  and  C_16
REMARK                            x       y       z     vdW  Elec       q    Type
REMARK                         _______ _______ _______ _____ _____    ______ ____
ROOT
ATOM      1  N   UNL     1       2.665   6.965  19.005  0.00  0.00    -0.315 N 
ATOM      2  C   UNL     1       1.965   8.043  19.441  0.00  0.00    +0.182 A 
ATOM      3  N   UNL     1       1.567   8.166  20.679  0.00  0.00    -0.142 NA
ATOM      4  N   UNL     1       0.897   9.337  20.739  0.00  0.00    -0.212 N 
ATOM      5  C   UNL     1       0.266   9.974  21.760  0.00  0.00    +0.054 A 
ATOM      6  C   UNL     1      -0.242  11.135  21.187  0.00  0.00    +0.065 A 
ATOM      7  N   UNL     1       0.093  11.212  19.839  0.00  0.00    -0.225 NA
ATOM      8  C   UNL     1       0.762  10.111  19.639  0.00  0.00    +0.197 A 
ATOM      9  S   UNL     1       1.538   9.366  18.312  0.00  0.00    -0.013 S 
ATOM     10  H   UNL     1       2.950   6.311  19.730  0.00  0.00    +0.148 HD
ATOM     11  H   UNL     1       0.231   9.571  22.760  0.00  0.00    +0.085 HD
ENDROOT
BRANCH   6  12
ATOM     12  C   UNL     1      -1.038  12.214  21.844  0.00  0.00    +0.003 C 
ATOM     13  C   UNL     1      -1.771  11.736  23.106  0.00  0.00    -0.045 C 
ATOM     14  C   UNL     1      -3.072  12.527  23.114  0.00  0.00    -0.052 C 
ATOM     15  C   UNL     1      -3.451  12.565  21.644  0.00  0.00    -0.052 C 
ATOM     16  C   UNL     1      -2.126  12.809  20.930  0.00  0.00    -0.045 C 
ATOM     17  H   UNL     1      -0.354  13.027  22.128  0.00  0.00    +0.036 HD
ATOM     18  H   UNL     1      -1.181  11.912  24.012  0.00  0.00    +0.027 HD
ATOM     19  H   UNL     1      -1.995  10.662  23.065  0.00  0.00    +0.027 HD
ATOM     20  H   UNL     1      -2.899  13.541  23.494  0.00  0.00    +0.027 HD
ATOM     21  H   UNL     1      -3.842  12.055  23.730  0.00  0.00    +0.027 HD
ATOM     22  H   UNL     1      -3.870  11.600  21.335  0.00  0.00    +0.027 HD
ATOM     23  H   UNL     1      -4.191  13.343  21.425  0.00  0.00    +0.027 HD
ATOM     24  H   UNL     1      -1.959  13.891  20.834  0.00  0.00    +0.027 HD
ATOM     25  H   UNL     1      -2.135  12.392  19.916  0.00  0.00    +0.027 HD
ENDBRANCH   6  12
BRANCH   1  26
ATOM     26  C   UNL     1       3.416   6.857  17.770  0.00  0.00    +0.073 C 
ATOM     27  H   UNL     1       2.804   7.241  16.945  0.00  0.00    +0.054 HD
ATOM     28  H   UNL     1       4.317   7.480  17.840  0.00  0.00    +0.054 HD
BRANCH  26  35
ATOM     29  C   UNL     1       1.970   3.151  19.374  0.00  0.00    +0.059 A 
ATOM     30  C   UNL     1       2.584   1.891  18.852  0.00  0.00    -0.035 A 
ATOM     31  C   UNL     1       3.542   2.003  17.925  0.00  0.00    -0.014 A 
ATOM     32  C   UNL     1       3.921   3.285  17.484  0.00  0.00    +0.178 A 
ATOM     33  N   UNL     1       4.800   3.703  16.598  0.00  0.00    -0.128 NA
ATOM     34  N   UNL     1       4.744   5.079  16.570  0.00  0.00    -0.131 NA
ATOM     35  C   UNL     1       3.837   5.469  17.448  0.00  0.00    +0.172 A 
ATOM     36  N   UNL     1       3.281   4.368  18.049  0.00  0.00    -0.195 N 
ATOM     37  N   UNL     1       2.296   4.351  18.997  0.00  0.00    -0.169 NA
ATOM     38  H   UNL     1       2.243   0.935  19.228  0.00  0.00    +0.064 HD
ATOM     39  H   UNL     1       4.032   1.134  17.498  0.00  0.00    +0.066 HD
BRANCH  29  40
ATOM     40  C   UNL     1       0.886   3.009  20.415  0.00  0.00    -0.021 C 
ATOM     41  H   UNL     1       1.341   2.795  21.385  0.00  0.00    +0.029 HD
ATOM     42  H   UNL     1       0.328   3.948  20.482  0.00  0.00    +0.029 HD
ATOM     43  H   UNL     1       0.193   2.202  20.167  0.00  0.00    +0.029 HD
ENDBRANCH  29  40
ENDBRANCH  26  35
ENDBRANCH   1  26
TORSDOF 4
ENDMDL
MODEL 4
REMARK VINA RESULT:    -7.496      3.188      8.765
REMARK INTER + INTRA:          -9.612
REMARK INTER:                  -9.225
REMARK INTRA:                  -0.387
REMARK UNBOUND:                -0.582
REMARK  Name = 
REMARK  4 active torsions:
REMARK  status: ('A' for Active; 'I' for Inactive)
REMARK    1  A    between atoms: C_1  and  C_2
REMARK    2  A    between atoms: C_8  and  C_9
REMARK    3  A    between atoms: C_9  and  N_10
REMARK    4  A    between atoms: C_15  and  C_16
REMARK                            x       y       z     vdW  Elec       q    Type
REMARK                         _______ _______ _______ _____ _____    ______ ____
ROOT
ATOM      1  N   UNL     1       1.600   7.609  20.979  0.00  0.00    -0.315 N 
ATOM      2  C   UNL     1       0.830   8.710  21.168  0.00  0.00    +0.182 A 
ATOM      3  N   UNL     1       0.426   9.088  22.351  0.00  0.00    -0.142 NA
ATOM      4  N   UNL     1      -0.320  10.195  22.154  0.00  0.00    -0.212 N 
ATOM      5  C   UNL     1      -0.991  11.007  23.012  0.00  0.00    +0.054 A 
ATOM      6  C   UNL     1      -1.575  11.971  22.197  0.00  0.00    +0.065 A 
ATOM      7  N   UNL     1      -1.247  11.760  20.863  0.00  0.00    -0.225 NA
ATOM      8  C   UNL     1      -0.507  10.687  20.908  0.00  0.00    +0.197 A 
ATOM      9  S   UNL     1       0.316   9.710  19.774  0.00  0.00    -0.013 S 
ATOM     10  H   UNL     1       1.928   7.158  21.829  0.00  0.00    +0.148 HD
ATOM     11  H   UNL     1      -0.999  10.842  24.078  0.00  0.00    +0.085 HD
ENDROOT
BRANCH   6  12
ATOM     12  C   UNL     1      -2.441  13.118  22.604  0.00  0.00    +0.003 C 
ATOM     13  C   UNL     1      -1.847  13.940  23.757  0.00  0.00    -0.045 C 
ATOM     14  C   UNL     1      -3.056  14.393  24.564  0.00  0.00    -0.052 C 
ATOM     15  C   UNL     1      -3.968  13.179  24.515  0.00  0.00    -0.052 C 
ATOM     16  C   UNL     1      -3.841  12.685  23.078  0.00  0.00    -0.045 C 
ATOM     17  H   UNL     1      -2.569  13.782  21.736  0.00  0.00    +0.036 HD
ATOM     18  H   UNL     1      -1.258  14.789  23.393  0.00  0.00    +0.027 HD
ATOM     19  H   UNL     1      -1.189  13.334  24.392  0.00  0.00    +0.027 HD
ATOM     20  H   UNL     1      -3.535  15.254  24.083  0.00  0.00    +0.027 HD
ATOM     21  H   UNL     1      -2.792  14.674  25.587  0.00  0.00    +0.027 HD
ATOM     22  H   UNL     1      -3.611  12.409  25.208  0.00  0.00    +0.027 HD
ATOM     23  H   UNL     1      -5.002  13.424  24.780  0.00  0.00    +0.027 HD
ATOM     24  H   UNL     1      -4.599  13.180  22.454  0.00  0.00    +0.027 HD
ATOM     25  H   UNL     1      -4.022  11.605  23.009  0.00  0.00    +0.027 HD
ENDBRANCH   6  12
BRANCH   1  26
ATOM     26  C   UNL     1       2.355   7.269  19.789  0.00  0.00    +0.073 C 
ATOM     27  H   UNL     1       1.830   7.658  18.909  0.00  0.00    +0.054 HD
ATOM     28  H   UNL     1       3.339   7.756  19.836  0.00  0.00    +0.054 HD
BRANCH  26  35
ATOM     29  C   UNL     1       4.611   5.207  16.781  0.00  0.00    +0.059 A 
ATOM     30  C   UNL     1       4.655   3.714  16.858  0.00  0.00    -0.035 A 
ATOM     31  C   UNL     1       3.987   3.122  17.856  0.00  0.00    -0.014 A 
ATOM     32  C   UNL     1       3.286   3.922  18.779  0.00  0.00    +0.178 A 
ATOM     33  N   UNL     1       2.567   3.638  19.843  0.00  0.00    -0.128 NA
ATOM     34  N   UNL     1       2.118   4.827  20.375  0.00  0.00    -0.131 NA
ATOM     35  C   UNL     1       2.568   5.809  19.614  0.00  0.00    +0.172 A 
ATOM     36  N   UNL     1       3.321   5.288  18.592  0.00  0.00    -0.195 N 
ATOM     37  N   UNL     1       3.972   5.978  17.609  0.00  0.00    -0.169 NA
ATOM     38  H   UNL     1       5.217   3.156  16.121  0.00  0.00    +0.064 HD
ATOM     39  H   UNL     1       3.974   2.044  17.977  0.00  0.00    +0.066 HD
BRANCH  29  40
ATOM     40  C   UNL     1       5.375   5.861  15.654  0.00  0.00    -0.021 C 
ATOM     41  H   UNL     1       5.603   5.114  14.890  0.00  0.00    +0.029 HD
ATOM     42  H   UNL     1       4.757   6.647  15.211  0.00  0.00    +0.029 HD
ATOM     43  H   UNL     1       6.311   6.301  16.005  0.00  0.00    +0.029 HD
ENDBRANCH  29  40
ENDBRANCH  26  35
ENDBRANCH   1  26
TORSDOF 4
ENDMDL
MODEL 5
REMARK VINA RESULT:    -7.493      3.082      8.484
REMARK INTER + INTRA:          -9.608
REMARK INTER:                  -8.950
REMARK INTRA:                  -0.658
REMARK UNBOUND:                -0.582
REMARK  Name = 
REMARK  4 active torsions:
REMARK  status: ('A' for Active; 'I' for Inactive)
REMARK    1  A    between atoms: C_1  and  C_2
REMARK    2  A    between atoms: C_8  and  C_9
REMARK    3  A    between atoms: C_9  and  N_10
REMARK    4  A    between atoms: C_15  and  C_16
REMARK                            x       y       z     vdW  Elec       q    Type
REMARK                         _______ _______ _______ _____ _____    ______ ____
ROOT
ATOM      1  N   UNL     1       1.983   7.729  19.479  0.00  0.00    -0.315 N 
ATOM      2  C   UNL     1       1.242   8.666  20.123  0.00  0.00    +0.182 A 
ATOM      3  N   UNL     1       1.033   8.630  21.411  0.00  0.00    -0.142 NA
ATOM      4  N   UNL     1       0.251   9.695  21.691  0.00  0.00    -0.212 N 
ATOM      5  C   UNL     1      -0.280  10.156  22.854  0.00  0.00    +0.054 A 
ATOM      6  C   UNL     1      -1.001  11.286  22.485  0.00  0.00    +0.065 A 
ATOM      7  N   UNL     1      -0.895  11.521  21.119  0.00  0.00    -0.225 NA
ATOM      8  C   UNL     1      -0.144  10.537  20.709  0.00  0.00    +0.197 A 
ATOM      9  S   UNL     1       0.493  10.014  19.213  0.00  0.00    -0.013 S 
ATOM     10  H   UNL     1       2.452   7.058  20.083  0.00  0.00    +0.148 HD
ATOM     11  H   UNL     1      -0.110   9.668  23.801  0.00  0.00    +0.085 HD
ENDROOT
BRANCH   6  12
ATOM     12  C   UNL     1      -1.802  12.193  23.361  0.00  0.00    +0.003 C 
ATOM     13  C   UNL     1      -3.276  12.287  22.940  0.00  0.00    -0.045 C 
ATOM     14  C   UNL     1      -3.671  13.724  23.256  0.00  0.00    -0.052 C 
ATOM     15  C   UNL     1      -2.428  14.507  22.870  0.00  0.00    -0.052 C 
ATOM     16  C   UNL     1      -1.279  13.641  23.377  0.00  0.00    -0.045 C 
ATOM     17  H   UNL     1      -1.761  11.808  24.391  0.00  0.00    +0.036 HD
ATOM     18  H   UNL     1      -3.901  11.565  23.476  0.00  0.00    +0.027 HD
ATOM     19  H   UNL     1      -3.406  12.099  21.867  0.00  0.00    +0.027 HD
ATOM     20  H   UNL     1      -3.880  13.835  24.326  0.00  0.00    +0.027 HD
ATOM     21  H   UNL     1      -4.555  14.044  22.697  0.00  0.00    +0.027 HD
ATOM     22  H   UNL     1      -2.367  14.609  21.781  0.00  0.00    +0.027 HD
ATOM     23  H   UNL     1      -2.416  15.511  23.308  0.00  0.00    +0.027 HD
ATOM     24  H   UNL     1      -1.040  13.924  24.412  0.00  0.00    +0.027 HD
ATOM     25  H   UNL     1      -0.371  13.795  22.782  0.00  0.00    +0.027 HD
ENDBRANCH   6  12
BRANCH   1  26
ATOM     26  C   UNL     1       2.537   7.825  18.143  0.00  0.00    +0.073 C 
ATOM     27  H   UNL     1       1.717   7.815  17.415  0.00  0.00    +0.054 HD
ATOM     28  H   UNL     1       3.067   8.781  18.041  0.00  0.00    +0.054 HD
BRANCH  26  35
ATOM     29  C   UNL     1       1.975   3.582  18.421  0.00  0.00    +0.059 A 
ATOM     30  C   UNL     1       3.118   2.710  18.007  0.00  0.00    -0.035 A 
ATOM     31  C   UNL     1       4.237   3.308  17.582  0.00  0.00    -0.014 A 
ATOM     32  C   UNL     1       4.286   4.715  17.540  0.00  0.00    +0.178 A 
ATOM     33  N   UNL     1       5.217   5.567  17.167  0.00  0.00    -0.128 NA
ATOM     34  N   UNL     1       4.713   6.838  17.332  0.00  0.00    -0.131 NA
ATOM     35  C   UNL     1       3.486   6.730  17.811  0.00  0.00    +0.172 A 
ATOM     36  N   UNL     1       3.165   5.404  17.954  0.00  0.00    -0.195 N 
ATOM     37  N   UNL     1       1.984   4.882  18.401  0.00  0.00    -0.169 NA
ATOM     38  H   UNL     1       3.015   1.634  18.057  0.00  0.00    +0.064 HD
ATOM     39  H   UNL     1       5.106   2.742  17.264  0.00  0.00    +0.066 HD
BRANCH  29  40
ATOM     40  C   UNL     1       0.718   2.892  18.891  0.00  0.00    -0.021 C 
ATOM     41  H   UNL     1       0.983   2.084  19.577  0.00  0.00    +0.029 HD
ATOM     42  H   UNL     1       0.088   3.615  19.418  0.00  0.00    +0.029 HD
ATOM     43  H   UNL     1       0.152   2.472  18.056  0.00  0.00    +0.029 HD
ENDBRANCH  29  40
ENDBRANCH  26  35
ENDBRANCH   1  26
TORSDOF 4
ENDMDL
MODEL 6
REMARK VINA RESULT:    -7.444      3.468      8.759
REMARK INTER + INTRA:          -9.549
REMARK INTER:                  -9.050
REMARK INTRA:                  -0.499
REMARK UNBOUND:                -0.582
REMARK  Name = 
REMARK  4 active torsions:
REMARK  status: ('A' for Active; 'I' for Inactive)
REMARK    1  A    between atoms: C_1  and  C_2
REMARK    2  A    between atoms: C_8  and  C_9
REMARK    3  A    between atoms: C_9  and  N_10
REMARK    4  A    between atoms: C_15  and  C_16
REMARK                            x       y       z     vdW  Elec       q    Type
REMARK                         _______ _______ _______ _____ _____    ______ ____
ROOT
ATOM      1  N   UNL     1       2.597   7.252  17.946  0.00  0.00    -0.315 N 
ATOM      2  C   UNL     1       1.952   8.068  18.818  0.00  0.00    +0.182 A 
ATOM      3  N   UNL     1       1.496   9.241  18.473  0.00  0.00    -0.142 NA
ATOM      4  N   UNL     1       0.937   9.765  19.585  0.00  0.00    -0.212 N 
ATOM      5  C   UNL     1       0.316  10.950  19.823  0.00  0.00    +0.054 A 
ATOM      6  C   UNL     1      -0.028  10.902  21.169  0.00  0.00    +0.065 A 
ATOM      7  N   UNL     1       0.362   9.695  21.739  0.00  0.00    -0.225 NA
ATOM      8  C   UNL     1       0.933   9.072  20.747  0.00  0.00    +0.197 A 
ATOM      9  S   UNL     1       1.701   7.563  20.518  0.00  0.00    -0.013 S 
ATOM     10  H   UNL     1       2.609   7.572  16.980  0.00  0.00    +0.148 HD
ATOM     11  H   UNL     1       0.176  11.694  19.054  0.00  0.00    +0.085 HD
ENDROOT
BRANCH   6  12
ATOM     12  C   UNL     1      -0.727  11.944  21.979  0.00  0.00    +0.003 C 
ATOM     13  C   UNL     1      -1.519  11.359  23.157  0.00  0.00    -0.045 C 
ATOM     14  C   UNL     1      -2.739  12.261  23.282  0.00  0.00    -0.052 C 
ATOM     15  C   UNL     1      -3.093  12.550  21.833  0.00  0.00    -0.052 C 
ATOM     16  C   UNL     1      -1.741  12.768  21.163  0.00  0.00    -0.045 C 
ATOM     17  H   UNL     1       0.027  12.637  22.379  0.00  0.00    +0.036 HD
ATOM     18  H   UNL     1      -0.928  11.343  24.079  0.00  0.00    +0.027 HD
ATOM     19  H   UNL     1      -1.844  10.329  22.958  0.00  0.00    +0.027 HD
ATOM     20  H   UNL     1      -2.477  13.188  23.806  0.00  0.00    +0.027 HD
ATOM     21  H   UNL     1      -3.559  11.780  23.822  0.00  0.00    +0.027 HD
ATOM     22  H   UNL     1      -3.597  11.686  21.386  0.00  0.00    +0.027 HD
ATOM     23  H   UNL     1      -3.752  13.420  21.731  0.00  0.00    +0.027 HD
ATOM     24  H   UNL     1      -1.471  13.832  21.226  0.00  0.00    +0.027 HD
ATOM     25  H   UNL     1      -1.776  12.507  20.098  0.00  0.00    +0.027 HD
ENDBRANCH   6  12
BRANCH   1  26
ATOM     26  C   UNL     1       2.866   5.838  18.113  0.00  0.00    +0.073 C 
ATOM     27  H   UNL     1       2.256   5.453  18.939  0.00  0.00    +0.054 HD
ATOM     28  H   UNL     1       2.569   5.305  17.200  0.00  0.00    +0.054 HD
BRANCH  26  35
ATOM     29  C   UNL     1       5.913   4.516  15.400  0.00  0.00    +0.059 A 
ATOM     30  C   UNL     1       7.281   4.288  15.963  0.00  0.00    -0.035 A 
ATOM     31  C   UNL     1       7.461   4.507  17.271  0.00  0.00    -0.014 A 
ATOM     32  C   UNL     1       6.371   4.942  18.048  0.00  0.00    +0.178 A 
ATOM     33  N   UNL     1       6.245   5.245  19.322  0.00  0.00    -0.128 NA
ATOM     34  N   UNL     1       4.937   5.621  19.536  0.00  0.00    -0.131 NA
ATOM     35  C   UNL     1       4.293   5.530  18.386  0.00  0.00    +0.172 A 
ATOM     36  N   UNL     1       5.160   5.110  17.409  0.00  0.00    -0.195 N 
ATOM     37  N   UNL     1       4.882   4.912  16.086  0.00  0.00    -0.169 NA
ATOM     38  H   UNL     1       8.079   3.959  15.310  0.00  0.00    +0.064 HD
ATOM     39  H   UNL     1       8.425   4.365  17.749  0.00  0.00    +0.066 HD
BRANCH  29  40
ATOM     40  C   UNL     1       5.727   4.271  13.923  0.00  0.00    -0.021 C 
ATOM     41  H   UNL     1       6.559   4.719  13.373  0.00  0.00    +0.029 HD
ATOM     42  H   UNL     1       5.715   3.193  13.736  0.00  0.00    +0.029 HD
ATOM     43  H   UNL     1       4.792   4.705  13.558  0.00  0.00    +0.029 HD
ENDBRANCH  29  40
ENDBRANCH  26  35
ENDBRANCH   1  26
TORSDOF 4
ENDMDL
MODEL 7
REMARK VINA RESULT:    -7.320      3.097      8.747
REMARK INTER + INTRA:          -9.399
REMARK INTER:                  -8.827
REMARK INTRA:                  -0.573
REMARK UNBOUND:                -0.582
REMARK  Name = 
REMARK  4 active torsions:
REMARK  status: ('A' for Active; 'I' for Inactive)
REMARK    1  A    between atoms: C_1  and  C_2
REMARK    2  A    between atoms: C_8  and  C_9
REMARK    3  A    between atoms: C_9  and  N_10
REMARK    4  A    between atoms: C_15  and  C_16
REMARK                            x       y       z     vdW  Elec       q    Type
REMARK                         _______ _______ _______ _____ _____    ______ ____
ROOT
ATOM      1  N   UNL     1       2.419   7.492  18.800  0.00  0.00    -0.315 N 
ATOM      2  C   UNL     1       1.611   8.398  19.408  0.00  0.00    +0.182 A 
ATOM      3  N   UNL     1       1.105   9.422  18.776  0.00  0.00    -0.142 NA
ATOM      4  N   UNL     1       0.378  10.101  19.689  0.00  0.00    -0.212 N 
ATOM      5  C   UNL     1      -0.360  11.238  19.604  0.00  0.00    +0.054 A 
ATOM      6  C   UNL     1      -0.855  11.432  20.889  0.00  0.00    +0.065 A 
ATOM      7  N   UNL     1      -0.439  10.415  21.740  0.00  0.00    -0.225 NA
ATOM      8  C   UNL     1       0.294   9.664  20.966  0.00  0.00    +0.197 A 
ATOM      9  S   UNL     1       1.204   8.229  21.144  0.00  0.00    -0.013 S 
ATOM     10  H   UNL     1       2.518   7.607  17.794  0.00  0.00    +0.148 HD
ATOM     11  H   UNL     1      -0.468  11.790  18.683  0.00  0.00    +0.085 HD
ENDROOT
BRANCH   6  12
ATOM     12  C   UNL     1      -1.727  12.539  21.382  0.00  0.00    +0.003 C 
ATOM     13  C   UNL     1      -2.399  12.222  22.726  0.00  0.00    -0.045 C 
ATOM     14  C   UNL     1      -3.760  12.899  22.641  0.00  0.00    -0.052 C 
ATOM     15  C   UNL     1      -4.163  12.662  21.196  0.00  0.00    -0.052 C 
ATOM     16  C   UNL     1      -2.873  12.887  20.414  0.00  0.00    -0.045 C 
ATOM     17  H   UNL     1      -1.108  13.439  21.510  0.00  0.00    +0.036 HD
ATOM     18  H   UNL     1      -1.812  12.591  23.574  0.00  0.00    +0.027 HD
ATOM     19  H   UNL     1      -2.535  11.142  22.868  0.00  0.00    +0.027 HD
ATOM     20  H   UNL     1      -3.666  13.972  22.843  0.00  0.00    +0.027 HD
ATOM     21  H   UNL     1      -4.479  12.477  23.348  0.00  0.00    +0.027 HD
ATOM     22  H   UNL     1      -4.506  11.630  21.062  0.00  0.00    +0.027 HD
ATOM     23  H   UNL     1      -4.967  13.333  20.873  0.00  0.00    +0.027 HD
ATOM     24  H   UNL     1      -2.797  13.948  20.136  0.00  0.00    +0.027 HD
ATOM     25  H   UNL     1      -2.864  12.308  19.483  0.00  0.00    +0.027 HD
ENDBRANCH   6  12
BRANCH   1  26
ATOM     26  C   UNL     1       2.779   6.178  19.293  0.00  0.00    +0.073 C 
ATOM     27  H   UNL     1       3.534   6.286  20.081  0.00  0.00    +0.054 HD
ATOM     28  H   UNL     1       1.894   5.705  19.737  0.00  0.00    +0.054 HD
BRANCH  26  35
ATOM     29  C   UNL     1       6.531   6.349  17.222  0.00  0.00    +0.059 A 
ATOM     30  C   UNL     1       6.803   5.287  16.205  0.00  0.00    -0.035 A 
ATOM     31  C   UNL     1       5.860   4.358  16.007  0.00  0.00    -0.014 A 
ATOM     32  C   UNL     1       4.671   4.419  16.759  0.00  0.00    +0.178 A 
ATOM     33  N   UNL     1       3.596   3.662  16.795  0.00  0.00    -0.128 NA
ATOM     34  N   UNL     1       2.739   4.195  17.734  0.00  0.00    -0.131 NA
ATOM     35  C   UNL     1       3.311   5.272  18.242  0.00  0.00    +0.172 A 
ATOM     36  N   UNL     1       4.541   5.454  17.661  0.00  0.00    -0.195 N 
ATOM     37  N   UNL     1       5.446   6.442  17.931  0.00  0.00    -0.169 NA
ATOM     38  H   UNL     1       7.740   5.291  15.664  0.00  0.00    +0.064 HD
ATOM     39  H   UNL     1       5.987   3.555  15.288  0.00  0.00    +0.066 HD
BRANCH  29  40
ATOM     40  C   UNL     1       7.607   7.386  17.439  0.00  0.00    -0.021 C 
ATOM     41  H   UNL     1       8.562   6.885  17.617  0.00  0.00    +0.029 HD
ATOM     42  H   UNL     1       7.692   8.008  16.543  0.00  0.00    +0.029 HD
ATOM     43  H   UNL     1       7.381   8.027  18.295  0.00  0.00    +0.029 HD
ENDBRANCH  29  40
ENDBRANCH  26  35
ENDBRANCH   1  26
TORSDOF 4
ENDMDL
MODEL 8
REMARK VINA RESULT:    -7.280      5.906      9.087
REMARK INTER + INTRA:          -9.352
REMARK INTER:                  -8.577
REMARK INTRA:                  -0.775
REMARK UNBOUND:                -0.582
REMARK  Name = 
REMARK  4 active torsions:
REMARK  status: ('A' for Active; 'I' for Inactive)
REMARK    1  A    between atoms: C_1  and  C_2
REMARK    2  A    between atoms: C_8  and  C_9
REMARK    3  A    between atoms: C_9  and  N_10
REMARK    4  A    between atoms: C_15  and  C_16
REMARK                            x       y       z     vdW  Elec       q    Type
REMARK                         _______ _______ _______ _____ _____    ______ ____
ROOT
ATOM      1  N   UNL     1       5.804   4.202  18.158  0.00  0.00    -0.315 N 
ATOM      2  C   UNL     1       6.398   5.420  18.080  0.00  0.00    +0.182 A 
ATOM      3  N   UNL     1       7.463   5.726  18.771  0.00  0.00    -0.142 NA
ATOM      4  N   UNL     1       7.757   7.005  18.455  0.00  0.00    -0.212 N 
ATOM      5  C   UNL     1       8.745   7.842  18.866  0.00  0.00    +0.054 A 
ATOM      6  C   UNL     1       8.502   9.032  18.187  0.00  0.00    +0.065 A 
ATOM      7  N   UNL     1       7.391   8.914  17.359  0.00  0.00    -0.225 NA
ATOM      8  C   UNL     1       6.995   7.690  17.572  0.00  0.00    +0.197 A 
ATOM      9  S   UNL     1       5.727   6.691  17.011  0.00  0.00    -0.013 S 
ATOM     10  H   UNL     1       6.306   3.510  18.710  0.00  0.00    +0.148 HD
ATOM     11  H   UNL     1       9.503   7.540  19.572  0.00  0.00    +0.085 HD
ENDROOT
BRANCH   6  12
ATOM     12  C   UNL     1       9.273  10.308  18.262  0.00  0.00    +0.003 C 
ATOM     13  C   UNL     1       9.662  10.692  19.697  0.00  0.00    -0.045 C 
ATOM     14  C   UNL     1       9.598  12.214  19.715  0.00  0.00    -0.052 C 
ATOM     15  C   UNL     1       8.384  12.510  18.853  0.00  0.00    -0.052 C 
ATOM     16  C   UNL     1       8.502  11.518  17.701  0.00  0.00    -0.045 C 
ATOM     17  H   UNL     1      10.195  10.193  17.674  0.00  0.00    +0.036 HD
ATOM     18  H   UNL     1      10.658  10.323  19.964  0.00  0.00    +0.027 HD
ATOM     19  H   UNL     1       8.955  10.288  20.433  0.00  0.00    +0.027 HD
ATOM     20  H   UNL     1      10.504  12.638  19.264  0.00  0.00    +0.027 HD
ATOM     21  H   UNL     1       9.498  12.614  20.728  0.00  0.00    +0.027 HD
ATOM     22  H   UNL     1       7.463  12.320  19.417  0.00  0.00    +0.027 HD
ATOM     23  H   UNL     1       8.363  13.549  18.506  0.00  0.00    +0.027 HD
ATOM     24  H   UNL     1       9.090  11.971  16.890  0.00  0.00    +0.027 HD
ATOM     25  H   UNL     1       7.519  11.267  17.286  0.00  0.00    +0.027 HD
ENDBRANCH   6  12
BRANCH   1  26
ATOM     26  C   UNL     1       4.834   3.647  17.236  0.00  0.00    +0.073 C 
ATOM     27  H   UNL     1       4.488   4.438  16.561  0.00  0.00    +0.054 HD
ATOM     28  H   UNL     1       5.319   2.872  16.627  0.00  0.00    +0.054 HD
BRANCH  26  35
ATOM     29  C   UNL     1       2.024   5.453  19.925  0.00  0.00    +0.059 A 
ATOM     30  C   UNL     1       0.919   4.589  20.446  0.00  0.00    -0.035 A 
ATOM     31  C   UNL     1       0.883   3.313  20.043  0.00  0.00    -0.014 A 
ATOM     32  C   UNL     1       1.871   2.849  19.153  0.00  0.00    +0.178 A 
ATOM     33  N   UNL     1       2.085   1.682  18.585  0.00  0.00    -0.128 NA
ATOM     34  N   UNL     1       3.207   1.801  17.793  0.00  0.00    -0.131 NA
ATOM     35  C   UNL     1       3.655   3.039  17.906  0.00  0.00    +0.172 A 
ATOM     36  N   UNL     1       2.838   3.746  18.752  0.00  0.00    -0.195 N 
ATOM     37  N   UNL     1       2.955   5.060  19.109  0.00  0.00    -0.169 NA
ATOM     38  H   UNL     1       0.186   5.008  21.123  0.00  0.00    +0.064 HD
ATOM     39  H   UNL     1       0.111   2.628  20.376  0.00  0.00    +0.066 HD
BRANCH  29  40
ATOM     40  C   UNL     1       2.048   6.891  20.384  0.00  0.00    -0.021 C 
ATOM     41  H   UNL     1       3.079   7.253  20.385  0.00  0.00    +0.029 HD
ATOM     42  H   UNL     1       1.457   7.498  19.693  0.00  0.00    +0.029 HD
ATOM     43  H   UNL     1       1.637   6.999  21.391  0.00  0.00    +0.029 HD
ENDBRANCH  29  40
ENDBRANCH  26  35
ENDBRANCH   1  26
TORSDOF 4
ENDMDL
MODEL 9
REMARK VINA RESULT:    -7.277      2.101      8.542
REMARK INTER + INTRA:          -9.349
REMARK INTER:                  -8.634
REMARK INTRA:                  -0.715
REMARK UNBOUND:                -0.582
REMARK  Name = 
REMARK  4 active torsions:
REMARK  status: ('A' for Active; 'I' for Inactive)
REMARK    1  A    between atoms: C_1  and  C_2
REMARK    2  A    between atoms: C_8  and  C_9
REMARK    3  A    between atoms: C_9  and  N_10
REMARK    4  A    between atoms: C_15  and  C_16
REMARK                            x       y       z     vdW  Elec       q    Type
REMARK                         _______ _______ _______ _____ _____    ______ ____
ROOT
ATOM      1  N   UNL     1       2.878   6.890  19.982  0.00  0.00    -0.315 N 
ATOM      2  C   UNL     1       2.039   7.925  19.723  0.00  0.00    +0.182 A 
ATOM      3  N   UNL     1       1.226   8.409  20.623  0.00  0.00    -0.142 NA
ATOM      4  N   UNL     1       0.546   9.403  20.012  0.00  0.00    -0.212 N 
ATOM      5  C   UNL     1      -0.423  10.248  20.452  0.00  0.00    +0.054 A 
ATOM      6  C   UNL     1      -0.727  11.037  19.347  0.00  0.00    +0.065 A 
ATOM      7  N   UNL     1       0.061  10.689  18.256  0.00  0.00    -0.225 NA
ATOM      8  C   UNL     1       0.788   9.710  18.717  0.00  0.00    +0.197 A 
ATOM      9  S   UNL     1       2.004   8.681  18.100  0.00  0.00    -0.013 S 
ATOM     10  H   UNL     1       2.905   6.586  20.953  0.00  0.00    +0.148 HD
ATOM     11  H   UNL     1      -0.799  10.222  21.462  0.00  0.00    +0.085 HD
ENDROOT
BRANCH   6  12
ATOM     12  C   UNL     1      -1.734  12.136  19.250  0.00  0.00    +0.003 C 
ATOM     13  C   UNL     1      -2.447  12.417  20.580  0.00  0.00    -0.045 C 
ATOM     14  C   UNL     1      -3.863  12.808  20.179  0.00  0.00    -0.052 C 
ATOM     15  C   UNL     1      -4.155  11.870  19.021  0.00  0.00    -0.052 C 
ATOM     16  C   UNL     1      -2.852  11.847  18.230  0.00  0.00    -0.045 C 
ATOM     17  H   UNL     1      -1.217  13.054  18.933  0.00  0.00    +0.036 HD
ATOM     18  H   UNL     1      -1.951  13.210  21.150  0.00  0.00    +0.027 HD
ATOM     19  H   UNL     1      -2.481  11.526  21.221  0.00  0.00    +0.027 HD
ATOM     20  H   UNL     1      -3.889  13.853  19.844  0.00  0.00    +0.027 HD
ATOM     21  H   UNL     1      -4.575  12.692  21.000  0.00  0.00    +0.027 HD
ATOM     22  H   UNL     1      -4.383  10.866  19.395  0.00  0.00    +0.027 HD
ATOM     23  H   UNL     1      -5.003  12.208  18.415  0.00  0.00    +0.027 HD
ATOM     24  H   UNL     1      -2.867  12.650  17.480  0.00  0.00    +0.027 HD
ATOM     25  H   UNL     1      -2.729  10.901  17.689  0.00  0.00    +0.027 HD
ENDBRANCH   6  12
BRANCH   1  26
ATOM     26  C   UNL     1       4.020   6.476  19.191  0.00  0.00    +0.073 C 
ATOM     27  H   UNL     1       4.307   7.296  18.522  0.00  0.00    +0.054 HD
ATOM     28  H   UNL     1       4.867   6.275  19.860  0.00  0.00    +0.054 HD
BRANCH  26  35
ATOM     29  C   UNL     1       1.979   2.865  20.281  0.00  0.00    +0.059 A 
ATOM     30  C   UNL     1       1.876   1.795  19.241  0.00  0.00    -0.035 A 
ATOM     31  C   UNL     1       2.428   2.032  18.046  0.00  0.00    -0.014 A 
ATOM     32  C   UNL     1       3.069   3.266  17.821  0.00  0.00    +0.178 A 
ATOM     33  N   UNL     1       3.677   3.780  16.774  0.00  0.00    -0.128 NA
ATOM     34  N   UNL     1       4.116   5.039  17.121  0.00  0.00    -0.131 NA
ATOM     35  C   UNL     1       3.772   5.258  18.377  0.00  0.00    +0.172 A 
ATOM     36  N   UNL     1       3.100   4.166  18.865  0.00  0.00    -0.195 N 
ATOM     37  N   UNL     1       2.566   4.013  20.113  0.00  0.00    -0.169 NA
ATOM     38  H   UNL     1       1.364   0.870  19.475  0.00  0.00    +0.064 HD
ATOM     39  H   UNL     1       2.391   1.304  17.242  0.00  0.00    +0.066 HD
BRANCH  29  40
ATOM     40  C   UNL     1       1.346   2.586  21.622  0.00  0.00    -0.021 C 
ATOM     41  H   UNL     1       1.107   3.532  22.114  0.00  0.00    +0.029 HD
ATOM     42  H   UNL     1       0.422   2.019  21.472  0.00  0.00    +0.029 HD
ATOM     43  H   UNL     1       2.012   2.012  22.270  0.00  0.00    +0.029 HD
ENDBRANCH  29  40
ENDBRANCH  26  35
ENDBRANCH   1  26
TORSDOF 4
ENDMDL
MODEL 10
REMARK VINA RESULT:    -7.204      2.228      3.422
REMARK INTER + INTRA:          -9.260
REMARK INTER:                  -8.745
REMARK INTRA:                  -0.515
REMARK UNBOUND:                -0.582
REMARK  Name = 
REMARK  4 active torsions:
REMARK  status: ('A' for Active; 'I' for Inactive)
REMARK    1  A    between atoms: C_1  and  C_2
REMARK    2  A    between atoms: C_8  and  C_9
REMARK    3  A    between atoms: C_9  and  N_10
REMARK    4  A    between atoms: C_15  and  C_16
REMARK                            x       y       z     vdW  Elec       q    Type
REMARK                         _______ _______ _______ _____ _____    ______ ____
ROOT
ATOM      1  N   UNL     1       0.481   9.842  19.776  0.00  0.00    -0.315 N 
ATOM      2  C   UNL     1       1.365   8.935  19.288  0.00  0.00    +0.182 A 
ATOM      3  N   UNL     1       1.613   7.804  19.891  0.00  0.00    -0.142 NA
ATOM      4  N   UNL     1       2.541   7.176  19.137  0.00  0.00    -0.212 N 
ATOM      5  C   UNL     1       3.171   5.980  19.275  0.00  0.00    +0.054 A 
ATOM      6  C   UNL     1       4.025   5.906  18.180  0.00  0.00    +0.065 A 
ATOM      7  N   UNL     1       3.903   7.034  17.377  0.00  0.00    -0.225 NA
ATOM      8  C   UNL     1       3.012   7.748  18.005  0.00  0.00    +0.197 A 
ATOM      9  S   UNL     1       2.257   9.262  17.769  0.00  0.00    -0.013 S 
ATOM     10  H   UNL     1      -0.053   9.535  20.585  0.00  0.00    +0.148 HD
ATOM     11  H   UNL     1       2.970   5.313  20.099  0.00  0.00    +0.085 HD
ENDROOT
BRANCH   6  12
ATOM     12  C   UNL     1       4.972   4.807  17.825  0.00  0.00    +0.003 C 
ATOM     13  C   UNL     1       6.395   5.309  17.539  0.00  0.00    -0.045 C 
ATOM     14  C   UNL     1       6.913   4.385  16.445  0.00  0.00    -0.052 C 
ATOM     15  C   UNL     1       5.688   4.179  15.571  0.00  0.00    -0.052 C 
ATOM     16  C   UNL     1       4.547   4.021  16.571  0.00  0.00    -0.045 C 
ATOM     17  H   UNL     1       5.017   4.101  18.667  0.00  0.00    +0.036 HD
ATOM     18  H   UNL     1       7.027   5.277  18.433  0.00  0.00    +0.027 HD
ATOM     19  H   UNL     1       6.396   6.345  17.175  0.00  0.00    +0.027 HD
ATOM     20  H   UNL     1       7.243   3.432  16.876  0.00  0.00    +0.027 HD
ATOM     21  H   UNL     1       7.750   4.821  15.894  0.00  0.00    +0.027 HD
ATOM     22  H   UNL     1       5.516   5.063  14.945  0.00  0.00    +0.027 HD
ATOM     23  H   UNL     1       5.787   3.309  14.913  0.00  0.00    +0.027 HD
ATOM     24  H   UNL     1       4.439   2.959  16.834  0.00  0.00    +0.027 HD
ATOM     25  H   UNL     1       3.592   4.346  16.142  0.00  0.00    +0.027 HD
ENDBRANCH   6  12
BRANCH   1  26
ATOM     26  C   UNL     1      -0.102  10.960  19.062  0.00  0.00    +0.073 C 
ATOM     27  H   UNL     1      -0.301  11.773  19.771  0.00  0.00    +0.054 HD
ATOM     28  H   UNL     1       0.619  11.330  18.321  0.00  0.00    +0.054 HD
BRANCH  26  35
ATOM     29  C   UNL     1      -4.057  12.488  19.708  0.00  0.00    +0.059 A 
ATOM     30  C   UNL     1      -5.147  11.965  18.829  0.00  0.00    -0.035 A 
ATOM     31  C   UNL     1      -4.819  11.055  17.904  0.00  0.00    -0.014 A 
ATOM     32  C   UNL     1      -3.477  10.640  17.798  0.00  0.00    +0.178 A 
ATOM     33  N   UNL     1      -2.863   9.794  17.000  0.00  0.00    -0.128 NA
ATOM     34  N   UNL     1      -1.529   9.786  17.345  0.00  0.00    -0.131 NA
ATOM     35  C   UNL     1      -1.363  10.624  18.353  0.00  0.00    +0.172 A 
ATOM     36  N   UNL     1      -2.568  11.197  18.674  0.00  0.00    -0.195 N 
ATOM     37  N   UNL     1      -2.810  12.127  19.645  0.00  0.00    -0.169 NA
ATOM     38  H   UNL     1      -6.158  12.328  18.956  0.00  0.00    +0.064 HD
ATOM     39  H   UNL     1      -5.555  10.631  17.228  0.00  0.00    +0.066 HD
BRANCH  29  40
ATOM     40  C   UNL     1      -4.441  13.518  20.742  0.00  0.00    -0.021 C 
ATOM     41  H   UNL     1      -3.539  13.899  21.228  0.00  0.00    +0.029 HD
ATOM     42  H   UNL     1      -4.957  14.347  20.249  0.00  0.00    +0.029 HD
ATOM     43  H   UNL     1      -5.098  13.096  21.506  0.00  0.00    +0.029 HD
ENDBRANCH  29  40
ENDBRANCH  26  35
ENDBRANCH   1  26
TORSDOF 4
ENDMDL
MODEL 11
REMARK VINA RESULT:    -7.199      2.926      8.534
REMARK INTER + INTRA:          -9.254
REMARK INTER:                  -8.861
REMARK INTRA:                  -0.393
REMARK UNBOUND:                -0.582
REMARK  Name = 
REMARK  4 active torsions:
REMARK  status: ('A' for Active; 'I' for Inactive)
REMARK    1  A    between atoms: C_1  and  C_2
REMARK    2  A    between atoms: C_8  and  C_9
REMARK    3  A    between atoms: C_9  and  N_10
REMARK    4  A    between atoms: C_15  and  C_16
REMARK                            x       y       z     vdW  Elec       q    Type
REMARK                         _______ _______ _______ _____ _____    ______ ____
ROOT
ATOM      1  N   UNL     1       1.631   8.515  19.380  0.00  0.00    -0.315 N 
ATOM      2  C   UNL     1       0.841   9.363  20.087  0.00  0.00    +0.182 A 
ATOM      3  N   UNL     1       0.108  10.279  19.514  0.00  0.00    -0.142 NA
ATOM      4  N   UNL     1      -0.520  10.933  20.515  0.00  0.00    -0.212 N 
ATOM      5  C   UNL     1      -1.395  11.972  20.518  0.00  0.00    +0.054 A 
ATOM      6  C   UNL     1      -1.672  12.194  21.862  0.00  0.00    +0.065 A 
ATOM      7  N   UNL     1      -0.988  11.289  22.666  0.00  0.00    -0.225 NA
ATOM      8  C   UNL     1      -0.320  10.575  21.804  0.00  0.00    +0.197 A 
ATOM      9  S   UNL     1       0.775   9.266  21.874  0.00  0.00    -0.013 S 
ATOM     10  H   UNL     1       1.533   8.573  18.369  0.00  0.00    +0.148 HD
ATOM     11  H   UNL     1      -1.733  12.446  19.609  0.00  0.00    +0.085 HD
ENDROOT
BRANCH   6  12
ATOM     12  C   UNL     1      -2.570  13.228  22.459  0.00  0.00    +0.003 C 
ATOM     13  C   UNL     1      -1.956  13.922  23.684  0.00  0.00    -0.045 C 
ATOM     14  C   UNL     1      -3.142  14.196  24.599  0.00  0.00    -0.052 C 
ATOM     15  C   UNL     1      -3.994  12.951  24.429  0.00  0.00    -0.052 C 
ATOM     16  C   UNL     1      -3.919  12.658  22.934  0.00  0.00    -0.045 C 
ATOM     17  H   UNL     1      -2.776  13.992  21.695  0.00  0.00    +0.036 HD
ATOM     18  H   UNL     1      -1.430  14.842  23.411  0.00  0.00    +0.027 HD
ATOM     19  H   UNL     1      -1.236  13.274  24.201  0.00  0.00    +0.027 HD
ATOM     20  H   UNL     1      -3.687  15.086  24.261  0.00  0.00    +0.027 HD
ATOM     21  H   UNL     1      -2.838  14.354  25.638  0.00  0.00    +0.027 HD
ATOM     22  H   UNL     1      -3.564  12.117  24.995  0.00  0.00    +0.027 HD
ATOM     23  H   UNL     1      -5.024  13.101  24.772  0.00  0.00    +0.027 HD
ATOM     24  H   UNL     1      -4.733  13.189  22.419  0.00  0.00    +0.027 HD
ATOM     25  H   UNL     1      -4.051  11.589  22.729  0.00  0.00    +0.027 HD
ENDBRANCH   6  12
BRANCH   1  26
ATOM     26  C   UNL     1       2.232   7.285  19.856  0.00  0.00    +0.073 C 
ATOM     27  H   UNL     1       2.911   7.517  20.685  0.00  0.00    +0.054 HD
ATOM     28  H   UNL     1       1.444   6.625  20.241  0.00  0.00    +0.054 HD
BRANCH  26  35
ATOM     29  C   UNL     1       1.773   3.226  18.552  0.00  0.00    +0.059 A 
ATOM     30  C   UNL     1       2.680   2.748  17.462  0.00  0.00    -0.035 A 
ATOM     31  C   UNL     1       3.574   3.615  16.971  0.00  0.00    -0.014 A 
ATOM     32  C   UNL     1       3.616   4.923  17.491  0.00  0.00    +0.178 A 
ATOM     33  N   UNL     1       4.356   5.973  17.210  0.00  0.00    -0.128 NA
ATOM     34  N   UNL     1       3.956   7.000  18.037  0.00  0.00    -0.131 NA
ATOM     35  C   UNL     1       2.986   6.547  18.810  0.00  0.00    +0.172 A 
ATOM     36  N   UNL     1       2.728   5.236  18.499  0.00  0.00    -0.195 N 
ATOM     37  N   UNL     1       1.785   4.422  19.061  0.00  0.00    -0.169 NA
ATOM     38  H   UNL     1       2.593   1.732  17.101  0.00  0.00    +0.064 HD
ATOM     39  H   UNL     1       4.263   3.341  16.179  0.00  0.00    +0.066 HD
BRANCH  29  40
ATOM     40  C   UNL     1       0.766   2.239  19.091  0.00  0.00    -0.021 C 
ATOM     41  H   UNL     1       0.716   2.332  20.179  0.00  0.00    +0.029 HD
ATOM     42  H   UNL     1      -0.218   2.463  18.668  0.00  0.00    +0.029 HD
ATOM     43  H   UNL     1       1.035   1.211  18.839  0.00  0.00    +0.029 HD
ENDBRANCH  29  40
ENDBRANCH  26  35
ENDBRANCH   1  26
TORSDOF 4
ENDMDL
MODEL 12
REMARK VINA RESULT:    -7.156      1.506      2.677
REMARK INTER + INTRA:          -9.202
REMARK INTER:                  -8.702
REMARK INTRA:                  -0.501
REMARK UNBOUND:                -0.582
REMARK  Name = 
REMARK  4 active torsions:
REMARK  status: ('A' for Active; 'I' for Inactive)
REMARK    1  A    between atoms: C_1  and  C_2
REMARK    2  A    between atoms: C_8  and  C_9
REMARK    3  A    between atoms: C_9  and  N_10
REMARK    4  A    between atoms: C_15  and  C_16
REMARK                            x       y       z     vdW  Elec       q    Type
REMARK                         _______ _______ _______ _____ _____    ______ ____
ROOT
ATOM      1  N   UNL     1       0.632  10.207  20.038  0.00  0.00    -0.315 N 
ATOM      2  C   UNL     1       1.246   9.034  19.740  0.00  0.00    +0.182 A 
ATOM      3  N   UNL     1       1.334   8.052  20.595  0.00  0.00    -0.142 NA
ATOM      4  N   UNL     1       2.014   7.069  19.965  0.00  0.00    -0.212 N 
ATOM      5  C   UNL     1       2.401   5.829  20.363  0.00  0.00    +0.054 A 
ATOM      6  C   UNL     1       3.078   5.305  19.266  0.00  0.00    +0.065 A 
ATOM      7  N   UNL     1       3.085   6.208  18.209  0.00  0.00    -0.225 NA
ATOM      8  C   UNL     1       2.444   7.235  18.694  0.00  0.00    +0.197 A 
ATOM      9  S   UNL     1       1.986   8.781  18.129  0.00  0.00    -0.013 S 
ATOM     10  H   UNL     1       0.154  10.230  20.936  0.00  0.00    +0.148 HD
ATOM     11  H   UNL     1       2.176   5.439  21.343  0.00  0.00    +0.085 HD
ENDROOT
BRANCH   6  12
ATOM     12  C   UNL     1       3.731   3.968  19.140  0.00  0.00    +0.003 C 
ATOM     13  C   UNL     1       3.718   3.427  17.704  0.00  0.00    -0.045 C 
ATOM     14  C   UNL     1       3.566   1.920  17.865  0.00  0.00    -0.052 C 
ATOM     15  C   UNL     1       2.596   1.803  19.029  0.00  0.00    -0.052 C 
ATOM     16  C   UNL     1       3.061   2.881  20.002  0.00  0.00    -0.045 C 
ATOM     17  H   UNL     1       4.777   4.060  19.466  0.00  0.00    +0.036 HD
ATOM     18  H   UNL     1       4.633   3.688  17.160  0.00  0.00    +0.027 HD
ATOM     19  H   UNL     1       2.871   3.820  17.127  0.00  0.00    +0.027 HD
ATOM     20  H   UNL     1       4.531   1.465  18.121  0.00  0.00    +0.027 HD
ATOM     21  H   UNL     1       3.188   1.440  16.959  0.00  0.00    +0.027 HD
ATOM     22  H   UNL     1       1.575   2.017  18.693  0.00  0.00    +0.027 HD
ATOM     23  H   UNL     1       2.605   0.805  19.479  0.00  0.00    +0.027 HD
ATOM     24  H   UNL     1       3.809   2.456  20.686  0.00  0.00    +0.027 HD
ATOM     25  H   UNL     1       2.231   3.248  20.618  0.00  0.00    +0.027 HD
ENDBRANCH   6  12
BRANCH   1  26
ATOM     26  C   UNL     1       0.202  11.227  19.103  0.00  0.00    +0.073 C 
ATOM     27  H   UNL     1       0.131  12.187  19.628  0.00  0.00    +0.054 HD
ATOM     28  H   UNL     1       0.957  11.331  18.312  0.00  0.00    +0.054 HD
BRANCH  26  35
ATOM     29  C   UNL     1      -3.695  12.706  20.110  0.00  0.00    +0.059 A 
ATOM     30  C   UNL     1      -4.844  12.238  19.274  0.00  0.00    -0.035 A 
ATOM     31  C   UNL     1      -4.582  11.389  18.273  0.00  0.00    -0.014 A 
ATOM     32  C   UNL     1      -3.251  10.984  18.051  0.00  0.00    +0.178 A 
ATOM     33  N   UNL     1      -2.695  10.190  17.162  0.00  0.00    -0.128 NA
ATOM     34  N   UNL     1      -1.341  10.161  17.415  0.00  0.00    -0.131 NA
ATOM     35  C   UNL     1      -1.105  10.934  18.461  0.00  0.00    +0.172 A 
ATOM     36  N   UNL     1      -2.284  11.484  18.897  0.00  0.00    -0.195 N 
ATOM     37  N   UNL     1      -2.457  12.351  19.940  0.00  0.00    -0.169 NA
ATOM     38  H   UNL     1      -5.844  12.592  19.492  0.00  0.00    +0.064 HD
ATOM     39  H   UNL     1      -5.363  11.008  17.624  0.00  0.00    +0.066 HD
BRANCH  29  40
ATOM     40  C   UNL     1      -4.006  13.668  21.230  0.00  0.00    -0.021 C 
ATOM     41  H   UNL     1      -3.853  14.693  20.881  0.00  0.00    +0.029 HD
ATOM     42  H   UNL     1      -5.051  13.546  21.529  0.00  0.00    +0.029 HD
ATOM     43  H   UNL     1      -3.366  13.495  22.099  0.00  0.00    +0.029 HD
ENDBRANCH  29  40
ENDBRANCH  26  35
ENDBRANCH   1  26
TORSDOF 4
ENDMDL
MODEL 13
REMARK VINA RESULT:    -7.148      3.330      8.806
REMARK INTER + INTRA:          -9.193
REMARK INTER:                  -8.796
REMARK INTRA:                  -0.397
REMARK UNBOUND:                -0.582
REMARK  Name = 
REMARK  4 active torsions:
REMARK  status: ('A' for Active; 'I' for Inactive)
REMARK    1  A    between atoms: C_1  and  C_2
REMARK    2  A    between atoms: C_8  and  C_9
REMARK    3  A    between atoms: C_9  and  N_10
REMARK    4  A    between atoms: C_15  and  C_16
REMARK                            x       y       z     vdW  Elec       q    Type
REMARK                         _______ _______ _______ _____ _____    ______ ____
ROOT
ATOM      1  N   UNL     1       1.819   7.620  19.932  0.00  0.00    -0.315 N 
ATOM      2  C   UNL     1       1.068   8.604  20.488  0.00  0.00    +0.182 A 
ATOM      3  N   UNL     1       0.758   8.616  21.757  0.00  0.00    -0.142 NA
ATOM      4  N   UNL     1       0.000   9.718  21.944  0.00  0.00    -0.212 N 
ATOM      5  C   UNL     1      -0.602  10.234  23.048  0.00  0.00    +0.054 A 
ATOM      6  C   UNL     1      -1.246  11.380  22.592  0.00  0.00    +0.065 A 
ATOM      7  N   UNL     1      -1.023  11.568  21.232  0.00  0.00    -0.225 NA
ATOM      8  C   UNL     1      -0.283  10.544  20.911  0.00  0.00    +0.197 A 
ATOM      9  S   UNL     1       0.448   9.951  19.485  0.00  0.00    -0.013 S 
ATOM     10  H   UNL     1       2.212   6.950  20.589  0.00  0.00    +0.148 HD
ATOM     11  H   UNL     1      -0.526   9.769  24.018  0.00  0.00    +0.085 HD
ENDROOT
BRANCH   6  12
ATOM     12  C   UNL     1      -2.075  12.343  23.376  0.00  0.00    +0.003 C 
ATOM     13  C   UNL     1      -3.477  12.548  22.784  0.00  0.00    -0.045 C 
ATOM     14  C   UNL     1      -3.799  14.010  23.065  0.00  0.00    -0.052 C 
ATOM     15  C   UNL     1      -2.464  14.698  22.838  0.00  0.00    -0.052 C 
ATOM     16  C   UNL     1      -1.451  13.747  23.468  0.00  0.00    -0.045 C 
ATOM     17  H   UNL     1      -2.186  11.954  24.399  0.00  0.00    +0.036 HD
ATOM     18  H   UNL     1      -4.214  11.875  23.234  0.00  0.00    +0.027 HD
ATOM     19  H   UNL     1      -3.492  12.372  21.700  0.00  0.00    +0.027 HD
ATOM     20  H   UNL     1      -4.125  14.136  24.104  0.00  0.00    +0.027 HD
ATOM     21  H   UNL     1      -4.583  14.397  22.409  0.00  0.00    +0.027 HD
ATOM     22  H   UNL     1      -2.266  14.797  21.765  0.00  0.00    +0.027 HD
ATOM     23  H   UNL     1      -2.429  15.698  23.285  0.00  0.00    +0.027 HD
ATOM     24  H   UNL     1      -1.316  14.010  24.527  0.00  0.00    +0.027 HD
ATOM     25  H   UNL     1      -0.469  13.833  22.987  0.00  0.00    +0.027 HD
ENDBRANCH   6  12
BRANCH   1  26
ATOM     26  C   UNL     1       2.479   7.653  18.642  0.00  0.00    +0.073 C 
ATOM     27  H   UNL     1       1.813   8.129  17.912  0.00  0.00    +0.054 HD
ATOM     28  H   UNL     1       3.387   8.265  18.718  0.00  0.00    +0.054 HD
BRANCH  26  35
ATOM     29  C   UNL     1       6.318   6.259  17.334  0.00  0.00    +0.059 A 
ATOM     30  C   UNL     1       6.412   4.838  16.875  0.00  0.00    -0.035 A 
ATOM     31  C   UNL     1       5.296   4.100  16.900  0.00  0.00    -0.014 A 
ATOM     32  C   UNL     1       4.099   4.685  17.356  0.00  0.00    +0.178 A 
ATOM     33  N   UNL     1       2.877   4.221  17.503  0.00  0.00    -0.128 NA
ATOM     34  N   UNL     1       2.098   5.243  18.000  0.00  0.00    -0.131 NA
ATOM     35  C   UNL     1       2.865   6.311  18.135  0.00  0.00    +0.172 A 
ATOM     36  N   UNL     1       4.145   6.007  17.746  0.00  0.00    -0.195 N 
ATOM     37  N   UNL     1       5.232   6.835  17.756  0.00  0.00    -0.169 NA
ATOM     38  H   UNL     1       7.364   4.446  16.542  0.00  0.00    +0.064 HD
ATOM     39  H   UNL     1       5.288   3.062  16.584  0.00  0.00    +0.066 HD
BRANCH  29  40
ATOM     40  C   UNL     1       7.586   7.077  17.307  0.00  0.00    -0.021 C 
ATOM     41  H   UNL     1       7.554   7.766  16.459  0.00  0.00    +0.029 HD
ATOM     42  H   UNL     1       7.661   7.654  18.233  0.00  0.00    +0.029 HD
ATOM     43  H   UNL     1       8.471   6.444  17.210  0.00  0.00    +0.029 HD
ENDBRANCH  29  40
ENDBRANCH  26  35
ENDBRANCH   1  26
TORSDOF 4
ENDMDL
MODEL 14
REMARK VINA RESULT:    -7.132      3.250      4.267
REMARK INTER + INTRA:          -9.173
REMARK INTER:                  -8.606
REMARK INTRA:                  -0.566
REMARK UNBOUND:                -0.582
REMARK  Name = 
REMARK  4 active torsions:
REMARK  status: ('A' for Active; 'I' for Inactive)
REMARK    1  A    between atoms: C_1  and  C_2
REMARK    2  A    between atoms: C_8  and  C_9
REMARK    3  A    between atoms: C_9  and  N_10
REMARK    4  A    between atoms: C_15  and  C_16
REMARK                            x       y       z     vdW  Elec       q    Type
REMARK                         _______ _______ _______ _____ _____    ______ ____
ROOT
ATOM      1  N   UNL     1       1.313   8.453  19.896  0.00  0.00    -0.315 N 
ATOM      2  C   UNL     1       2.207   7.619  19.308  0.00  0.00    +0.182 A 
ATOM      3  N   UNL     1       2.936   7.981  18.286  0.00  0.00    -0.142 NA
ATOM      4  N   UNL     1       3.685   6.905  17.963  0.00  0.00    -0.212 N 
ATOM      5  C   UNL     1       4.612   6.698  16.992  0.00  0.00    +0.054 A 
ATOM      6  C   UNL     1       5.018   5.380  17.171  0.00  0.00    +0.065 A 
ATOM      7  N   UNL     1       4.360   4.799  18.249  0.00  0.00    -0.225 NA
ATOM      8  C   UNL     1       3.580   5.755  18.668  0.00  0.00    +0.197 A 
ATOM      9  S   UNL     1       2.425   5.947  19.912  0.00  0.00    -0.013 S 
ATOM     10  H   UNL     1       1.324   9.411  19.555  0.00  0.00    +0.148 HD
ATOM     11  H   UNL     1       4.894   7.466  16.289  0.00  0.00    +0.085 HD
ENDROOT
BRANCH   6  12
ATOM     12  C   UNL     1       6.021   4.610  16.376  0.00  0.00    +0.003 C 
ATOM     13  C   UNL     1       6.941   5.508  15.537  0.00  0.00    -0.045 C 
ATOM     14  C   UNL     1       7.210   4.704  14.273  0.00  0.00    -0.052 C 
ATOM     15  C   UNL     1       5.868   4.048  13.999  0.00  0.00    -0.052 C 
ATOM     16  C   UNL     1       5.380   3.625  15.380  0.00  0.00    -0.045 C 
ATOM     17  H   UNL     1       6.644   4.029  17.071  0.00  0.00    +0.036 HD
ATOM     18  H   UNL     1       7.867   5.754  16.069  0.00  0.00    +0.027 HD
ATOM     19  H   UNL     1       6.454   6.456  15.272  0.00  0.00    +0.027 HD
ATOM     20  H   UNL     1       7.979   3.944  14.460  0.00  0.00    +0.027 HD
ATOM     21  H   UNL     1       7.543   5.333  13.443  0.00  0.00    +0.027 HD
ATOM     22  H   UNL     1       5.173   4.775  13.563  0.00  0.00    +0.027 HD
ATOM     23  H   UNL     1       5.951   3.201  13.309  0.00  0.00    +0.027 HD
ATOM     24  H   UNL     1       5.741   2.610  15.598  0.00  0.00    +0.027 HD
ATOM     25  H   UNL     1       4.284   3.593  15.425  0.00  0.00    +0.027 HD
ENDBRANCH   6  12
BRANCH   1  26
ATOM     26  C   UNL     1       0.690   8.284  21.194  0.00  0.00    +0.073 C 
ATOM     27  H   UNL     1      -0.057   7.483  21.131  0.00  0.00    +0.054 HD
ATOM     28  H   UNL     1       1.452   7.978  21.922  0.00  0.00    +0.054 HD
BRANCH  26  35
ATOM     29  C   UNL     1      -1.559  11.234  19.041  0.00  0.00    +0.059 A 
ATOM     30  C   UNL     1      -2.118  12.379  19.826  0.00  0.00    -0.035 A 
ATOM     31  C   UNL     1      -1.878  12.408  21.142  0.00  0.00    -0.014 A 
ATOM     32  C   UNL     1      -1.123  11.371  21.723  0.00  0.00    +0.178 A 
ATOM     33  N   UNL     1      -0.743  11.125  22.958  0.00  0.00    -0.128 NA
ATOM     34  N   UNL     1      -0.021   9.952  22.949  0.00  0.00    -0.131 NA
ATOM     35  C   UNL     1       0.030   9.514  21.703  0.00  0.00    +0.172 A 
ATOM     36  N   UNL     1      -0.660  10.376  20.888  0.00  0.00    -0.195 N 
ATOM     37  N   UNL     1      -0.855  10.263  19.540  0.00  0.00    -0.169 NA
ATOM     38  H   UNL     1      -2.696  13.142  19.321  0.00  0.00    +0.064 HD
ATOM     39  H   UNL     1      -2.252  13.205  21.777  0.00  0.00    +0.066 HD
BRANCH  29  40
ATOM     40  C   UNL     1      -1.844  11.212  17.559  0.00  0.00    -0.021 C 
ATOM     41  H   UNL     1      -1.733  10.191  17.185  0.00  0.00    +0.029 HD
ATOM     42  H   UNL     1      -2.871  11.545  17.386  0.00  0.00    +0.029 HD
ATOM     43  H   UNL     1      -1.162  11.864  17.008  0.00  0.00    +0.029 HD
ENDBRANCH  29  40
ENDBRANCH  26  35
ENDBRANCH   1  26
TORSDOF 4
ENDMDL
MODEL 15
REMARK VINA RESULT:    -7.003      1.669      2.930
REMARK INTER + INTRA:          -9.018
REMARK INTER:                  -8.317
REMARK INTRA:                  -0.701
REMARK UNBOUND:                -0.582
REMARK  Name = 
REMARK  4 active torsions:
REMARK  status: ('A' for Active; 'I' for Inactive)
REMARK    1  A    between atoms: C_1  and  C_2
REMARK    2  A    between atoms: C_8  and  C_9
REMARK    3  A    between atoms: C_9  and  N_10
REMARK    4  A    between atoms: C_15  and  C_16
REMARK                            x       y       z     vdW  Elec       q    Type
REMARK                         _______ _______ _______ _____ _____    ______ ____
ROOT
ATOM      1  N   UNL     1       0.333  11.222  20.131  0.00  0.00    -0.315 N 
ATOM      2  C   UNL     1       0.889  10.037  19.772  0.00  0.00    +0.182 A 
ATOM      3  N   UNL     1       1.033   9.048  20.612  0.00  0.00    -0.142 NA
ATOM      4  N   UNL     1       1.628   8.054  19.917  0.00  0.00    -0.212 N 
ATOM      5  C   UNL     1       2.022   6.803  20.272  0.00  0.00    +0.054 A 
ATOM      6  C   UNL     1       2.581   6.271  19.115  0.00  0.00    +0.065 A 
ATOM      7  N   UNL     1       2.511   7.179  18.065  0.00  0.00    -0.225 NA
ATOM      8  C   UNL     1       1.941   8.217  18.612  0.00  0.00    +0.197 A 
ATOM      9  S   UNL     1       1.469   9.777  18.098  0.00  0.00    -0.013 S 
ATOM     10  H   UNL     1      -0.059  11.250  21.069  0.00  0.00    +0.148 HD
ATOM     11  H   UNL     1       1.880   6.413  21.268  0.00  0.00    +0.085 HD
ENDROOT
BRANCH   6  12
ATOM     12  C   UNL     1       3.188   4.920  18.924  0.00  0.00    +0.003 C 
ATOM     13  C   UNL     1       4.329   4.914  17.896  0.00  0.00    -0.045 C 
ATOM     14  C   UNL     1       4.217   3.558  17.211  0.00  0.00    -0.052 C 
ATOM     15  C   UNL     1       2.715   3.361  17.099  0.00  0.00    -0.052 C 
ATOM     16  C   UNL     1       2.179   3.864  18.435  0.00  0.00    -0.045 C 
ATOM     17  H   UNL     1       3.591   4.580  19.889  0.00  0.00    +0.036 HD
ATOM     18  H   UNL     1       5.307   5.052  18.369  0.00  0.00    +0.027 HD
ATOM     19  H   UNL     1       4.210   5.711  17.151  0.00  0.00    +0.027 HD
ATOM     20  H   UNL     1       4.663   2.776  17.838  0.00  0.00    +0.027 HD
ATOM     21  H   UNL     1       4.713   3.542  16.237  0.00  0.00    +0.027 HD
ATOM     22  H   UNL     1       2.313   3.969  16.281  0.00  0.00    +0.027 HD
ATOM     23  H   UNL     1       2.446   2.315  16.910  0.00  0.00    +0.027 HD
ATOM     24  H   UNL     1       2.155   3.033  19.153  0.00  0.00    +0.027 HD
ATOM     25  H   UNL     1       1.153   4.238  18.338  0.00  0.00    +0.027 HD
ENDBRANCH   6  12
BRANCH   1  26
ATOM     26  C   UNL     1      -0.159  12.257  19.243  0.00  0.00    +0.073 C 
ATOM     27  H   UNL     1      -0.139  13.219  19.770  0.00  0.00    +0.054 HD
ATOM     28  H   UNL     1       0.509  12.334  18.375  0.00  0.00    +0.054 HD
BRANCH  26  35
ATOM     29  C   UNL     1      -3.897  12.761  21.285  0.00  0.00    +0.059 A 
ATOM     30  C   UNL     1      -5.143  12.438  20.524  0.00  0.00    -0.035 A 
ATOM     31  C   UNL     1      -5.011  12.011  19.262  0.00  0.00    -0.014 A 
ATOM     32  C   UNL     1      -3.719  11.892  18.713  0.00  0.00    +0.178 A 
ATOM     33  N   UNL     1      -3.282  11.521  17.529  0.00  0.00    -0.128 NA
ATOM     34  N   UNL     1      -1.907  11.601  17.546  0.00  0.00    -0.131 NA
ATOM     35  C   UNL     1      -1.538  12.012  18.747  0.00  0.00    +0.172 A 
ATOM     36  N   UNL     1      -2.651  12.217  19.522  0.00  0.00    -0.195 N 
ATOM     37  N   UNL     1      -2.689  12.659  20.815  0.00  0.00    -0.169 NA
ATOM     38  H   UNL     1      -6.108  12.556  21.001  0.00  0.00    +0.064 HD
ATOM     39  H   UNL     1      -5.869  11.759  18.648  0.00  0.00    +0.066 HD
BRANCH  29  40
ATOM     40  C   UNL     1      -4.063  13.247  22.704  0.00  0.00    -0.021 C 
ATOM     41  H   UNL     1      -3.121  13.121  23.243  0.00  0.00    +0.029 HD
ATOM     42  H   UNL     1      -4.327  14.309  22.691  0.00  0.00    +0.029 HD
ATOM     43  H   UNL     1      -4.845  12.694  23.230  0.00  0.00    +0.029 HD
ENDBRANCH  29  40
ENDBRANCH  26  35
ENDBRANCH   1  26
TORSDOF 4
ENDMDL
MODEL 16
REMARK VINA RESULT:    -6.993      3.592      8.872
REMARK INTER + INTRA:          -9.006
REMARK INTER:                  -8.765
REMARK INTRA:                  -0.242
REMARK UNBOUND:                -0.582
REMARK  Name = 
REMARK  4 active torsions:
REMARK  status: ('A' for Active; 'I' for Inactive)
REMARK    1  A    between atoms: C_1  and  C_2
REMARK    2  A    between atoms: C_8  and  C_9
REMARK    3  A    between atoms: C_9  and  N_10
REMARK    4  A    between atoms: C_15  and  C_16
REMARK                            x       y       z     vdW  Elec       q    Type
REMARK                         _______ _______ _______ _____ _____    ______ ____
ROOT
ATOM      1  N   UNL     1       2.817   4.091  19.544  0.00  0.00    -0.315 N 
ATOM      2  C   UNL     1       2.445   5.394  19.619  0.00  0.00    +0.182 A 
ATOM      3  N   UNL     1       1.959   5.922  20.710  0.00  0.00    -0.142 NA
ATOM      4  N   UNL     1       1.691   7.212  20.412  0.00  0.00    -0.212 N 
ATOM      5  C   UNL     1       1.174   8.230  21.149  0.00  0.00    +0.054 A 
ATOM      6  C   UNL     1       1.132   9.310  20.274  0.00  0.00    +0.065 A 
ATOM      7  N   UNL     1       1.635   8.958  19.026  0.00  0.00    -0.225 NA
ATOM      8  C   UNL     1       1.941   7.700  19.175  0.00  0.00    +0.197 A 
ATOM      9  S   UNL     1       2.598   6.467  18.192  0.00  0.00    -0.013 S 
ATOM     10  H   UNL     1       2.790   3.582  20.423  0.00  0.00    +0.148 HD
ATOM     11  H   UNL     1       0.892   8.109  22.183  0.00  0.00    +0.085 HD
ENDROOT
BRANCH   6  12
ATOM     12  C   UNL     1       0.643  10.695  20.544  0.00  0.00    +0.003 C 
ATOM     13  C   UNL     1      -0.392  10.756  21.676  0.00  0.00    -0.045 C 
ATOM     14  C   UNL     1      -1.345  11.869  21.261  0.00  0.00    -0.052 C 
ATOM     15  C   UNL     1      -1.459  11.671  19.759  0.00  0.00    -0.052 C 
ATOM     16  C   UNL     1      -0.033  11.349  19.324  0.00  0.00    -0.045 C 
ATOM     17  H   UNL     1       1.504  11.318  20.827  0.00  0.00    +0.036 HD
ATOM     18  H   UNL     1       0.075  10.960  22.646  0.00  0.00    +0.027 HD
ATOM     19  H   UNL     1      -0.947   9.814  21.772  0.00  0.00    +0.027 HD
ATOM     20  H   UNL     1      -0.910  12.849  21.489  0.00  0.00    +0.027 HD
ATOM     21  H   UNL     1      -2.313  11.796  21.765  0.00  0.00    +0.027 HD
ATOM     22  H   UNL     1      -2.118  10.825  19.537  0.00  0.00    +0.027 HD
ATOM     23  H   UNL     1      -1.858  12.557  19.252  0.00  0.00    +0.027 HD
ATOM     24  H   UNL     1       0.493  12.283  19.082  0.00  0.00    +0.027 HD
ATOM     25  H   UNL     1      -0.022  10.728  18.420  0.00  0.00    +0.027 HD
ENDBRANCH   6  12
BRANCH   1  26
ATOM     26  C   UNL     1       3.639   3.479  18.519  0.00  0.00    +0.073 C 
ATOM     27  H   UNL     1       3.808   2.427  18.778  0.00  0.00    +0.054 HD
ATOM     28  H   UNL     1       3.103   3.509  17.562  0.00  0.00    +0.054 HD
BRANCH  26  35
ATOM     29  C   UNL     1       5.812   4.214  14.895  0.00  0.00    +0.059 A 
ATOM     30  C   UNL     1       7.126   4.917  15.014  0.00  0.00    -0.035 A 
ATOM     31  C   UNL     1       7.538   5.267  16.239  0.00  0.00    -0.014 A 
ATOM     32  C   UNL     1       6.723   4.965  17.346  0.00  0.00    +0.178 A 
ATOM     33  N   UNL     1       6.849   5.187  18.637  0.00  0.00    -0.128 NA
ATOM     34  N   UNL     1       5.733   4.675  19.262  0.00  0.00    -0.131 NA
ATOM     35  C   UNL     1       4.955   4.143  18.335  0.00  0.00    +0.172 A 
ATOM     36  N   UNL     1       5.535   4.308  17.102  0.00  0.00    -0.195 N 
ATOM     37  N   UNL     1       5.035   3.914  15.893  0.00  0.00    -0.169 NA
ATOM     38  H   UNL     1       7.704   5.126  14.123  0.00  0.00    +0.064 HD
ATOM     39  H   UNL     1       8.479   5.781  16.403  0.00  0.00    +0.066 HD
BRANCH  29  40
ATOM     40  C   UNL     1       5.358   3.832  13.508  0.00  0.00    -0.021 C 
ATOM     41  H   UNL     1       5.674   2.808  13.292  0.00  0.00    +0.029 HD
ATOM     42  H   UNL     1       4.266   3.886  13.459  0.00  0.00    +0.029 HD
ATOM     43  H   UNL     1       5.779   4.496  12.749  0.00  0.00    +0.029 HD
ENDBRANCH  29  40
ENDBRANCH  26  35
ENDBRANCH   1  26
TORSDOF 4
ENDMDL
MODEL 17
REMARK VINA RESULT:    -6.981      3.099      4.686
REMARK INTER + INTRA:          -8.992
REMARK INTER:                  -8.476
REMARK INTRA:                  -0.516
REMARK UNBOUND:                -0.582
REMARK  Name = 
REMARK  4 active torsions:
REMARK  status: ('A' for Active; 'I' for Inactive)
REMARK    1  A    between atoms: C_1  and  C_2
REMARK    2  A    between atoms: C_8  and  C_9
REMARK    3  A    between atoms: C_9  and  N_10
REMARK    4  A    between atoms: C_15  and  C_16
REMARK                            x       y       z     vdW  Elec       q    Type
REMARK                         _______ _______ _______ _____ _____    ______ ____
ROOT
ATOM      1  N   UNL     1       0.714   8.947  20.513  0.00  0.00    -0.315 N 
ATOM      2  C   UNL     1       1.600   8.219  19.787  0.00  0.00    +0.182 A 
ATOM      3  N   UNL     1       2.117   7.104  20.227  0.00  0.00    -0.142 NA
ATOM      4  N   UNL     1       2.954   6.674  19.258  0.00  0.00    -0.212 N 
ATOM      5  C   UNL     1       3.758   5.583  19.165  0.00  0.00    +0.054 A 
ATOM      6  C   UNL     1       4.378   5.708  17.927  0.00  0.00    +0.065 A 
ATOM      7  N   UNL     1       3.941   6.851  17.266  0.00  0.00    -0.225 NA
ATOM      8  C   UNL     1       3.104   7.380  18.114  0.00  0.00    +0.197 A 
ATOM      9  S   UNL     1       2.115   8.772  18.163  0.00  0.00    -0.013 S 
ATOM     10  H   UNL     1       0.401   8.512  21.378  0.00  0.00    +0.148 HD
ATOM     11  H   UNL     1       3.821   4.843  19.948  0.00  0.00    +0.085 HD
ENDROOT
BRANCH   6  12
ATOM     12  C   UNL     1       5.377   4.792  17.301  0.00  0.00    +0.003 C 
ATOM     13  C   UNL     1       6.620   5.527  16.777  0.00  0.00    -0.045 C 
ATOM     14  C   UNL     1       7.024   4.752  15.530  0.00  0.00    -0.052 C 
ATOM     15  C   UNL     1       5.685   4.398  14.906  0.00  0.00    -0.052 C 
ATOM     16  C   UNL     1       4.816   4.012  16.097  0.00  0.00    -0.045 C 
ATOM     17  H   UNL     1       5.700   4.062  18.056  0.00  0.00    +0.036 HD
ATOM     18  H   UNL     1       7.424   5.551  17.521  0.00  0.00    +0.027 HD
ATOM     19  H   UNL     1       6.395   6.566  16.505  0.00  0.00    +0.027 HD
ATOM     20  H   UNL     1       7.572   3.843  15.807  0.00  0.00    +0.027 HD
ATOM     21  H   UNL     1       7.654   5.342  14.860  0.00  0.00    +0.027 HD
ATOM     22  H   UNL     1       5.260   5.273  14.401  0.00  0.00    +0.027 HD
ATOM     23  H   UNL     1       5.769   3.589  14.172  0.00  0.00    +0.027 HD
ATOM     24  H   UNL     1       4.921   2.935  16.290  0.00  0.00    +0.027 HD
ATOM     25  H   UNL     1       3.755   4.202  15.896  0.00  0.00    +0.027 HD
ENDBRANCH   6  12
BRANCH   1  26
ATOM     26  C   UNL     1      -0.149  10.004  20.027  0.00  0.00    +0.073 C 
ATOM     27  H   UNL     1      -0.162   9.980  18.930  0.00  0.00    +0.054 HD
ATOM     28  H   UNL     1      -1.173   9.824  20.379  0.00  0.00    +0.054 HD
BRANCH  26  35
ATOM     29  C   UNL     1      -1.997  12.578  22.917  0.00  0.00    +0.059 A 
ATOM     30  C   UNL     1      -1.351  13.904  23.168  0.00  0.00    -0.035 A 
ATOM     31  C   UNL     1      -0.245  14.200  22.474  0.00  0.00    -0.014 A 
ATOM     32  C   UNL     1       0.257  13.259  21.555  0.00  0.00    +0.178 A 
ATOM     33  N   UNL     1       1.303  13.259  20.757  0.00  0.00    -0.128 NA
ATOM     34  N   UNL     1       1.311  12.061  20.077  0.00  0.00    -0.131 NA
ATOM     35  C   UNL     1       0.262  11.361  20.471  0.00  0.00    +0.172 A 
ATOM     36  N   UNL     1      -0.436  12.075  21.412  0.00  0.00    -0.195 N 
ATOM     37  N   UNL     1      -1.567  11.687  22.074  0.00  0.00    -0.169 NA
ATOM     38  H   UNL     1      -1.783  14.581  23.894  0.00  0.00    +0.064 HD
ATOM     39  H   UNL     1       0.279  15.140  22.604  0.00  0.00    +0.066 HD
BRANCH  29  40
ATOM     40  C   UNL     1      -3.239  12.256  23.712  0.00  0.00    -0.021 C 
ATOM     41  H   UNL     1      -3.160  12.705  24.705  0.00  0.00    +0.029 HD
ATOM     42  H   UNL     1      -4.111  12.674  23.200  0.00  0.00    +0.029 HD
ATOM     43  H   UNL     1      -3.377  11.178  23.824  0.00  0.00    +0.029 HD
ENDBRANCH  29  40
ENDBRANCH  26  35
ENDBRANCH   1  26
TORSDOF 4
ENDMDL
MODEL 18
REMARK VINA RESULT:    -6.939      2.166      2.709
REMARK INTER + INTRA:          -8.940
REMARK INTER:                  -8.520
REMARK INTRA:                  -0.420
REMARK UNBOUND:                -0.582
REMARK  Name = 
REMARK  4 active torsions:
REMARK  status: ('A' for Active; 'I' for Inactive)
REMARK    1  A    between atoms: C_1  and  C_2
REMARK    2  A    between atoms: C_8  and  C_9
REMARK    3  A    between atoms: C_9  and  N_10
REMARK    4  A    between atoms: C_15  and  C_16
REMARK                            x       y       z     vdW  Elec       q    Type
REMARK                         _______ _______ _______ _____ _____    ______ ____
ROOT
ATOM      1  N   UNL     1       0.674  10.101  19.051  0.00  0.00    -0.315 N 
ATOM      2  C   UNL     1       1.512   9.043  18.909  0.00  0.00    +0.182 A 
ATOM      3  N   UNL     1       2.246   8.868  17.843  0.00  0.00    -0.142 NA
ATOM      4  N   UNL     1       2.928   7.721  18.045  0.00  0.00    -0.212 N 
ATOM      5  C   UNL     1       3.830   7.050  17.281  0.00  0.00    +0.054 A 
ATOM      6  C   UNL     1       4.162   5.929  18.035  0.00  0.00    +0.065 A 
ATOM      7  N   UNL     1       3.487   5.929  19.250  0.00  0.00    -0.225 NA
ATOM      8  C   UNL     1       2.768   7.015  19.188  0.00  0.00    +0.197 A 
ATOM      9  S   UNL     1       1.643   7.808  20.200  0.00  0.00    -0.013 S 
ATOM     10  H   UNL     1       0.735  10.804  18.318  0.00  0.00    +0.148 HD
ATOM     11  H   UNL     1       4.145   7.405  16.313  0.00  0.00    +0.085 HD
ENDROOT
BRANCH   6  12
ATOM     12  C   UNL     1       5.109   4.830  17.682  0.00  0.00    +0.003 C 
ATOM     13  C   UNL     1       6.582   5.227  17.853  0.00  0.00    -0.045 C 
ATOM     14  C   UNL     1       7.308   4.487  16.737  0.00  0.00    -0.052 C 
ATOM     15  C   UNL     1       6.332   4.588  15.577  0.00  0.00    -0.052 C 
ATOM     16  C   UNL     1       4.971   4.355  16.223  0.00  0.00    -0.045 C 
ATOM     17  H   UNL     1       4.904   3.970  18.337  0.00  0.00    +0.036 HD
ATOM     18  H   UNL     1       6.967   4.953  18.841  0.00  0.00    +0.027 HD
ATOM     19  H   UNL     1       6.729   6.308  17.732  0.00  0.00    +0.027 HD
ATOM     20  H   UNL     1       7.468   3.439  17.015  0.00  0.00    +0.027 HD
ATOM     21  H   UNL     1       8.278   4.934  16.504  0.00  0.00    +0.027 HD
ATOM     22  H   UNL     1       6.370   5.590  15.135  0.00  0.00    +0.027 HD
ATOM     23  H   UNL     1       6.548   3.859  14.787  0.00  0.00    +0.027 HD
ATOM     24  H   UNL     1       4.745   3.280  16.216  0.00  0.00    +0.027 HD
ATOM     25  H   UNL     1       4.172   4.856  15.663  0.00  0.00    +0.027 HD
ENDBRANCH   6  12
BRANCH   1  26
ATOM     26  C   UNL     1       0.060  10.566  20.279  0.00  0.00    +0.073 C 
ATOM     27  H   UNL     1      -0.136   9.705  20.929  0.00  0.00    +0.054 HD
ATOM     28  H   UNL     1       0.760  11.230  20.803  0.00  0.00    +0.054 HD
BRANCH  26  35
ATOM     29  C   UNL     1      -2.693  10.326  16.999  0.00  0.00    +0.059 A 
ATOM     30  C   UNL     1      -3.908  11.196  17.058  0.00  0.00    -0.035 A 
ATOM     31  C   UNL     1      -4.055  11.991  18.124  0.00  0.00    -0.014 A 
ATOM     32  C   UNL     1      -3.072  11.969  19.133  0.00  0.00    +0.178 A 
ATOM     33  N   UNL     1      -2.949  12.610  20.276  0.00  0.00    -0.128 NA
ATOM     34  N   UNL     1      -1.779  12.189  20.869  0.00  0.00    -0.131 NA
ATOM     35  C   UNL     1      -1.211  11.305  20.067  0.00  0.00    +0.172 A 
ATOM     36  N   UNL     1      -1.996  11.126  18.956  0.00  0.00    -0.195 N 
ATOM     37  N   UNL     1      -1.763  10.282  17.906  0.00  0.00    -0.169 NA
ATOM     38  H   UNL     1      -4.630  11.162  16.252  0.00  0.00    +0.064 HD
ATOM     39  H   UNL     1      -4.911  12.647  18.238  0.00  0.00    +0.066 HD
BRANCH  29  40
ATOM     40  C   UNL     1      -2.545   9.431  15.793  0.00  0.00    -0.021 C 
ATOM     41  H   UNL     1      -3.293   9.704  15.044  0.00  0.00    +0.029 HD
ATOM     42  H   UNL     1      -1.547   9.566  15.365  0.00  0.00    +0.029 HD
ATOM     43  H   UNL     1      -2.678   8.378  16.054  0.00  0.00    +0.029 HD
ENDBRANCH  29  40
ENDBRANCH  26  35
ENDBRANCH   1  26
TORSDOF 4
ENDMDL
MODEL 19
REMARK VINA RESULT:    -6.917      2.655      8.399
REMARK INTER + INTRA:          -8.914
REMARK INTER:                  -8.429
REMARK INTRA:                  -0.486
REMARK UNBOUND:                -0.582
REMARK  Name = 
REMARK  4 active torsions:
REMARK  status: ('A' for Active; 'I' for Inactive)
REMARK    1  A    between atoms: C_1  and  C_2
REMARK    2  A    between atoms: C_8  and  C_9
REMARK    3  A    between atoms: C_9  and  N_10
REMARK    4  A    between atoms: C_15  and  C_16
REMARK                            x       y       z     vdW  Elec       q    Type
REMARK                         _______ _______ _______ _____ _____    ______ ____
ROOT
ATOM      1  N   UNL     1       1.974   7.972  19.522  0.00  0.00    -0.315 N 
ATOM      2  C   UNL     1       1.163   8.857  20.156  0.00  0.00    +0.182 A 
ATOM      3  N   UNL     1       0.322   9.622  19.514  0.00  0.00    -0.142 NA
ATOM      4  N   UNL     1      -0.293  10.370  20.455  0.00  0.00    -0.212 N 
ATOM      5  C   UNL     1      -1.249  11.332  20.374  0.00  0.00    +0.054 A 
ATOM      6  C   UNL     1      -1.457  11.732  21.690  0.00  0.00    +0.065 A 
ATOM      7  N   UNL     1      -0.651  11.008  22.562  0.00  0.00    -0.225 NA
ATOM      8  C   UNL     1       0.018  10.224  21.764  0.00  0.00    +0.197 A 
ATOM      9  S   UNL     1       1.219   9.022  21.939  0.00  0.00    -0.013 S 
ATOM     10  H   UNL     1       1.808   7.872  18.523  0.00  0.00    +0.148 HD
ATOM     11  H   UNL     1      -1.682  11.639  19.435  0.00  0.00    +0.085 HD
ENDROOT
BRANCH   6  12
ATOM     12  C   UNL     1      -2.397  12.775  22.197  0.00  0.00    +0.003 C 
ATOM     13  C   UNL     1      -3.122  12.355  23.484  0.00  0.00    -0.045 C 
ATOM     14  C   UNL     1      -4.504  12.983  23.366  0.00  0.00    -0.052 C 
ATOM     15  C   UNL     1      -4.824  12.815  21.890  0.00  0.00    -0.052 C 
ATOM     16  C   UNL     1      -3.507  13.133  21.192  0.00  0.00    -0.045 C 
ATOM     17  H   UNL     1      -1.822  13.689  22.406  0.00  0.00    +0.036 HD
ATOM     18  H   UNL     1      -2.594  12.698  24.381  0.00  0.00    +0.027 HD
ATOM     19  H   UNL     1      -3.220  11.264  23.559  0.00  0.00    +0.027 HD
ATOM     20  H   UNL     1      -4.464  14.046  23.632  0.00  0.00    +0.027 HD
ATOM     21  H   UNL     1      -5.240  12.494  24.010  0.00  0.00    +0.027 HD
ATOM     22  H   UNL     1      -5.117  11.779  21.682  0.00  0.00    +0.027 HD
ATOM     23  H   UNL     1      -5.638  13.472  21.563  0.00  0.00    +0.027 HD
ATOM     24  H   UNL     1      -3.460  14.211  20.977  0.00  0.00    +0.027 HD
ATOM     25  H   UNL     1      -3.427  12.609  20.231  0.00  0.00    +0.027 HD
ENDBRANCH   6  12
BRANCH   1  26
ATOM     26  C   UNL     1       2.703   6.874  20.123  0.00  0.00    +0.073 C 
ATOM     27  H   UNL     1       3.719   6.851  19.710  0.00  0.00    +0.054 HD
ATOM     28  H   UNL     1       2.783   7.044  21.204  0.00  0.00    +0.054 HD
BRANCH  26  35
ATOM     29  C   UNL     1       3.721   3.817  17.291  0.00  0.00    +0.059 A 
ATOM     30  C   UNL     1       2.900   2.567  17.307  0.00  0.00    -0.035 A 
ATOM     31  C   UNL     1       1.904   2.486  18.197  0.00  0.00    -0.014 A 
ATOM     32  C   UNL     1       1.680   3.566  19.072  0.00  0.00    +0.178 A 
ATOM     33  N   UNL     1       0.809   3.769  20.037  0.00  0.00    -0.128 NA
ATOM     34  N   UNL     1       1.056   5.016  20.569  0.00  0.00    -0.131 NA
ATOM     35  C   UNL     1       2.069   5.548  19.907  0.00  0.00    +0.172 A 
ATOM     36  N   UNL     1       2.505   4.665  18.952  0.00  0.00    -0.195 N 
ATOM     37  N   UNL     1       3.541   4.836  18.078  0.00  0.00    -0.169 NA
ATOM     38  H   UNL     1       3.128   1.769  16.611  0.00  0.00    +0.064 HD
ATOM     39  H   UNL     1       1.268   1.610  18.269  0.00  0.00    +0.066 HD
BRANCH  29  40
ATOM     40  C   UNL     1       4.844   3.891  16.286  0.00  0.00    -0.021 C 
ATOM     41  H   UNL     1       5.776   4.136  16.802  0.00  0.00    +0.029 HD
ATOM     42  H   UNL     1       4.952   2.919  15.797  0.00  0.00    +0.029 HD
ATOM     43  H   UNL     1       4.654   4.652  15.525  0.00  0.00    +0.029 HD
ENDBRANCH  29  40
ENDBRANCH  26  35
ENDBRANCH   1  26
TORSDOF 4
ENDMDL
MODEL 20
REMARK VINA RESULT:    -6.906      2.149      2.937
REMARK INTER + INTRA:          -8.902
REMARK INTER:                  -8.512
REMARK INTRA:                  -0.390
REMARK UNBOUND:                -0.582
REMARK  Name = 
REMARK  4 active torsions:
REMARK  status: ('A' for Active; 'I' for Inactive)
REMARK    1  A    between atoms: C_1  and  C_2
REMARK    2  A    between atoms: C_8  and  C_9
REMARK    3  A    between atoms: C_9  and  N_10
REMARK    4  A    between atoms: C_15  and  C_16
REMARK                            x       y       z     vdW  Elec       q    Type
REMARK                         _______ _______ _______ _____ _____    ______ ____
ROOT
ATOM      1  N   UNL     1       0.570   9.888  19.951  0.00  0.00    -0.315 N 
ATOM      2  C   UNL     1       1.412   8.953  19.443  0.00  0.00    +0.182 A 
ATOM      3  N   UNL     1       1.737   7.872  20.099  0.00  0.00    -0.142 NA
ATOM      4  N   UNL     1       2.592   7.196  19.302  0.00  0.00    -0.212 N 
ATOM      5  C   UNL     1       3.251   6.018  19.463  0.00  0.00    +0.054 A 
ATOM      6  C   UNL     1       3.989   5.867  18.294  0.00  0.00    +0.065 A 
ATOM      7  N   UNL     1       3.767   6.930  17.425  0.00  0.00    -0.225 NA
ATOM      8  C   UNL     1       2.935   7.684  18.088  0.00  0.00    +0.197 A 
ATOM      9  S   UNL     1       2.138   9.170  17.820  0.00  0.00    -0.013 S 
ATOM     10  H   UNL     1       0.127   9.639  20.832  0.00  0.00    +0.148 HD
ATOM     11  H   UNL     1       3.146   5.413  20.350  0.00  0.00    +0.085 HD
ENDROOT
BRANCH   6  12
ATOM     12  C   UNL     1       4.910   4.751  17.925  0.00  0.00    +0.003 C 
ATOM     13  C   UNL     1       6.387   5.171  17.914  0.00  0.00    -0.045 C 
ATOM     14  C   UNL     1       7.007   4.357  16.786  0.00  0.00    -0.052 C 
ATOM     15  C   UNL     1       5.916   4.365  15.728  0.00  0.00    -0.052 C 
ATOM     16  C   UNL     1       4.632   4.171  16.526  0.00  0.00    -0.045 C 
ATOM     17  H   UNL     1       4.786   3.941  18.658  0.00  0.00    +0.036 HD
ATOM     18  H   UNL     1       6.875   4.973  18.875  0.00  0.00    +0.027 HD
ATOM     19  H   UNL     1       6.506   6.241  17.702  0.00  0.00    +0.027 HD
ATOM     20  H   UNL     1       7.210   3.333  17.121  0.00  0.00    +0.027 HD
ATOM     21  H   UNL     1       7.941   4.793  16.424  0.00  0.00    +0.027 HD
ATOM     22  H   UNL     1       5.894   5.333  15.214  0.00  0.00    +0.027 HD
ATOM     23  H   UNL     1       6.061   3.582  14.975  0.00  0.00    +0.027 HD
ATOM     24  H   UNL     1       4.422   3.096  16.620  0.00  0.00    +0.027 HD
ATOM     25  H   UNL     1       3.772   4.624  16.017  0.00  0.00    +0.027 HD
ENDBRANCH   6  12
BRANCH   1  26
ATOM     26  C   UNL     1      -0.100  10.945  19.220  0.00  0.00    +0.073 C 
ATOM     27  H   UNL     1       0.646  11.675  18.883  0.00  0.00    +0.054 HD
ATOM     28  H   UNL     1      -0.579  10.519  18.328  0.00  0.00    +0.054 HD
BRANCH  26  35
ATOM     29  C   UNL     1      -4.188  11.751  18.206  0.00  0.00    +0.059 A 
ATOM     30  C   UNL     1      -5.013  12.487  19.213  0.00  0.00    -0.035 A 
ATOM     31  C   UNL     1      -4.423  12.847  20.360  0.00  0.00    -0.014 A 
ATOM     32  C   UNL     1      -3.069  12.516  20.565  0.00  0.00    +0.178 A 
ATOM     33  N   UNL     1      -2.241  12.717  21.567  0.00  0.00    -0.128 NA
ATOM     34  N   UNL     1      -1.025  12.168  21.223  0.00  0.00    -0.131 NA
ATOM     35  C   UNL     1      -1.140  11.652  20.012  0.00  0.00    +0.172 A 
ATOM     36  N   UNL     1      -2.419  11.840  19.553  0.00  0.00    -0.195 N 
ATOM     37  N   UNL     1      -2.937  11.433  18.356  0.00  0.00    -0.169 NA
ATOM     38  H   UNL     1      -6.051  12.706  18.998  0.00  0.00    +0.064 HD
ATOM     39  H   UNL     1      -4.957  13.380  21.138  0.00  0.00    +0.066 HD
BRANCH  29  40
ATOM     40  C   UNL     1      -4.870  11.347  16.921  0.00  0.00    -0.021 C 
ATOM     41  H   UNL     1      -5.906  11.694  16.936  0.00  0.00    +0.029 HD
ATOM     42  H   UNL     1      -4.350  11.812  16.078  0.00  0.00    +0.029 HD
ATOM     43  H   UNL     1      -4.864  10.263  16.787  0.00  0.00    +0.029 HD
ENDBRANCH  29  40
ENDBRANCH  26  35
ENDBRANCH   1  26
TORSDOF 4
ENDMDL
MODEL 21
REMARK VINA RESULT:    -6.869      1.727      2.940
REMARK INTER + INTRA:          -8.856
REMARK INTER:                  -8.400
REMARK INTRA:                  -0.456
REMARK UNBOUND:                -0.582
REMARK  Name = 
REMARK  4 active torsions:
REMARK  status: ('A' for Active; 'I' for Inactive)
REMARK    1  A    between atoms: C_1  and  C_2
REMARK    2  A    between atoms: C_8  and  C_9
REMARK    3  A    between atoms: C_9  and  N_10
REMARK    4  A    between atoms: C_15  and  C_16
REMARK                            x       y       z     vdW  Elec       q    Type
REMARK                         _______ _______ _______ _____ _____    ______ ____
ROOT
ATOM      1  N   UNL     1       1.260  10.487  18.186  0.00  0.00    -0.315 N 
ATOM      2  C   UNL     1       1.656   9.235  18.529  0.00  0.00    +0.182 A 
ATOM      3  N   UNL     1       2.346   8.473  17.723  0.00  0.00    -0.142 NA
ATOM      4  N   UNL     1       2.542   7.313  18.385  0.00  0.00    -0.212 N 
ATOM      5  C   UNL     1       3.183   6.164  18.042  0.00  0.00    +0.054 A 
ATOM      6  C   UNL     1       3.026   5.333  19.146  0.00  0.00    +0.065 A 
ATOM      7  N   UNL     1       2.316   5.975  20.155  0.00  0.00    -0.225 NA
ATOM      8  C   UNL     1       2.054   7.141  19.635  0.00  0.00    +0.197 A 
ATOM      9  S   UNL     1       1.234   8.555  20.131  0.00  0.00    -0.013 S 
ATOM     10  H   UNL     1       1.626  10.830  17.301  0.00  0.00    +0.148 HD
ATOM     11  H   UNL     1       3.673   6.038  17.090  0.00  0.00    +0.085 HD
ENDROOT
BRANCH   6  12
ATOM     12  C   UNL     1       3.523   3.936  19.324  0.00  0.00    +0.003 C 
ATOM     13  C   UNL     1       3.849   3.241  17.995  0.00  0.00    -0.045 C 
ATOM     14  C   UNL     1       3.478   1.782  18.226  0.00  0.00    -0.052 C 
ATOM     15  C   UNL     1       2.214   1.886  19.063  0.00  0.00    -0.052 C 
ATOM     16  C   UNL     1       2.513   3.019  20.039  0.00  0.00    -0.045 C 
ATOM     17  H   UNL     1       4.439   3.968  19.932  0.00  0.00    +0.036 HD
ATOM     18  H   UNL     1       4.904   3.354  17.722  0.00  0.00    +0.027 HD
ATOM     19  H   UNL     1       3.251   3.644  17.167  0.00  0.00    +0.027 HD
ATOM     20  H   UNL     1       4.270   1.272  18.787  0.00  0.00    +0.027 HD
ATOM     21  H   UNL     1       3.315   1.241  17.291  0.00  0.00    +0.027 HD
ATOM     22  H   UNL     1       1.361   2.153  18.429  0.00  0.00    +0.027 HD
ATOM     23  H   UNL     1       1.977   0.947  19.576  0.00  0.00    +0.027 HD
ATOM     24  H   UNL     1       2.983   2.606  20.943  0.00  0.00    +0.027 HD
ATOM     25  H   UNL     1       1.594   3.526  20.355  0.00  0.00    +0.027 HD
ENDBRANCH   6  12
BRANCH   1  26
ATOM     26  C   UNL     1       0.777  11.521  19.078  0.00  0.00    +0.073 C 
ATOM     27  H   UNL     1       1.072  11.275  20.105  0.00  0.00    +0.054 HD
ATOM     28  H   UNL     1       1.250  12.476  18.813  0.00  0.00    +0.054 HD
BRANCH  26  35
ATOM     29  C   UNL     1      -1.828  13.186  22.051  0.00  0.00    +0.059 A 
ATOM     30  C   UNL     1      -3.286  13.253  21.726  0.00  0.00    -0.035 A 
ATOM     31  C   UNL     1      -3.682  12.787  20.535  0.00  0.00    -0.014 A 
ATOM     32  C   UNL     1      -2.717  12.267  19.650  0.00  0.00    +0.178 A 
ATOM     33  N   UNL     1      -2.796  11.762  18.438  0.00  0.00    -0.128 NA
ATOM     34  N   UNL     1      -1.522  11.413  18.045  0.00  0.00    -0.131 NA
ATOM     35  C   UNL     1      -0.697  11.707  19.034  0.00  0.00    +0.172 A 
ATOM     36  N   UNL     1      -1.405  12.257  20.073  0.00  0.00    -0.195 N 
ATOM     37  N   UNL     1      -0.910  12.709  21.264  0.00  0.00    -0.169 NA
ATOM     38  H   UNL     1      -3.977  13.670  22.447  0.00  0.00    +0.064 HD
ATOM     39  H   UNL     1      -4.722  12.804  20.228  0.00  0.00    +0.066 HD
BRANCH  29  40
ATOM     40  C   UNL     1      -1.397  13.721  23.395  0.00  0.00    -0.021 C 
ATOM     41  H   UNL     1      -0.793  12.968  23.908  0.00  0.00    +0.029 HD
ATOM     42  H   UNL     1      -0.794  14.621  23.246  0.00  0.00    +0.029 HD
ATOM     43  H   UNL     1      -2.256  13.969  24.023  0.00  0.00    +0.029 HD
ENDBRANCH  29  40
ENDBRANCH  26  35
ENDBRANCH   1  26
TORSDOF 4
ENDMDL
MODEL 22
REMARK VINA RESULT:    -6.847      2.361      8.612
REMARK INTER + INTRA:          -8.830
REMARK INTER:                  -8.158
REMARK INTRA:                  -0.671
REMARK UNBOUND:                -0.582
REMARK  Name = 
REMARK  4 active torsions:
REMARK  status: ('A' for Active; 'I' for Inactive)
REMARK    1  A    between atoms: C_1  and  C_2
REMARK    2  A    between atoms: C_8  and  C_9
REMARK    3  A    between atoms: C_9  and  N_10
REMARK    4  A    between atoms: C_15  and  C_16
REMARK                            x       y       z     vdW  Elec       q    Type
REMARK                         _______ _______ _______ _____ _____    ______ ____
ROOT
ATOM      1  N   UNL     1       2.325   6.982  20.059  0.00  0.00    -0.315 N 
ATOM      2  C   UNL     1       1.580   8.116  20.051  0.00  0.00    +0.182 A 
ATOM      3  N   UNL     1       1.595   8.957  19.052  0.00  0.00    -0.142 NA
ATOM      4  N   UNL     1       0.757   9.959  19.396  0.00  0.00    -0.212 N 
ATOM      5  C   UNL     1       0.386  11.098  18.755  0.00  0.00    +0.054 A 
ATOM      6  C   UNL     1      -0.494  11.722  19.633  0.00  0.00    +0.065 A 
ATOM      7  N   UNL     1      -0.671  10.963  20.784  0.00  0.00    -0.225 NA
ATOM      8  C   UNL     1       0.105   9.935  20.581  0.00  0.00    +0.197 A 
ATOM      9  S   UNL     1       0.527   8.521  21.442  0.00  0.00    -0.013 S 
ATOM     10  H   UNL     1       2.816   6.780  19.191  0.00  0.00    +0.148 HD
ATOM     11  H   UNL     1       0.759  11.359  17.777  0.00  0.00    +0.085 HD
ENDROOT
BRANCH   6  12
ATOM     12  C   UNL     1      -1.208  13.021  19.451  0.00  0.00    +0.003 C 
ATOM     13  C   UNL     1      -0.321  14.241  19.740  0.00  0.00    -0.045 C 
ATOM     14  C   UNL     1      -1.267  15.265  20.352  0.00  0.00    -0.052 C 
ATOM     15  C   UNL     1      -2.173  14.409  21.220  0.00  0.00    -0.052 C 
ATOM     16  C   UNL     1      -2.437  13.173  20.367  0.00  0.00    -0.045 C 
ATOM     17  H   UNL     1      -1.554  13.085  18.409  0.00  0.00    +0.036 HD
ATOM     18  H   UNL     1       0.160  14.621  18.832  0.00  0.00    +0.027 HD
ATOM     19  H   UNL     1       0.476  14.004  20.457  0.00  0.00    +0.027 HD
ATOM     20  H   UNL     1      -1.847  15.765  19.566  0.00  0.00    +0.027 HD
ATOM     21  H   UNL     1      -0.738  16.028  20.928  0.00  0.00    +0.027 HD
ATOM     22  H   UNL     1      -1.653  14.123  22.142  0.00  0.00    +0.027 HD
ATOM     23  H   UNL     1      -3.097  14.928  21.497  0.00  0.00    +0.027 HD
ATOM     24  H   UNL     1      -3.327  13.344  19.746  0.00  0.00    +0.027 HD
ATOM     25  H   UNL     1      -2.642  12.293  20.990  0.00  0.00    +0.027 HD
ENDBRANCH   6  12
BRANCH   1  26
ATOM     26  C   UNL     1       2.164   5.841  20.938  0.00  0.00    +0.073 C 
ATOM     27  H   UNL     1       3.085   5.705  21.519  0.00  0.00    +0.054 HD
ATOM     28  H   UNL     1       1.348   6.043  21.644  0.00  0.00    +0.054 HD
BRANCH  26  35
ATOM     29  C   UNL     1       4.357   3.909  17.799  0.00  0.00    +0.059 A 
ATOM     30  C   UNL     1       3.805   2.625  17.267  0.00  0.00    -0.035 A 
ATOM     31  C   UNL     1       2.666   2.166  17.801  0.00  0.00    -0.014 A 
ATOM     32  C   UNL     1       2.049   2.903  18.831  0.00  0.00    +0.178 A 
ATOM     33  N   UNL     1       0.960   2.706  19.541  0.00  0.00    -0.128 NA
ATOM     34  N   UNL     1       0.840   3.757  20.424  0.00  0.00    -0.131 NA
ATOM     35  C   UNL     1       1.857   4.576  20.223  0.00  0.00    +0.172 A 
ATOM     36  N   UNL     1       2.658   4.075  19.227  0.00  0.00    -0.195 N 
ATOM     37  N   UNL     1       3.814   4.619  18.743  0.00  0.00    -0.169 NA
ATOM     38  H   UNL     1       4.331   2.103  16.478  0.00  0.00    +0.064 HD
ATOM     39  H   UNL     1       2.208   1.242  17.468  0.00  0.00    +0.066 HD
BRANCH  29  40
ATOM     40  C   UNL     1       5.645   4.410  17.192  0.00  0.00    -0.021 C 
ATOM     41  H   UNL     1       6.227   4.931  17.956  0.00  0.00    +0.029 HD
ATOM     42  H   UNL     1       6.222   3.557  16.822  0.00  0.00    +0.029 HD
ATOM     43  H   UNL     1       5.458   5.097  16.363  0.00  0.00    +0.029 HD
ENDBRANCH  29  40
ENDBRANCH  26  35
ENDBRANCH   1  26
TORSDOF 4
ENDMDL
MODEL 23
REMARK VINA RESULT:    -6.842      3.026      8.601
REMARK INTER + INTRA:          -8.824
REMARK INTER:                  -8.131
REMARK INTRA:                  -0.693
REMARK UNBOUND:                -0.582
REMARK  Name = 
REMARK  4 active torsions:
REMARK  status: ('A' for Active; 'I' for Inactive)
REMARK    1  A    between atoms: C_1  and  C_2
REMARK    2  A    between atoms: C_8  and  C_9
REMARK    3  A    between atoms: C_9  and  N_10
REMARK    4  A    between atoms: C_15  and  C_16
REMARK                            x       y       z     vdW  Elec       q    Type
REMARK                         _______ _______ _______ _____ _____    ______ ____
ROOT
ATOM      1  N   UNL     1       1.703   7.381  21.021  0.00  0.00    -0.315 N 
ATOM      2  C   UNL     1       0.969   8.510  21.187  0.00  0.00    +0.182 A 
ATOM      3  N   UNL     1       0.358   8.790  22.306  0.00  0.00    -0.142 NA
ATOM      4  N   UNL     1      -0.275   9.965  22.101  0.00  0.00    -0.212 N 
ATOM      5  C   UNL     1      -1.061  10.731  22.903  0.00  0.00    +0.054 A 
ATOM      6  C   UNL     1      -1.420  11.815  22.110  0.00  0.00    +0.065 A 
ATOM      7  N   UNL     1      -0.844  11.721  20.848  0.00  0.00    -0.225 NA
ATOM      8  C   UNL     1      -0.185  10.598  20.909  0.00  0.00    +0.197 A 
ATOM      9  S   UNL     1       0.795   9.686  19.847  0.00  0.00    -0.013 S 
ATOM     10  H   UNL     1       1.831   6.820  21.860  0.00  0.00    +0.148 HD
ATOM     11  H   UNL     1      -1.289  10.455  23.921  0.00  0.00    +0.085 HD
ENDROOT
BRANCH   6  12
ATOM     12  C   UNL     1      -2.288  12.975  22.475  0.00  0.00    +0.003 C 
ATOM     13  C   UNL     1      -1.771  13.753  23.693  0.00  0.00    -0.045 C 
ATOM     14  C   UNL     1      -3.030  14.218  24.411  0.00  0.00    -0.052 C 
ATOM     15  C   UNL     1      -3.964  13.030  24.257  0.00  0.00    -0.052 C 
ATOM     16  C   UNL     1      -3.732  12.567  22.823  0.00  0.00    -0.045 C 
ATOM     17  H   UNL     1      -2.328  13.662  21.617  0.00  0.00    +0.036 HD
ATOM     18  H   UNL     1      -1.134  14.595  23.401  0.00  0.00    +0.027 HD
ATOM     19  H   UNL     1      -1.181  13.114  24.364  0.00  0.00    +0.027 HD
ATOM     20  H   UNL     1      -3.448  15.103  23.915  0.00  0.00    +0.027 HD
ATOM     21  H   UNL     1      -2.844  14.467  25.459  0.00  0.00    +0.027 HD
ATOM     22  H   UNL     1      -3.683  12.234  24.957  0.00  0.00    +0.027 HD
ATOM     23  H   UNL     1      -5.010  13.295  24.444  0.00  0.00    +0.027 HD
ATOM     24  H   UNL     1      -4.424  13.096  22.153  0.00  0.00    +0.027 HD
ATOM     25  H   UNL     1      -3.932  11.494  22.711  0.00  0.00    +0.027 HD
ENDBRANCH   6  12
BRANCH   1  26
ATOM     26  C   UNL     1       2.661   7.113  19.967  0.00  0.00    +0.073 C 
ATOM     27  H   UNL     1       2.811   8.026  19.379  0.00  0.00    +0.054 HD
ATOM     28  H   UNL     1       3.624   6.840  20.418  0.00  0.00    +0.054 HD
BRANCH  26  35
ATOM     29  C   UNL     1       1.620   3.058  20.902  0.00  0.00    +0.059 A 
ATOM     30  C   UNL     1       1.237   2.168  19.763  0.00  0.00    -0.035 A 
ATOM     31  C   UNL     1       1.247   2.692  18.531  0.00  0.00    -0.014 A 
ATOM     32  C   UNL     1       1.609   4.043  18.366  0.00  0.00    +0.178 A 
ATOM     33  N   UNL     1       1.697   4.823  17.310  0.00  0.00    -0.128 NA
ATOM     34  N   UNL     1       2.097   6.069  17.741  0.00  0.00    -0.131 NA
ATOM     35  C   UNL     1       2.250   6.016  19.052  0.00  0.00    +0.172 A 
ATOM     36  N   UNL     1       1.947   4.755  19.498  0.00  0.00    -0.195 N 
ATOM     37  N   UNL     1       1.965   4.307  20.789  0.00  0.00    -0.169 NA
ATOM     38  H   UNL     1       0.963   1.139  19.957  0.00  0.00    +0.064 HD
ATOM     39  H   UNL     1       0.979   2.109  17.657  0.00  0.00    +0.066 HD
BRANCH  29  40
ATOM     40  C   UNL     1       1.598   2.455  22.285  0.00  0.00    -0.021 C 
ATOM     41  H   UNL     1       0.958   1.569  22.283  0.00  0.00    +0.029 HD
ATOM     42  H   UNL     1       2.614   2.161  22.565  0.00  0.00    +0.029 HD
ATOM     43  H   UNL     1       1.217   3.162  23.026  0.00  0.00    +0.029 HD
ENDBRANCH  29  40
ENDBRANCH  26  35
ENDBRANCH   1  26
TORSDOF 4
ENDMDL
MODEL 24
REMARK VINA RESULT:    -6.810      3.310      4.371
REMARK INTER + INTRA:          -8.785
REMARK INTER:                  -8.388
REMARK INTRA:                  -0.397
REMARK UNBOUND:                -0.582
REMARK  Name = 
REMARK  4 active torsions:
REMARK  status: ('A' for Active; 'I' for Inactive)
REMARK    1  A    between atoms: C_1  and  C_2
REMARK    2  A    between atoms: C_8  and  C_9
REMARK    3  A    between atoms: C_9  and  N_10
REMARK    4  A    between atoms: C_15  and  C_16
REMARK                            x       y       z     vdW  Elec       q    Type
REMARK                         _______ _______ _______ _____ _____    ______ ____
ROOT
ATOM      1  N   UNL     1      -0.103  10.680  20.596  0.00  0.00    -0.315 N 
ATOM      2  C   UNL     1       0.679   9.657  20.168  0.00  0.00    +0.182 A 
ATOM      3  N   UNL     1       1.240   9.650  18.989  0.00  0.00    -0.142 NA
ATOM      4  N   UNL     1       1.918   8.485  18.906  0.00  0.00    -0.212 N 
ATOM      5  C   UNL     1       2.678   7.940  17.921  0.00  0.00    +0.054 A 
ATOM      6  C   UNL     1       3.094   6.717  18.435  0.00  0.00    +0.065 A 
ATOM      7  N   UNL     1       2.609   6.528  19.724  0.00  0.00    -0.225 NA
ATOM      8  C   UNL     1       1.914   7.611  19.938  0.00  0.00    +0.197 A 
ATOM      9  S   UNL     1       0.973   8.237  21.219  0.00  0.00    -0.013 S 
ATOM     10  H   UNL     1      -0.136  11.488  19.979  0.00  0.00    +0.148 HD
ATOM     11  H   UNL     1       2.853   8.442  16.981  0.00  0.00    +0.085 HD
ENDROOT
BRANCH   6  12
ATOM     12  C   UNL     1       3.950   5.685  17.777  0.00  0.00    +0.003 C 
ATOM     13  C   UNL     1       3.183   4.403  17.425  0.00  0.00    -0.045 C 
ATOM     14  C   UNL     1       4.198   3.285  17.619  0.00  0.00    -0.052 C 
ATOM     15  C   UNL     1       4.960   3.734  18.854  0.00  0.00    -0.052 C 
ATOM     16  C   UNL     1       5.137   5.235  18.649  0.00  0.00    -0.045 C 
ATOM     17  H   UNL     1       4.356   6.112  16.848  0.00  0.00    +0.036 HD
ATOM     18  H   UNL     1       2.794   4.427  16.401  0.00  0.00    +0.027 HD
ATOM     19  H   UNL     1       2.328   4.242  18.095  0.00  0.00    +0.027 HD
ATOM     20  H   UNL     1       4.869   3.224  16.754  0.00  0.00    +0.027 HD
ATOM     21  H   UNL     1       3.723   2.310  17.755  0.00  0.00    +0.027 HD
ATOM     22  H   UNL     1       4.365   3.548  19.755  0.00  0.00    +0.027 HD
ATOM     23  H   UNL     1       5.918   3.214  18.964  0.00  0.00    +0.027 HD
ATOM     24  H   UNL     1       6.073   5.419  18.102  0.00  0.00    +0.027 HD
ATOM     25  H   UNL     1       5.214   5.763  19.607  0.00  0.00    +0.027 HD
ENDBRANCH   6  12
BRANCH   1  26
ATOM     26  C   UNL     1      -0.515  10.949  21.959  0.00  0.00    +0.073 C 
ATOM     27  H   UNL     1      -1.477  10.457  22.146  0.00  0.00    +0.054 HD
ATOM     28  H   UNL     1       0.223  10.519  22.650  0.00  0.00    +0.054 HD
BRANCH  26  35
ATOM     29  C   UNL     1      -3.594  12.970  24.156  0.00  0.00    +0.059 A 
ATOM     30  C   UNL     1      -3.464  14.452  24.315  0.00  0.00    -0.035 A 
ATOM     31  C   UNL     1      -2.402  15.048  23.760  0.00  0.00    -0.014 A 
ATOM     32  C   UNL     1      -1.463  14.261  23.065  0.00  0.00    +0.178 A 
ATOM     33  N   UNL     1      -0.341  14.551  22.441  0.00  0.00    -0.128 NA
ATOM     34  N   UNL     1       0.176  13.376  21.942  0.00  0.00    -0.131 NA
ATOM     35  C   UNL     1      -0.650  12.396  22.267  0.00  0.00    +0.172 A 
ATOM     36  N   UNL     1      -1.702  12.905  22.986  0.00  0.00    -0.195 N 
ATOM     37  N   UNL     1      -2.753  12.212  23.518  0.00  0.00    -0.169 NA
ATOM     38  H   UNL     1      -4.218  14.999  24.866  0.00  0.00    +0.064 HD
ATOM     39  H   UNL     1      -2.240  16.118  23.835  0.00  0.00    +0.066 HD
BRANCH  29  40
ATOM     40  C   UNL     1      -4.794  12.312  24.792  0.00  0.00    -0.021 C 
ATOM     41  H   UNL     1      -4.833  11.262  24.492  0.00  0.00    +0.029 HD
ATOM     42  H   UNL     1      -4.700  12.369  25.880  0.00  0.00    +0.029 HD
ATOM     43  H   UNL     1      -5.726  12.797  24.491  0.00  0.00    +0.029 HD
ENDBRANCH  29  40
ENDBRANCH  26  35
ENDBRANCH   1  26
TORSDOF 4
ENDMDL
MODEL 25
REMARK VINA RESULT:    -6.785      2.944      4.062
REMARK INTER + INTRA:          -8.755
REMARK INTER:                  -8.235
REMARK INTRA:                  -0.520
REMARK UNBOUND:                -0.582
REMARK  Name = 
REMARK  4 active torsions:
REMARK  status: ('A' for Active; 'I' for Inactive)
REMARK    1  A    between atoms: C_1  and  C_2
REMARK    2  A    between atoms: C_8  and  C_9
REMARK    3  A    between atoms: C_9  and  N_10
REMARK    4  A    between atoms: C_15  and  C_16
REMARK                            x       y       z     vdW  Elec       q    Type
REMARK                         _______ _______ _______ _____ _____    ______ ____
ROOT
ATOM      1  N   UNL     1       0.821  10.061  20.389  0.00  0.00    -0.315 N 
ATOM      2  C   UNL     1       1.410   8.976  19.825  0.00  0.00    +0.182 A 
ATOM      3  N   UNL     1       1.598   7.862  20.479  0.00  0.00    -0.142 NA
ATOM      4  N   UNL     1       2.215   7.024  19.618  0.00  0.00    -0.212 N 
ATOM      5  C   UNL     1       2.654   5.745  19.747  0.00  0.00    +0.054 A 
ATOM      6  C   UNL     1       3.215   5.441  18.511  0.00  0.00    +0.065 A 
ATOM      7  N   UNL     1       3.101   6.515  17.635  0.00  0.00    -0.225 NA
ATOM      8  C   UNL     1       2.506   7.422  18.358  0.00  0.00    +0.197 A 
ATOM      9  S   UNL     1       1.976   9.030  18.127  0.00  0.00    -0.013 S 
ATOM     10  H   UNL     1       0.441   9.912  21.321  0.00  0.00    +0.148 HD
ATOM     11  H   UNL     1       2.539   5.183  20.660  0.00  0.00    +0.085 HD
ENDROOT
BRANCH   6  12
ATOM     12  C   UNL     1       3.863   4.165  18.083  0.00  0.00    +0.003 C 
ATOM     13  C   UNL     1       2.855   3.109  17.607  0.00  0.00    -0.045 C 
ATOM     14  C   UNL     1       3.457   1.782  18.048  0.00  0.00    -0.052 C 
ATOM     15  C   UNL     1       4.049   2.116  19.406  0.00  0.00    -0.052 C 
ATOM     16  C   UNL     1       4.676   3.491  19.204  0.00  0.00    -0.045 C 
ATOM     17  H   UNL     1       4.550   4.386  17.253  0.00  0.00    +0.036 HD
ATOM     18  H   UNL     1       2.703   3.148  16.523  0.00  0.00    +0.027 HD
ATOM     19  H   UNL     1       1.873   3.241  18.080  0.00  0.00    +0.027 HD
ATOM     20  H   UNL     1       4.244   1.470  17.351  0.00  0.00    +0.027 HD
ATOM     21  H   UNL     1       2.710   0.985  18.104  0.00  0.00    +0.027 HD
ATOM     22  H   UNL     1       3.257   2.174  20.161  0.00  0.00    +0.027 HD
ATOM     23  H   UNL     1       4.781   1.370  19.736  0.00  0.00    +0.027 HD
ATOM     24  H   UNL     1       5.716   3.371  18.868  0.00  0.00    +0.027 HD
ATOM     25  H   UNL     1       4.703   4.060  20.141  0.00  0.00    +0.027 HD
ENDBRANCH   6  12
BRANCH   1  26
ATOM     26  C   UNL     1       0.284  11.216  19.699  0.00  0.00    +0.073 C 
ATOM     27  H   UNL     1       0.759  11.297  18.713  0.00  0.00    +0.054 HD
ATOM     28  H   UNL     1      -0.794  11.074  19.542  0.00  0.00    +0.054 HD
BRANCH  26  35
ATOM     29  C   UNL     1      -1.954  12.819  22.988  0.00  0.00    +0.059 A 
ATOM     30  C   UNL     1      -1.518  14.141  23.535  0.00  0.00    -0.035 A 
ATOM     31  C   UNL     1      -0.465  14.736  22.962  0.00  0.00    -0.014 A 
ATOM     32  C   UNL     1       0.181  14.096  21.887  0.00  0.00    +0.178 A 
ATOM     33  N   UNL     1       1.221  14.419  21.149  0.00  0.00    -0.128 NA
ATOM     34  N   UNL     1       1.415  13.407  20.234  0.00  0.00    -0.131 NA
ATOM     35  C   UNL     1       0.481  12.494  20.432  0.00  0.00    +0.172 A 
ATOM     36  N   UNL     1      -0.323  12.881  21.474  0.00  0.00    -0.195 N 
ATOM     37  N   UNL     1      -1.388  12.200  21.995  0.00  0.00    -0.169 NA
ATOM     38  H   UNL     1      -2.054  14.578  24.368  0.00  0.00    +0.064 HD
ATOM     39  H   UNL     1      -0.091  15.695  23.306  0.00  0.00    +0.066 HD
BRANCH  29  40
ATOM     40  C   UNL     1      -3.139  12.157  23.648  0.00  0.00    -0.021 C 
ATOM     41  H   UNL     1      -4.031  12.767  23.485  0.00  0.00    +0.029 HD
ATOM     42  H   UNL     1      -3.294  11.171  23.201  0.00  0.00    +0.029 HD
ATOM     43  H   UNL     1      -2.986  12.038  24.723  0.00  0.00    +0.029 HD
ENDBRANCH  29  40
ENDBRANCH  26  35
ENDBRANCH   1  26
TORSDOF 4
ENDMDL
MODEL 26
REMARK VINA RESULT:    -6.774      3.115      4.582
REMARK INTER + INTRA:          -8.742
REMARK INTER:                  -8.198
REMARK INTRA:                  -0.544
REMARK UNBOUND:                -0.582
REMARK  Name = 
REMARK  4 active torsions:
REMARK  status: ('A' for Active; 'I' for Inactive)
REMARK    1  A    between atoms: C_1  and  C_2
REMARK    2  A    between atoms: C_8  and  C_9
REMARK    3  A    between atoms: C_9  and  N_10
REMARK    4  A    between atoms: C_15  and  C_16
REMARK                            x       y       z     vdW  Elec       q    Type
REMARK                         _______ _______ _______ _____ _____    ______ ____
ROOT
ATOM      1  N   UNL     1       0.722   8.906  20.489  0.00  0.00    -0.315 N 
ATOM      2  C   UNL     1       1.609   8.176  19.765  0.00  0.00    +0.182 A 
ATOM      3  N   UNL     1       2.149   7.078  20.221  0.00  0.00    -0.142 NA
ATOM      4  N   UNL     1       2.978   6.641  19.250  0.00  0.00    -0.212 N 
ATOM      5  C   UNL     1       3.797   5.559  19.169  0.00  0.00    +0.054 A 
ATOM      6  C   UNL     1       4.398   5.668  17.919  0.00  0.00    +0.065 A 
ATOM      7  N   UNL     1       3.935   6.790  17.241  0.00  0.00    -0.225 NA
ATOM      8  C   UNL     1       3.102   7.324  18.089  0.00  0.00    +0.197 A 
ATOM      9  S   UNL     1       2.093   8.702  18.123  0.00  0.00    -0.013 S 
ATOM     10  H   UNL     1       0.428   8.485  21.367  0.00  0.00    +0.148 HD
ATOM     11  H   UNL     1       3.882   4.837  19.966  0.00  0.00    +0.085 HD
ENDROOT
BRANCH   6  12
ATOM     12  C   UNL     1       5.402   4.754  17.298  0.00  0.00    +0.003 C 
ATOM     13  C   UNL     1       6.643   5.491  16.775  0.00  0.00    -0.045 C 
ATOM     14  C   UNL     1       7.053   4.713  15.531  0.00  0.00    -0.052 C 
ATOM     15  C   UNL     1       5.717   4.352  14.905  0.00  0.00    -0.052 C 
ATOM     16  C   UNL     1       4.847   3.967  16.097  0.00  0.00    -0.045 C 
ATOM     17  H   UNL     1       5.727   4.027  18.057  0.00  0.00    +0.036 HD
ATOM     18  H   UNL     1       7.446   5.521  17.519  0.00  0.00    +0.027 HD
ATOM     19  H   UNL     1       6.414   6.529  16.498  0.00  0.00    +0.027 HD
ATOM     20  H   UNL     1       7.603   3.807  15.813  0.00  0.00    +0.027 HD
ATOM     21  H   UNL     1       7.681   5.303  14.859  0.00  0.00    +0.027 HD
ATOM     22  H   UNL     1       5.289   5.224  14.396  0.00  0.00    +0.027 HD
ATOM     23  H   UNL     1       5.805   3.540  14.175  0.00  0.00    +0.027 HD
ATOM     24  H   UNL     1       4.955   2.890  16.293  0.00  0.00    +0.027 HD
ATOM     25  H   UNL     1       3.785   4.152  15.893  0.00  0.00    +0.027 HD
ENDBRANCH   6  12
BRANCH   1  26
ATOM     26  C   UNL     1      -0.163   9.940  19.993  0.00  0.00    +0.073 C 
ATOM     27  H   UNL     1       0.127  10.198  18.966  0.00  0.00    +0.054 HD
ATOM     28  H   UNL     1      -1.190   9.552  19.965  0.00  0.00    +0.054 HD
BRANCH  26  35
ATOM     29  C   UNL     1       2.144  13.519  19.480  0.00  0.00    +0.059 A 
ATOM     30  C   UNL     1       1.935  14.618  20.473  0.00  0.00    -0.035 A 
ATOM     31  C   UNL     1       1.048  14.412  21.454  0.00  0.00    -0.014 A 
ATOM     32  C   UNL     1       0.356  13.187  21.504  0.00  0.00    +0.178 A 
ATOM     33  N   UNL     1      -0.560  12.710  22.318  0.00  0.00    -0.128 NA
ATOM     34  N   UNL     1      -0.889  11.444  21.883  0.00  0.00    -0.131 NA
ATOM     35  C   UNL     1      -0.157  11.177  20.816  0.00  0.00    +0.172 A 
ATOM     36  N   UNL     1       0.644  12.253  20.530  0.00  0.00    -0.195 N 
ATOM     37  N   UNL     1       1.529  12.374  19.496  0.00  0.00    -0.169 NA
ATOM     38  H   UNL     1       2.494  15.540  20.376  0.00  0.00    +0.064 HD
ATOM     39  H   UNL     1       0.842  15.164  22.209  0.00  0.00    +0.066 HD
BRANCH  29  40
ATOM     40  C   UNL     1       3.142  13.769  18.376  0.00  0.00    -0.021 C 
ATOM     41  H   UNL     1       3.387  14.833  18.343  0.00  0.00    +0.029 HD
ATOM     42  H   UNL     1       4.053  13.199  18.581  0.00  0.00    +0.029 HD
ATOM     43  H   UNL     1       2.748  13.469  17.402  0.00  0.00    +0.029 HD
ENDBRANCH  29  40
ENDBRANCH  26  35
ENDBRANCH   1  26
TORSDOF 4
ENDMDL
MODEL 27
REMARK VINA RESULT:    -6.766      2.824      4.045
REMARK INTER + INTRA:          -8.732
REMARK INTER:                  -8.057
REMARK INTRA:                  -0.675
REMARK UNBOUND:                -0.582
REMARK  Name = 
REMARK  4 active torsions:
REMARK  status: ('A' for Active; 'I' for Inactive)
REMARK    1  A    between atoms: C_1  and  C_2
REMARK    2  A    between atoms: C_8  and  C_9
REMARK    3  A    between atoms: C_9  and  N_10
REMARK    4  A    between atoms: C_15  and  C_16
REMARK                            x       y       z     vdW  Elec       q    Type
REMARK                         _______ _______ _______ _____ _____    ______ ____
ROOT
ATOM      1  N   UNL     1       0.673   9.927  18.977  0.00  0.00    -0.315 N 
ATOM      2  C   UNL     1       1.547   8.893  18.891  0.00  0.00    +0.182 A 
ATOM      3  N   UNL     1       2.330   8.720  17.861  0.00  0.00    -0.142 NA
ATOM      4  N   UNL     1       3.037   7.598  18.114  0.00  0.00    -0.212 N 
ATOM      5  C   UNL     1       3.989   6.940  17.402  0.00  0.00    +0.054 A 
ATOM      6  C   UNL     1       4.323   5.845  18.192  0.00  0.00    +0.065 A 
ATOM      7  N   UNL     1       3.596   5.848  19.378  0.00  0.00    -0.225 NA
ATOM      8  C   UNL     1       2.849   6.910  19.263  0.00  0.00    +0.197 A 
ATOM      9  S   UNL     1       1.660   7.687  20.211  0.00  0.00    -0.013 S 
ATOM     10  H   UNL     1       0.744  10.618  18.233  0.00  0.00    +0.148 HD
ATOM     11  H   UNL     1       4.335   7.286  16.440  0.00  0.00    +0.085 HD
ENDROOT
BRANCH   6  12
ATOM     12  C   UNL     1       5.315   4.768  17.900  0.00  0.00    +0.003 C 
ATOM     13  C   UNL     1       6.734   5.113  18.375  0.00  0.00    -0.045 C 
ATOM     14  C   UNL     1       7.649   4.479  17.337  0.00  0.00    -0.052 C 
ATOM     15  C   UNL     1       6.900   4.720  16.037  0.00  0.00    -0.052 C 
ATOM     16  C   UNL     1       5.444   4.450  16.399  0.00  0.00    -0.045 C 
ATOM     17  H   UNL     1       4.993   3.850  18.413  0.00  0.00    +0.036 HD
ATOM     18  H   UNL     1       6.932   4.730  19.382  0.00  0.00    +0.027 HD
ATOM     19  H   UNL     1       6.903   6.198  18.399  0.00  0.00    +0.027 HD
ATOM     20  H   UNL     1       7.754   3.404  17.527  0.00  0.00    +0.027 HD
ATOM     21  H   UNL     1       8.646   4.926  17.332  0.00  0.00    +0.027 HD
ATOM     22  H   UNL     1       7.020   5.762  15.718  0.00  0.00    +0.027 HD
ATOM     23  H   UNL     1       7.254   4.073  15.227  0.00  0.00    +0.027 HD
ATOM     24  H   UNL     1       5.220   3.386  16.238  0.00  0.00    +0.027 HD
ATOM     25  H   UNL     1       4.761   5.024  15.760  0.00  0.00    +0.027 HD
ENDBRANCH   6  12
BRANCH   1  26
ATOM     26  C   UNL     1      -0.006  10.397  20.168  0.00  0.00    +0.073 C 
ATOM     27  H   UNL     1      -0.828   9.711  20.404  0.00  0.00    +0.054 HD
ATOM     28  H   UNL     1       0.697  10.383  21.012  0.00  0.00    +0.054 HD
BRANCH  26  35
ATOM     29  C   UNL     1       1.950  13.966  18.816  0.00  0.00    +0.059 A 
ATOM     30  C   UNL     1       1.141  15.223  18.788  0.00  0.00    -0.035 A 
ATOM     31  C   UNL     1      -0.135  15.153  19.188  0.00  0.00    -0.014 A 
ATOM     32  C   UNL     1      -0.652  13.912  19.607  0.00  0.00    +0.178 A 
ATOM     33  N   UNL     1      -1.839  13.536  20.032  0.00  0.00    -0.128 NA
ATOM     34  N   UNL     1      -1.779  12.186  20.301  0.00  0.00    -0.131 NA
ATOM     35  C   UNL     1      -0.551  11.773  20.041  0.00  0.00    +0.172 A 
ATOM     36  N   UNL     1       0.201  12.829  19.591  0.00  0.00    -0.195 N 
ATOM     37  N   UNL     1       1.510  12.805  19.201  0.00  0.00    -0.169 NA
ATOM     38  H   UNL     1       1.596  16.145  18.449  0.00  0.00    +0.064 HD
ATOM     39  H   UNL     1      -0.783  16.023  19.193  0.00  0.00    +0.066 HD
BRANCH  29  40
ATOM     40  C   UNL     1       3.385  14.060  18.356  0.00  0.00    -0.021 C 
ATOM     41  H   UNL     1       4.044  13.695  19.148  0.00  0.00    +0.029 HD
ATOM     42  H   UNL     1       3.518  13.438  17.466  0.00  0.00    +0.029 HD
ATOM     43  H   UNL     1       3.663  15.088  18.115  0.00  0.00    +0.029 HD
ENDBRANCH  29  40
ENDBRANCH  26  35
ENDBRANCH   1  26
TORSDOF 4
ENDMDL
MODEL 28
REMARK VINA RESULT:    -6.702      6.856      9.448
REMARK INTER + INTRA:          -8.655
REMARK INTER:                  -8.073
REMARK INTRA:                  -0.582
REMARK UNBOUND:                -0.582
REMARK  Name = 
REMARK  4 active torsions:
REMARK  status: ('A' for Active; 'I' for Inactive)
REMARK    1  A    between atoms: C_1  and  C_2
REMARK    2  A    between atoms: C_8  and  C_9
REMARK    3  A    between atoms: C_9  and  N_10
REMARK    4  A    between atoms: C_15  and  C_16
REMARK                            x       y       z     vdW  Elec       q    Type
REMARK                         _______ _______ _______ _____ _____    ______ ____
ROOT
ATOM      1  N   UNL     1       5.019   5.279  16.406  0.00  0.00    -0.315 N 
ATOM      2  C   UNL     1       5.930   6.098  16.991  0.00  0.00    +0.182 A 
ATOM      3  N   UNL     1       6.060   7.354  16.655  0.00  0.00    -0.142 NA
ATOM      4  N   UNL     1       7.058   7.842  17.422  0.00  0.00    -0.212 N 
ATOM      5  C   UNL     1       7.625   9.074  17.504  0.00  0.00    +0.054 A 
ATOM      6  C   UNL     1       8.613   8.941  18.474  0.00  0.00    +0.065 A 
ATOM      7  N   UNL     1       8.633   7.650  18.989  0.00  0.00    -0.225 NA
ATOM      8  C   UNL     1       7.691   7.050  18.317  0.00  0.00    +0.197 A 
ATOM      9  S   UNL     1       7.023   5.478  18.267  0.00  0.00    -0.013 S 
ATOM     10  H   UNL     1       4.374   5.735  15.765  0.00  0.00    +0.148 HD
ATOM     11  H   UNL     1       7.297   9.904  16.897  0.00  0.00    +0.085 HD
ENDROOT
BRANCH   6  12
ATOM     12  C   UNL     1       9.562   9.982  18.970  0.00  0.00    +0.003 C 
ATOM     13  C   UNL     1       9.151  10.574  20.326  0.00  0.00    -0.045 C 
ATOM     14  C   UNL     1       9.587  12.031  20.254  0.00  0.00    -0.052 C 
ATOM     15  C   UNL     1       9.270  12.406  18.816  0.00  0.00    -0.052 C 
ATOM     16  C   UNL     1       9.701  11.182  18.015  0.00  0.00    -0.045 C 
ATOM     17  H   UNL     1      10.555   9.522  19.081  0.00  0.00    +0.036 HD
ATOM     18  H   UNL     1       9.623  10.048  21.162  0.00  0.00    +0.027 HD
ATOM     19  H   UNL     1       8.065  10.524  20.479  0.00  0.00    +0.027 HD
ATOM     20  H   UNL     1      10.663  12.117  20.445  0.00  0.00    +0.027 HD
ATOM     21  H   UNL     1       9.057  12.660  20.974  0.00  0.00    +0.027 HD
ATOM     22  H   UNL     1       8.193  12.571  18.696  0.00  0.00    +0.027 HD
ATOM     23  H   UNL     1       9.791  13.316  18.498  0.00  0.00    +0.027 HD
ATOM     24  H   UNL     1      10.756  11.289  17.727  0.00  0.00    +0.027 HD
ATOM     25  H   UNL     1       9.122  11.086  17.089  0.00  0.00    +0.027 HD
ENDBRANCH   6  12
BRANCH   1  26
ATOM     26  C   UNL     1       4.571   3.989  16.892  0.00  0.00    +0.073 C 
ATOM     27  H   UNL     1       4.265   3.372  16.038  0.00  0.00    +0.054 HD
ATOM     28  H   UNL     1       5.408   3.482  17.390  0.00  0.00    +0.054 HD
BRANCH  26  35
ATOM     29  C   UNL     1       4.130   2.102  20.718  0.00  0.00    +0.059 A 
ATOM     30  C   UNL     1       2.871   2.376  21.477  0.00  0.00    -0.035 A 
ATOM     31  C   UNL     1       1.967   3.186  20.913  0.00  0.00    -0.014 A 
ATOM     32  C   UNL     1       2.241   3.742  19.649  0.00  0.00    +0.178 A 
ATOM     33  N   UNL     1       1.570   4.561  18.867  0.00  0.00    -0.128 NA
ATOM     34  N   UNL     1       2.328   4.775  17.737  0.00  0.00    -0.131 NA
ATOM     35  C   UNL     1       3.441   4.073  17.853  0.00  0.00    +0.172 A 
ATOM     36  N   UNL     1       3.437   3.405  19.051  0.00  0.00    -0.195 N 
ATOM     37  N   UNL     1       4.416   2.590  19.548  0.00  0.00    -0.169 NA
ATOM     38  H   UNL     1       2.723   1.922  22.449  0.00  0.00    +0.064 HD
ATOM     39  H   UNL     1       1.031   3.432  21.405  0.00  0.00    +0.066 HD
BRANCH  29  40
ATOM     40  C   UNL     1       5.142   1.191  21.369  0.00  0.00    -0.021 C 
ATOM     41  H   UNL     1       4.727   0.793  22.298  0.00  0.00    +0.029 HD
ATOM     42  H   UNL     1       5.365   0.361  20.693  0.00  0.00    +0.029 HD
ATOM     43  H   UNL     1       6.071   1.720  21.598  0.00  0.00    +0.029 HD
ENDBRANCH  29  40
ENDBRANCH  26  35
ENDBRANCH   1  26
TORSDOF 4
ENDMDL
MODEL 29
REMARK VINA RESULT:    -6.669      1.574      2.036
REMARK INTER + INTRA:          -8.616
REMARK INTER:                  -7.950
REMARK INTRA:                  -0.666
REMARK UNBOUND:                -0.582
REMARK  Name = 
REMARK  4 active torsions:
REMARK  status: ('A' for Active; 'I' for Inactive)
REMARK    1  A    between atoms: C_1  and  C_2
REMARK    2  A    between atoms: C_8  and  C_9
REMARK    3  A    between atoms: C_9  and  N_10
REMARK    4  A    between atoms: C_15  and  C_16
REMARK                            x       y       z     vdW  Elec       q    Type
REMARK                         _______ _______ _______ _____ _____    ______ ____
ROOT
ATOM      1  N   UNL     1       0.161  12.090  21.166  0.00  0.00    -0.315 N 
ATOM      2  C   UNL     1       0.622  10.905  20.691  0.00  0.00    +0.182 A 
ATOM      3  N   UNL     1       0.794   9.862  21.458  0.00  0.00    -0.142 NA
ATOM      4  N   UNL     1       1.272   8.887  20.656  0.00  0.00    -0.212 N 
ATOM      5  C   UNL     1       1.634   7.600  20.903  0.00  0.00    +0.054 A 
ATOM      6  C   UNL     1       2.058   7.114  19.670  0.00  0.00    +0.065 A 
ATOM      7  N   UNL     1       1.937   8.086  18.684  0.00  0.00    -0.225 NA
ATOM      8  C   UNL     1       1.472   9.113  19.338  0.00  0.00    +0.197 A 
ATOM      9  S   UNL     1       1.033  10.720  18.958  0.00  0.00    -0.013 S 
ATOM     10  H   UNL     1      -0.141  12.080  22.137  0.00  0.00    +0.148 HD
ATOM     11  H   UNL     1       1.565   7.158  21.884  0.00  0.00    +0.085 HD
ENDROOT
BRANCH   6  12
ATOM     12  C   UNL     1       2.577   5.751  19.348  0.00  0.00    +0.003 C 
ATOM     13  C   UNL     1       2.031   5.198  18.024  0.00  0.00    -0.045 C 
ATOM     14  C   UNL     1       1.897   3.700  18.263  0.00  0.00    -0.052 C 
ATOM     15  C   UNL     1       1.407   3.631  19.699  0.00  0.00    -0.052 C 
ATOM     16  C   UNL     1       2.226   4.699  20.417  0.00  0.00    -0.045 C 
ATOM     17  H   UNL     1       3.673   5.805  19.274  0.00  0.00    +0.036 HD
ATOM     18  H   UNL     1       2.696   5.418  17.183  0.00  0.00    +0.027 HD
ATOM     19  H   UNL     1       1.046   5.619  17.782  0.00  0.00    +0.027 HD
ATOM     20  H   UNL     1       2.873   3.209  18.165  0.00  0.00    +0.027 HD
ATOM     21  H   UNL     1       1.202   3.227  17.564  0.00  0.00    +0.027 HD
ATOM     22  H   UNL     1       0.341   3.881  19.749  0.00  0.00    +0.027 HD
ATOM     23  H   UNL     1       1.545   2.637  20.139  0.00  0.00    +0.027 HD
ATOM     24  H   UNL     1       3.156   4.251  20.796  0.00  0.00    +0.027 HD
ATOM     25  H   UNL     1       1.686   5.103  21.282  0.00  0.00    +0.027 HD
ENDBRANCH   6  12
BRANCH   1  26
ATOM     26  C   UNL     1      -0.358  13.197  20.388  0.00  0.00    +0.073 C 
ATOM     27  H   UNL     1       0.177  14.113  20.667  0.00  0.00    +0.054 HD
ATOM     28  H   UNL     1      -0.169  13.008  19.323  0.00  0.00    +0.054 HD
BRANCH  26  35
ATOM     29  C   UNL     1      -3.650  11.287  18.412  0.00  0.00    +0.059 A 
ATOM     30  C   UNL     1      -5.028  11.716  18.804  0.00  0.00    -0.035 A 
ATOM     31  C   UNL     1      -5.143  12.666  19.740  0.00  0.00    -0.014 A 
ATOM     32  C   UNL     1      -3.975  13.209  20.309  0.00  0.00    +0.178 A 
ATOM     33  N   UNL     1      -3.773  14.122  21.235  0.00  0.00    -0.128 NA
ATOM     34  N   UNL     1      -2.412  14.253  21.403  0.00  0.00    -0.131 NA
ATOM     35  C   UNL     1      -1.816  13.421  20.567  0.00  0.00    +0.172 A 
ATOM     36  N   UNL     1      -2.764  12.730  19.856  0.00  0.00    -0.195 N 
ATOM     37  N   UNL     1      -2.550  11.767  18.910  0.00  0.00    -0.169 NA
ATOM     38  H   UNL     1      -5.887  11.254  18.332  0.00  0.00    +0.064 HD
ATOM     39  H   UNL     1      -6.109  13.026  20.076  0.00  0.00    +0.066 HD
BRANCH  29  40
ATOM     40  C   UNL     1      -3.537  10.210  17.360  0.00  0.00    -0.021 C 
ATOM     41  H   UNL     1      -2.975   9.365  17.766  0.00  0.00    +0.029 HD
ATOM     42  H   UNL     1      -4.540   9.872  17.084  0.00  0.00    +0.029 HD
ATOM     43  H   UNL     1      -3.026  10.574  16.465  0.00  0.00    +0.029 HD
ENDBRANCH  29  40
ENDBRANCH  26  35
ENDBRANCH   1  26
TORSDOF 4
ENDMDL
MODEL 30
REMARK VINA RESULT:    -6.596      2.092      8.334
REMARK INTER + INTRA:          -8.528
REMARK INTER:                  -8.044
REMARK INTRA:                  -0.484
REMARK UNBOUND:                -0.582
REMARK  Name = 
REMARK  4 active torsions:
REMARK  status: ('A' for Active; 'I' for Inactive)
REMARK    1  A    between atoms: C_1  and  C_2
REMARK    2  A    between atoms: C_8  and  C_9
REMARK    3  A    between atoms: C_9  and  N_10
REMARK    4  A    between atoms: C_15  and  C_16
REMARK                            x       y       z     vdW  Elec       q    Type
REMARK                         _______ _______ _______ _____ _____    ______ ____
ROOT
ATOM      1  N   UNL     1       1.127   9.178  17.629  0.00  0.00    -0.315 N 
ATOM      2  C   UNL     1       0.291  10.023  18.284  0.00  0.00    +0.182 A 
ATOM      3  N   UNL     1      -0.966  10.159  17.955  0.00  0.00    -0.142 NA
ATOM      4  N   UNL     1      -1.473  11.082  18.800  0.00  0.00    -0.212 N 
ATOM      5  C   UNL     1      -2.715  11.620  18.924  0.00  0.00    +0.054 A 
ATOM      6  C   UNL     1      -2.602  12.525  19.973  0.00  0.00    +0.065 A 
ATOM      7  N   UNL     1      -1.313  12.523  20.494  0.00  0.00    -0.225 NA
ATOM      8  C   UNL     1      -0.695  11.651  19.748  0.00  0.00    +0.197 A 
ATOM      9  S   UNL     1       0.888  11.015  19.650  0.00  0.00    -0.013 S 
ATOM     10  H   UNL     1       0.684   8.581  16.934  0.00  0.00    +0.148 HD
ATOM     11  H   UNL     1      -3.537  11.330  18.287  0.00  0.00    +0.085 HD
ENDROOT
BRANCH   6  12
ATOM     12  C   UNL     1      -3.660  13.412  20.542  0.00  0.00    +0.003 C 
ATOM     13  C   UNL     1      -3.154  14.284  21.700  0.00  0.00    -0.045 C 
ATOM     14  C   UNL     1      -4.345  14.396  22.642  0.00  0.00    -0.052 C 
ATOM     15  C   UNL     1      -4.956  13.006  22.577  0.00  0.00    -0.052 C 
ATOM     16  C   UNL     1      -4.868  12.637  21.100  0.00  0.00    -0.045 C 
ATOM     17  H   UNL     1      -4.024  14.075  19.743  0.00  0.00    +0.036 HD
ATOM     18  H   UNL     1      -2.815  15.267  21.354  0.00  0.00    +0.027 HD
ATOM     19  H   UNL     1      -2.313  13.815  22.227  0.00  0.00    +0.027 HD
ATOM     20  H   UNL     1      -5.055  15.146  22.272  0.00  0.00    +0.027 HD
ATOM     21  H   UNL     1      -4.049  14.673  23.657  0.00  0.00    +0.027 HD
ATOM     22  H   UNL     1      -4.364  12.304  23.174  0.00  0.00    +0.027 HD
ATOM     23  H   UNL     1      -5.987  12.987  22.949  0.00  0.00    +0.027 HD
ATOM     24  H   UNL     1      -5.778  12.975  20.585  0.00  0.00    +0.027 HD
ATOM     25  H   UNL     1      -4.804  11.551  20.963  0.00  0.00    +0.027 HD
ENDBRANCH   6  12
BRANCH   1  26
ATOM     26  C   UNL     1       2.423   8.712  18.082  0.00  0.00    +0.073 C 
ATOM     27  H   UNL     1       3.053   8.503  17.209  0.00  0.00    +0.054 HD
ATOM     28  H   UNL     1       2.908   9.507  18.664  0.00  0.00    +0.054 HD
BRANCH  26  35
ATOM     29  C   UNL     1       4.150   4.847  17.395  0.00  0.00    +0.059 A 
ATOM     30  C   UNL     1       3.920   3.798  18.436  0.00  0.00    -0.035 A 
ATOM     31  C   UNL     1       3.190   4.132  19.507  0.00  0.00    -0.014 A 
ATOM     32  C   UNL     1       2.683   5.442  19.608  0.00  0.00    +0.178 A 
ATOM     33  N   UNL     1       1.962   6.054  20.522  0.00  0.00    -0.128 NA
ATOM     34  N   UNL     1       1.760   7.349  20.099  0.00  0.00    -0.131 NA
ATOM     35  C   UNL     1       2.356   7.493  18.928  0.00  0.00    +0.172 A 
ATOM     36  N   UNL     1       2.962   6.313  18.576  0.00  0.00    -0.195 N 
ATOM     37  N   UNL     1       3.694   6.063  17.449  0.00  0.00    -0.169 NA
ATOM     38  H   UNL     1       4.343   2.811  18.303  0.00  0.00    +0.064 HD
ATOM     39  H   UNL     1       2.984   3.425  20.304  0.00  0.00    +0.066 HD
BRANCH  29  40
ATOM     40  C   UNL     1       4.979   4.457  16.196  0.00  0.00    -0.021 C 
ATOM     41  H   UNL     1       5.294   3.416  16.296  0.00  0.00    +0.029 HD
ATOM     42  H   UNL     1       4.373   4.561  15.291  0.00  0.00    +0.029 HD
ATOM     43  H   UNL     1       5.869   5.085  16.101  0.00  0.00    +0.029 HD
ENDBRANCH  29  40
ENDBRANCH  26  35
ENDBRANCH   1  26
TORSDOF 4
ENDMDL
MODEL 31
REMARK VINA RESULT:    -6.448      2.857      8.706
REMARK INTER + INTRA:          -8.350
REMARK INTER:                  -8.260
REMARK INTRA:                  -0.089
REMARK UNBOUND:                -0.582
REMARK  Name = 
REMARK  4 active torsions:
REMARK  status: ('A' for Active; 'I' for Inactive)
REMARK    1  A    between atoms: C_1  and  C_2
REMARK    2  A    between atoms: C_8  and  C_9
REMARK    3  A    between atoms: C_9  and  N_10
REMARK    4  A    between atoms: C_15  and  C_16
REMARK                            x       y       z     vdW  Elec       q    Type
REMARK                         _______ _______ _______ _____ _____    ______ ____
ROOT
ATOM      1  N   UNL     1       1.823   5.927  20.959  0.00  0.00    -0.315 N 
ATOM      2  C   UNL     1       1.605   7.149  20.410  0.00  0.00    +0.182 A 
ATOM      3  N   UNL     1       0.774   8.012  20.930  0.00  0.00    -0.142 NA
ATOM      4  N   UNL     1       0.802   9.091  20.117  0.00  0.00    -0.212 N 
ATOM      5  C   UNL     1       0.146  10.280  20.158  0.00  0.00    +0.054 A 
ATOM      6  C   UNL     1       0.594  10.965  19.034  0.00  0.00    +0.065 A 
ATOM      7  N   UNL     1       1.525  10.211  18.329  0.00  0.00    -0.225 NA
ATOM      8  C   UNL     1       1.596   9.109  19.023  0.00  0.00    +0.197 A 
ATOM      9  S   UNL     1       2.456   7.637  18.912  0.00  0.00    -0.013 S 
ATOM     10  H   UNL     1       1.377   5.771  21.860  0.00  0.00    +0.148 HD
ATOM     11  H   UNL     1      -0.551  10.529  20.943  0.00  0.00    +0.085 HD
ENDROOT
BRANCH   6  12
ATOM     12  C   UNL     1       0.198  12.328  18.568  0.00  0.00    +0.003 C 
ATOM     13  C   UNL     1       1.352  13.340  18.622  0.00  0.00    -0.045 C 
ATOM     14  C   UNL     1       0.685  14.660  18.984  0.00  0.00    -0.052 C 
ATOM     15  C   UNL     1      -0.375  14.237  19.987  0.00  0.00    -0.052 C 
ATOM     16  C   UNL     1      -0.940  12.948  19.401  0.00  0.00    -0.045 C 
ATOM     17  H   UNL     1      -0.148  12.253  17.527  0.00  0.00    +0.036 HD
ATOM     18  H   UNL     1       1.887  13.401  17.668  0.00  0.00    +0.027 HD
ATOM     19  H   UNL     1       2.088  13.078  19.394  0.00  0.00    +0.027 HD
ATOM     20  H   UNL     1       0.219  15.107  18.098  0.00  0.00    +0.027 HD
ATOM     21  H   UNL     1       1.391  15.382  19.404  0.00  0.00    +0.027 HD
ATOM     22  H   UNL     1       0.085  14.036  20.961  0.00  0.00    +0.027 HD
ATOM     23  H   UNL     1      -1.146  15.003  20.126  0.00  0.00    +0.027 HD
ATOM     24  H   UNL     1      -1.780  13.189  18.735  0.00  0.00    +0.027 HD
ATOM     25  H   UNL     1      -1.329  12.289  20.186  0.00  0.00    +0.027 HD
ENDBRANCH   6  12
BRANCH   1  26
ATOM     26  C   UNL     1       2.921   5.026  20.669  0.00  0.00    +0.073 C 
ATOM     27  H   UNL     1       3.868   5.536  20.881  0.00  0.00    +0.054 HD
ATOM     28  H   UNL     1       2.854   4.152  21.330  0.00  0.00    +0.054 HD
BRANCH  26  35
ATOM     29  C   UNL     1       6.206   4.845  17.918  0.00  0.00    +0.059 A 
ATOM     30  C   UNL     1       5.928   4.300  16.552  0.00  0.00    -0.035 A 
ATOM     31  C   UNL     1       4.677   3.910  16.279  0.00  0.00    -0.014 A 
ATOM     32  C   UNL     1       3.692   4.023  17.279  0.00  0.00    +0.178 A 
ATOM     33  N   UNL     1       2.412   3.719  17.312  0.00  0.00    -0.128 NA
ATOM     34  N   UNL     1       1.937   4.042  18.564  0.00  0.00    -0.131 NA
ATOM     35  C   UNL     1       2.940   4.544  19.264  0.00  0.00    +0.172 A 
ATOM     36  N   UNL     1       4.077   4.548  18.495  0.00  0.00    -0.195 N 
ATOM     37  N   UNL     1       5.323   4.970  18.863  0.00  0.00    -0.169 NA
ATOM     38  H   UNL     1       6.731   4.233  15.830  0.00  0.00    +0.064 HD
ATOM     39  H   UNL     1       4.401   3.503  15.312  0.00  0.00    +0.066 HD
BRANCH  29  40
ATOM     40  C   UNL     1       7.622   5.274  18.213  0.00  0.00    -0.021 C 
ATOM     41  H   UNL     1       7.606   6.164  18.847  0.00  0.00    +0.029 HD
ATOM     42  H   UNL     1       8.139   4.468  18.742  0.00  0.00    +0.029 HD
ATOM     43  H   UNL     1       8.171   5.506  17.297  0.00  0.00    +0.029 HD
ENDBRANCH  29  40
ENDBRANCH  26  35
ENDBRANCH   1  26
TORSDOF 4
ENDMDL
