MODEL 1
REMARK VINA RESULT:    -7.518      0.000      0.000
REMARK INTER + INTRA:          -9.501
REMARK INTER:                  -9.771
REMARK INTRA:                   0.270
REMARK UNBOUND:                 0.214
REMARK  Name = 
REMARK  6 active torsions:
REMARK  status: ('A' for Active; 'I' for Inactive)
REMARK    1  A    between atoms: C_1  and  O_2
REMARK    2  A    between atoms: O_2  and  C_3
REMARK    3  A    between atoms: C_5  and  C_6
REMARK    4  A    between atoms: C_8  and  C_9
REMARK    5  A    between atoms: C_13  and  C_15
REMARK    6  A    between atoms: C_19  and  N_20
REMARK                            x       y       z     vdW  Elec       q    Type
REMARK                         _______ _______ _______ _____ _____    ______ ____
ROOT
ATOM      1  C   UNL     1       1.764   3.633  20.474  0.00  0.00    +0.076 C 
ATOM      2  C   UNL     1       3.091   3.327  19.788  0.00  0.00    +0.002 C 
ATOM      3  C   UNL     1       3.313   4.554  18.895  0.00  0.00    +0.107 C 
ATOM      4  N   UNL     1       2.676   5.654  19.620  0.00  0.00    -0.283 N 
ATOM      5  C   UNL     1       2.493   6.876  18.994  0.00  0.00    +0.247 C 
ATOM      6  O   UNL     1       2.852   7.104  17.844  0.00  0.00    -0.270 OA
ATOM      7  C   UNL     1       1.859   5.144  20.720  0.00  0.00    +0.042 C 
ATOM      8  H   UNL     1       1.629   3.091  21.417  0.00  0.00    +0.061 HD
ATOM      9  H   UNL     1       3.880   3.241  20.546  0.00  0.00    +0.031 HD
ATOM     10  H   UNL     1       3.088   2.406  19.196  0.00  0.00    +0.031 HD
ATOM     11  H   UNL     1       2.797   4.433  17.935  0.00  0.00    +0.060 HD
ATOM     12  H   UNL     1       2.404   5.350  21.647  0.00  0.00    +0.049 HD
ATOM     13  H   UNL     1       0.878   5.627  20.741  0.00  0.00    +0.049 HD
ENDROOT
BRANCH   5  14
ATOM     14  C   UNL     1       1.842   7.964  19.760  0.00  0.00    +0.039 A 
ATOM     15  C   UNL     1       1.730   7.836  21.145  0.00  0.00    -0.050 A 
ATOM     16  C   UNL     1       1.111   8.843  21.880  0.00  0.00    -0.059 A 
ATOM     17  C   UNL     1       0.591   9.970  21.232  0.00  0.00    -0.038 A 
ATOM     18  C   UNL     1       0.674  10.094  19.836  0.00  0.00    +0.048 A 
ATOM     19  C   UNL     1       1.300   9.076  19.100  0.00  0.00    -0.026 A 
ATOM     20  H   UNL     1       2.122   6.954  21.648  0.00  0.00    +0.063 HD
ATOM     21  H   UNL     1       1.023   8.749  22.960  0.00  0.00    +0.062 HD
ATOM     22  H   UNL     1       0.113  10.721  21.856  0.00  0.00    +0.064 HD
ATOM     23  H   UNL     1       1.366   9.105  18.017  0.00  0.00    +0.065 HD
BRANCH  18  24
ATOM     24  N   UNL     1       0.129  11.234  19.172  0.00  0.00    -0.306 N 
ATOM     25  C   UNL     1       0.668  12.501  19.102  0.00  0.00    +0.029 A 
ATOM     26  C   UNL     1      -0.217  13.257  18.370  0.00  0.00    +0.046 A 
ATOM     27  N   UNL     1      -1.290  12.508  17.987  0.00  0.00    -0.244 NA
ATOM     28  C   UNL     1      -1.058  11.308  18.471  0.00  0.00    +0.100 A 
ATOM     29  H   UNL     1       1.612  12.774  19.549  0.00  0.00    +0.083 HD
ATOM     30  H   UNL     1      -0.133  14.303  18.102  0.00  0.00    +0.084 HD
ATOM     31  H   UNL     1      -1.723  10.468  18.338  0.00  0.00    +0.103 HD
ENDBRANCH  18  24
ENDBRANCH   5  14
BRANCH   3  32
ATOM     32  C   UNL     1       4.771   4.781  18.667  0.00  0.00    +0.248 A 
ATOM     33  N   UNL     1       5.640   5.444  19.402  0.00  0.00    -0.195 NA
ATOM     34  C   UNL     1       6.785   5.335  18.658  0.00  0.00    +0.169 A 
ATOM     35  N   UNL     1       6.648   4.691  17.492  0.00  0.00    -0.062 NA
ATOM     36  O   UNL     1       5.303   4.316  17.496  0.00  0.00    -0.336 OA
BRANCH  34  37
ATOM     37  C   UNL     1       8.074   5.899  19.099  0.00  0.00    -0.001 C 
ATOM     38  H   UNL     1       8.114   6.977  18.911  0.00  0.00    +0.031 HD
ATOM     39  H   UNL     1       8.214   5.736  20.172  0.00  0.00    +0.031 HD
ATOM     40  H   UNL     1       8.907   5.433  18.565  0.00  0.00    +0.031 HD
ENDBRANCH  34  37
ENDBRANCH   3  32
BRANCH   1  41
ATOM     41  O   UNL     1       0.662   3.375  19.599  0.00  0.00    -0.378 OA
BRANCH  41  42
ATOM     42  C   UNL     1       0.805   2.165  18.865  0.00  0.00    +0.037 C 
ATOM     43  H   UNL     1       1.858   1.889  18.762  0.00  0.00    +0.052 HD
ATOM     44  H   UNL     1       0.390   2.322  17.865  0.00  0.00    +0.052 HD
ATOM     45  H   UNL     1       0.250   1.358  19.349  0.00  0.00    +0.052 HD
ENDBRANCH  41  42
ENDBRANCH   1  41
TORSDOF 6
ENDMDL
MODEL 2
REMARK VINA RESULT:    -7.303      1.310      1.432
REMARK INTER + INTRA:          -9.224
REMARK INTER:                  -9.191
REMARK INTRA:                  -0.033
REMARK UNBOUND:                 0.214
REMARK  Name = 
REMARK  6 active torsions:
REMARK  status: ('A' for Active; 'I' for Inactive)
REMARK    1  A    between atoms: C_1  and  O_2
REMARK    2  A    between atoms: O_2  and  C_3
REMARK    3  A    between atoms: C_5  and  C_6
REMARK    4  A    between atoms: C_8  and  C_9
REMARK    5  A    between atoms: C_13  and  C_15
REMARK    6  A    between atoms: C_19  and  N_20
REMARK                            x       y       z     vdW  Elec       q    Type
REMARK                         _______ _______ _______ _____ _____    ______ ____
ROOT
ATOM      1  C   UNL     1       1.850   3.963  20.343  0.00  0.00    +0.076 C 
ATOM      2  C   UNL     1       3.205   3.875  19.649  0.00  0.00    +0.002 C 
ATOM      3  C   UNL     1       3.306   5.216  18.910  0.00  0.00    +0.107 C 
ATOM      4  N   UNL     1       2.555   6.153  19.748  0.00  0.00    -0.283 N 
ATOM      5  C   UNL     1       2.252   7.415  19.266  0.00  0.00    +0.247 C 
ATOM      6  O   UNL     1       2.593   7.813  18.157  0.00  0.00    -0.270 OA
ATOM      7  C   UNL     1       1.789   5.436  20.766  0.00  0.00    +0.042 C 
ATOM      8  H   UNL     1       1.766   3.303  21.214  0.00  0.00    +0.061 HD
ATOM      9  H   UNL     1       3.994   3.780  20.406  0.00  0.00    +0.031 HD
ATOM     10  H   UNL     1       3.299   3.035  18.954  0.00  0.00    +0.031 HD
ATOM     11  H   UNL     1       2.810   5.157  17.933  0.00  0.00    +0.060 HD
ATOM     12  H   UNL     1       2.305   5.585  21.720  0.00  0.00    +0.049 HD
ATOM     13  H   UNL     1       0.764   5.812  20.825  0.00  0.00    +0.049 HD
ENDROOT
BRANCH   5  14
ATOM     14  C   UNL     1       1.489   8.334  20.142  0.00  0.00    +0.039 A 
ATOM     15  C   UNL     1       1.700   8.276  21.520  0.00  0.00    -0.050 A 
ATOM     16  C   UNL     1       0.983   9.125  22.360  0.00  0.00    -0.059 A 
ATOM     17  C   UNL     1       0.047  10.018  21.827  0.00  0.00    -0.038 A 
ATOM     18  C   UNL     1      -0.192  10.062  20.444  0.00  0.00    +0.048 A 
ATOM     19  C   UNL     1       0.533   9.206  19.602  0.00  0.00    -0.026 A 
ATOM     20  H   UNL     1       2.418   7.573  21.936  0.00  0.00    +0.063 HD
ATOM     21  H   UNL     1       1.146   9.086  23.434  0.00  0.00    +0.062 HD
ATOM     22  H   UNL     1      -0.487  10.651  22.530  0.00  0.00    +0.064 HD
ATOM     23  H   UNL     1       0.369   9.177  18.530  0.00  0.00    +0.065 HD
BRANCH  18  24
ATOM     24  N   UNL     1      -1.160  10.960  19.901  0.00  0.00    -0.306 N 
ATOM     25  C   UNL     1      -1.763  10.893  18.663  0.00  0.00    +0.029 A 
ATOM     26  C   UNL     1      -2.609  11.975  18.587  0.00  0.00    +0.046 A 
ATOM     27  N   UNL     1      -2.549  12.715  19.730  0.00  0.00    -0.244 NA
ATOM     28  C   UNL     1      -1.686  12.087  20.498  0.00  0.00    +0.100 A 
ATOM     29  H   UNL     1      -1.571  10.110  17.945  0.00  0.00    +0.083 HD
ATOM     30  H   UNL     1      -3.256  12.256  17.765  0.00  0.00    +0.084 HD
ATOM     31  H   UNL     1      -1.412  12.417  21.489  0.00  0.00    +0.103 HD
ENDBRANCH  18  24
ENDBRANCH   5  14
BRANCH   3  32
ATOM     32  C   UNL     1       4.734   5.613  18.736  0.00  0.00    +0.248 A 
ATOM     33  N   UNL     1       5.291   6.343  17.792  0.00  0.00    -0.195 NA
ATOM     34  C   UNL     1       6.613   6.314  18.150  0.00  0.00    +0.169 A 
ATOM     35  N   UNL     1       6.895   5.567  19.225  0.00  0.00    -0.062 NA
ATOM     36  O   UNL     1       5.640   5.099  19.622  0.00  0.00    -0.336 OA
BRANCH  34  37
ATOM     37  C   UNL     1       7.655   7.039  17.400  0.00  0.00    -0.001 C 
ATOM     38  H   UNL     1       7.327   7.245  16.376  0.00  0.00    +0.031 HD
ATOM     39  H   UNL     1       7.877   7.996  17.884  0.00  0.00    +0.031 HD
ATOM     40  H   UNL     1       8.577   6.454  17.348  0.00  0.00    +0.031 HD
ENDBRANCH  34  37
ENDBRANCH   3  32
BRANCH   1  41
ATOM     41  O   UNL     1       0.786   3.700  19.425  0.00  0.00    -0.378 OA
BRANCH  41  42
ATOM     42  C   UNL     1       0.877   2.417  18.817  0.00  0.00    +0.037 C 
ATOM     43  H   UNL     1       1.908   2.053  18.820  0.00  0.00    +0.052 HD
ATOM     44  H   UNL     1       0.544   2.507  17.779  0.00  0.00    +0.052 HD
ATOM     45  H   UNL     1       0.225   1.706  19.330  0.00  0.00    +0.052 HD
ENDBRANCH  41  42
ENDBRANCH   1  41
TORSDOF 6
ENDMDL
MODEL 3
REMARK VINA RESULT:    -7.201      1.466      2.458
REMARK INTER + INTRA:          -9.093
REMARK INTER:                  -9.317
REMARK INTRA:                   0.224
REMARK UNBOUND:                 0.214
REMARK  Name = 
REMARK  6 active torsions:
REMARK  status: ('A' for Active; 'I' for Inactive)
REMARK    1  A    between atoms: C_1  and  O_2
REMARK    2  A    between atoms: O_2  and  C_3
REMARK    3  A    between atoms: C_5  and  C_6
REMARK    4  A    between atoms: C_8  and  C_9
REMARK    5  A    between atoms: C_13  and  C_15
REMARK    6  A    between atoms: C_19  and  N_20
REMARK                            x       y       z     vdW  Elec       q    Type
REMARK                         _______ _______ _______ _____ _____    ______ ____
ROOT
ATOM      1  C   UNL     1       1.785   4.387  20.656  0.00  0.00    +0.076 C 
ATOM      2  C   UNL     1       3.132   3.831  20.206  0.00  0.00    +0.002 C 
ATOM      3  C   UNL     1       3.478   4.697  18.988  0.00  0.00    +0.107 C 
ATOM      4  N   UNL     1       2.861   5.993  19.274  0.00  0.00    -0.283 N 
ATOM      5  C   UNL     1       2.787   6.953  18.279  0.00  0.00    +0.247 C 
ATOM      6  O   UNL     1       3.229   6.786  17.147  0.00  0.00    -0.270 OA
ATOM      7  C   UNL     1       1.951   5.893  20.413  0.00  0.00    +0.042 C 
ATOM      8  H   UNL     1       1.562   4.184  21.709  0.00  0.00    +0.061 HD
ATOM      9  H   UNL     1       3.867   3.967  21.011  0.00  0.00    +0.031 HD
ATOM     10  H   UNL     1       3.113   2.769  19.941  0.00  0.00    +0.031 HD
ATOM     11  H   UNL     1       3.016   4.290  18.080  0.00  0.00    +0.060 HD
ATOM     12  H   UNL     1       2.449   6.367  21.265  0.00  0.00    +0.049 HD
ATOM     13  H   UNL     1       1.000   6.390  20.203  0.00  0.00    +0.049 HD
ENDROOT
BRANCH   5  14
ATOM     14  C   UNL     1       2.153   8.252  18.605  0.00  0.00    +0.039 A 
ATOM     15  C   UNL     1       2.232   9.289  17.675  0.00  0.00    -0.050 A 
ATOM     16  C   UNL     1       1.652  10.520  17.970  0.00  0.00    -0.059 A 
ATOM     17  C   UNL     1       1.008  10.721  19.196  0.00  0.00    -0.038 A 
ATOM     18  C   UNL     1       0.949   9.691  20.149  0.00  0.00    +0.048 A 
ATOM     19  C   UNL     1       1.534   8.452  19.847  0.00  0.00    -0.026 A 
ATOM     20  H   UNL     1       2.744   9.138  16.727  0.00  0.00    +0.063 HD
ATOM     21  H   UNL     1       1.708  11.331  17.247  0.00  0.00    +0.062 HD
ATOM     22  H   UNL     1       0.579  11.703  19.374  0.00  0.00    +0.064 HD
ATOM     23  H   UNL     1       1.544   7.631  20.557  0.00  0.00    +0.065 HD
BRANCH  18  24
ATOM     24  N   UNL     1       0.308   9.899  21.407  0.00  0.00    -0.306 N 
ATOM     25  C   UNL     1      -0.653  10.840  21.713  0.00  0.00    +0.029 A 
ATOM     26  C   UNL     1      -0.956  10.663  23.043  0.00  0.00    +0.046 A 
ATOM     27  N   UNL     1      -0.216   9.651  23.576  0.00  0.00    -0.244 NA
ATOM     28  C   UNL     1       0.523   9.209  22.583  0.00  0.00    +0.100 A 
ATOM     29  H   UNL     1      -1.051  11.541  20.997  0.00  0.00    +0.083 HD
ATOM     30  H   UNL     1      -1.670  11.216  23.640  0.00  0.00    +0.084 HD
ATOM     31  H   UNL     1       1.227   8.394  22.673  0.00  0.00    +0.103 HD
ENDBRANCH  18  24
ENDBRANCH   5  14
BRANCH   3  32
ATOM     32  C   UNL     1       4.958   4.788  18.812  0.00  0.00    +0.248 A 
ATOM     33  N   UNL     1       5.842   5.477  19.502  0.00  0.00    -0.195 NA
ATOM     34  C   UNL     1       7.007   5.192  18.841  0.00  0.00    +0.169 A 
ATOM     35  N   UNL     1       6.872   4.413  17.761  0.00  0.00    -0.062 NA
ATOM     36  O   UNL     1       5.503   4.137  17.739  0.00  0.00    -0.336 OA
BRANCH  34  37
ATOM     37  C   UNL     1       8.315   5.716  19.275  0.00  0.00    -0.001 C 
ATOM     38  H   UNL     1       8.441   6.758  18.966  0.00  0.00    +0.031 HD
ATOM     39  H   UNL     1       8.400   5.672  20.366  0.00  0.00    +0.031 HD
ATOM     40  H   UNL     1       9.133   5.133  18.840  0.00  0.00    +0.031 HD
ENDBRANCH  34  37
ENDBRANCH   3  32
BRANCH   1  41
ATOM     41  O   UNL     1       0.726   3.899  19.827  0.00  0.00    -0.378 OA
BRANCH  41  42
ATOM     42  C   UNL     1       0.833   2.508  19.548  0.00  0.00    +0.037 C 
ATOM     43  H   UNL     1       1.756   2.285  19.006  0.00  0.00    +0.052 HD
ATOM     44  H   UNL     1      -0.015   2.220  18.920  0.00  0.00    +0.052 HD
ATOM     45  H   UNL     1       0.791   1.929  20.474  0.00  0.00    +0.052 HD
ENDBRANCH  41  42
ENDBRANCH   1  41
TORSDOF 6
ENDMDL
MODEL 4
REMARK VINA RESULT:    -6.853      2.976      7.808
REMARK INTER + INTRA:          -8.642
REMARK INTER:                  -8.430
REMARK INTRA:                  -0.213
REMARK UNBOUND:                 0.214
REMARK  Name = 
REMARK  6 active torsions:
REMARK  status: ('A' for Active; 'I' for Inactive)
REMARK    1  A    between atoms: C_1  and  O_2
REMARK    2  A    between atoms: O_2  and  C_3
REMARK    3  A    between atoms: C_5  and  C_6
REMARK    4  A    between atoms: C_8  and  C_9
REMARK    5  A    between atoms: C_13  and  C_15
REMARK    6  A    between atoms: C_19  and  N_20
REMARK                            x       y       z     vdW  Elec       q    Type
REMARK                         _______ _______ _______ _____ _____    ______ ____
ROOT
ATOM      1  C   UNL     1      -1.368  10.448  17.596  0.00  0.00    +0.076 C 
ATOM      2  C   UNL     1      -1.147  11.717  18.412  0.00  0.00    +0.002 C 
ATOM      3  C   UNL     1      -0.328  11.223  19.611  0.00  0.00    +0.107 C 
ATOM      4  N   UNL     1       0.452  10.102  19.084  0.00  0.00    -0.283 N 
ATOM      5  C   UNL     1       1.143   9.275  19.954  0.00  0.00    +0.247 C 
ATOM      6  O   UNL     1       1.153   9.434  21.170  0.00  0.00    -0.270 OA
ATOM      7  C   UNL     1      -0.033   9.711  17.761  0.00  0.00    +0.042 C 
ATOM      8  H   UNL     1      -1.579  10.643  16.539  0.00  0.00    +0.061 HD
ATOM      9  H   UNL     1      -0.577  12.438  17.812  0.00  0.00    +0.031 HD
ATOM     10  H   UNL     1      -2.070  12.205  18.741  0.00  0.00    +0.031 HD
ATOM     11  H   UNL     1      -0.987  10.840  20.399  0.00  0.00    +0.060 HD
ATOM     12  H   UNL     1       0.698  10.071  17.031  0.00  0.00    +0.049 HD
ATOM     13  H   UNL     1      -0.142   8.625  17.686  0.00  0.00    +0.049 HD
ENDROOT
BRANCH   5  14
ATOM     14  C   UNL     1       1.919   8.149  19.383  0.00  0.00    +0.039 A 
ATOM     15  C   UNL     1       2.570   8.335  18.162  0.00  0.00    -0.050 A 
ATOM     16  C   UNL     1       3.294   7.285  17.605  0.00  0.00    -0.059 A 
ATOM     17  C   UNL     1       3.356   6.048  18.256  0.00  0.00    -0.038 A 
ATOM     18  C   UNL     1       2.681   5.844  19.470  0.00  0.00    +0.048 A 
ATOM     19  C   UNL     1       1.953   6.906  20.028  0.00  0.00    -0.026 A 
ATOM     20  H   UNL     1       2.511   9.293  17.649  0.00  0.00    +0.063 HD
ATOM     21  H   UNL     1       3.806   7.425  16.656  0.00  0.00    +0.062 HD
ATOM     22  H   UNL     1       3.932   5.263  17.772  0.00  0.00    +0.064 HD
ATOM     23  H   UNL     1       1.388   6.796  20.948  0.00  0.00    +0.065 HD
BRANCH  18  24
ATOM     24  N   UNL     1       2.728   4.578  20.127  0.00  0.00    -0.306 N 
ATOM     25  C   UNL     1       1.963   4.157  21.193  0.00  0.00    +0.029 A 
ATOM     26  C   UNL     1       2.373   2.876  21.481  0.00  0.00    +0.046 A 
ATOM     27  N   UNL     1       3.369   2.487  20.636  0.00  0.00    -0.244 NA
ATOM     28  C   UNL     1       3.558   3.513  19.836  0.00  0.00    +0.100 A 
ATOM     29  H   UNL     1       1.200   4.763  21.657  0.00  0.00    +0.083 HD
ATOM     30  H   UNL     1       1.999   2.217  22.255  0.00  0.00    +0.084 HD
ATOM     31  H   UNL     1       4.286   3.528  19.038  0.00  0.00    +0.103 HD
ENDBRANCH  18  24
ENDBRANCH   5  14
BRANCH   3  32
ATOM     32  C   UNL     1       0.530  12.320  20.149  0.00  0.00    +0.248 A 
ATOM     33  N   UNL     1       1.734  12.700  19.777  0.00  0.00    -0.195 NA
ATOM     34  C   UNL     1       2.002  13.710  20.663  0.00  0.00    +0.169 A 
ATOM     35  N   UNL     1       1.053  13.926  21.582  0.00  0.00    -0.062 NA
ATOM     36  O   UNL     1       0.064  13.001  21.240  0.00  0.00    -0.336 OA
BRANCH  34  37
ATOM     37  C   UNL     1       3.251  14.492  20.621  0.00  0.00    -0.001 C 
ATOM     38  H   UNL     1       3.208  15.335  21.318  0.00  0.00    +0.031 HD
ATOM     39  H   UNL     1       4.104  13.864  20.899  0.00  0.00    +0.031 HD
ATOM     40  H   UNL     1       3.427  14.892  19.618  0.00  0.00    +0.031 HD
ENDBRANCH  34  37
ENDBRANCH   3  32
BRANCH   1  41
ATOM     41  O   UNL     1      -2.411   9.649  18.163  0.00  0.00    -0.378 OA
BRANCH  41  42
ATOM     42  C   UNL     1      -3.702   9.988  17.673  0.00  0.00    +0.037 C 
ATOM     43  H   UNL     1      -4.343   9.104  17.606  0.00  0.00    +0.052 HD
ATOM     44  H   UNL     1      -3.587  10.408  16.670  0.00  0.00    +0.052 HD
ATOM     45  H   UNL     1      -4.168  10.741  18.314  0.00  0.00    +0.052 HD
ENDBRANCH  41  42
ENDBRANCH   1  41
TORSDOF 6
ENDMDL
MODEL 5
REMARK VINA RESULT:    -6.829      2.133      4.283
REMARK INTER + INTRA:          -8.611
REMARK INTER:                  -9.237
REMARK INTRA:                   0.627
REMARK UNBOUND:                 0.214
REMARK  Name = 
REMARK  6 active torsions:
REMARK  status: ('A' for Active; 'I' for Inactive)
REMARK    1  A    between atoms: C_1  and  O_2
REMARK    2  A    between atoms: O_2  and  C_3
REMARK    3  A    between atoms: C_5  and  C_6
REMARK    4  A    between atoms: C_8  and  C_9
REMARK    5  A    between atoms: C_13  and  C_15
REMARK    6  A    between atoms: C_19  and  N_20
REMARK                            x       y       z     vdW  Elec       q    Type
REMARK                         _______ _______ _______ _____ _____    ______ ____
ROOT
ATOM      1  C   UNL     1       5.239   6.626  16.604  0.00  0.00    +0.076 C 
ATOM      2  C   UNL     1       5.064   5.145  16.923  0.00  0.00    +0.002 C 
ATOM      3  C   UNL     1       4.279   5.162  18.241  0.00  0.00    +0.107 C 
ATOM      4  N   UNL     1       3.465   6.377  18.166  0.00  0.00    -0.283 N 
ATOM      5  C   UNL     1       2.793   6.825  19.291  0.00  0.00    +0.247 C 
ATOM      6  O   UNL     1       2.828   6.246  20.372  0.00  0.00    -0.270 OA
ATOM      7  C   UNL     1       3.899   7.222  17.056  0.00  0.00    +0.042 C 
ATOM      8  H   UNL     1       5.415   6.822  15.541  0.00  0.00    +0.061 HD
ATOM      9  H   UNL     1       4.484   4.668  16.123  0.00  0.00    +0.031 HD
ATOM     10  H   UNL     1       6.004   4.596  17.033  0.00  0.00    +0.031 HD
ATOM     11  H   UNL     1       4.960   5.259  19.096  0.00  0.00    +0.060 HD
ATOM     12  H   UNL     1       3.149   7.124  16.265  0.00  0.00    +0.049 HD
ATOM     13  H   UNL     1       3.990   8.267  17.366  0.00  0.00    +0.049 HD
ENDROOT
BRANCH   5  14
ATOM     14  C   UNL     1       1.982   8.059  19.177  0.00  0.00    +0.039 A 
ATOM     15  C   UNL     1       1.953   8.731  17.954  0.00  0.00    -0.050 A 
ATOM     16  C   UNL     1       1.204   9.899  17.831  0.00  0.00    -0.059 A 
ATOM     17  C   UNL     1       0.500  10.403  18.930  0.00  0.00    -0.038 A 
ATOM     18  C   UNL     1       0.547   9.748  20.172  0.00  0.00    +0.048 A 
ATOM     19  C   UNL     1       1.301   8.572  20.290  0.00  0.00    -0.026 A 
ATOM     20  H   UNL     1       2.511   8.347  17.103  0.00  0.00    +0.063 HD
ATOM     21  H   UNL     1       1.176  10.425  16.880  0.00  0.00    +0.062 HD
ATOM     22  H   UNL     1      -0.062  11.321  18.777  0.00  0.00    +0.064 HD
ATOM     23  H   UNL     1       1.397   8.041  21.231  0.00  0.00    +0.065 HD
BRANCH  18  24
ATOM     24  N   UNL     1      -0.157  10.271  21.298  0.00  0.00    -0.306 N 
ATOM     25  C   UNL     1      -0.781  11.497  21.401  0.00  0.00    +0.029 A 
ATOM     26  C   UNL     1      -1.309  11.555  22.669  0.00  0.00    +0.046 A 
ATOM     27  N   UNL     1      -1.033  10.412  23.360  0.00  0.00    -0.244 NA
ATOM     28  C   UNL     1      -0.353   9.663  22.521  0.00  0.00    +0.100 A 
ATOM     29  H   UNL     1      -0.817  12.218  20.600  0.00  0.00    +0.083 HD
ATOM     30  H   UNL     1      -1.873  12.363  23.117  0.00  0.00    +0.084 HD
ATOM     31  H   UNL     1       0.018   8.677  22.760  0.00  0.00    +0.103 HD
ENDBRANCH  18  24
ENDBRANCH   5  14
BRANCH   3  32
ATOM     32  C   UNL     1       3.457   3.924  18.379  0.00  0.00    +0.248 A 
ATOM     33  N   UNL     1       2.148   3.781  18.351  0.00  0.00    -0.195 NA
ATOM     34  C   UNL     1       2.003   2.437  18.574  0.00  0.00    +0.169 A 
ATOM     35  N   UNL     1       3.143   1.769  18.788  0.00  0.00    -0.062 NA
ATOM     36  O   UNL     1       4.119   2.759  18.654  0.00  0.00    -0.336 OA
BRANCH  34  37
ATOM     37  C   UNL     1       0.686   1.774  18.595  0.00  0.00    -0.001 C 
ATOM     38  H   UNL     1       0.032   2.227  19.347  0.00  0.00    +0.031 HD
ATOM     39  H   UNL     1       0.197   1.867  17.620  0.00  0.00    +0.031 HD
ATOM     40  H   UNL     1       0.788   0.711  18.832  0.00  0.00    +0.031 HD
ENDBRANCH  34  37
ENDBRANCH   3  32
BRANCH   1  41
ATOM     41  O   UNL     1       6.288   7.199  17.389  0.00  0.00    -0.378 OA
BRANCH  41  42
ATOM     42  C   UNL     1       7.482   6.426  17.375  0.00  0.00    +0.037 C 
ATOM     43  H   UNL     1       7.510   5.762  16.506  0.00  0.00    +0.052 HD
ATOM     44  H   UNL     1       7.501   5.812  18.280  0.00  0.00    +0.052 HD
ATOM     45  H   UNL     1       8.359   7.078  17.378  0.00  0.00    +0.052 HD
ENDBRANCH  41  42
ENDBRANCH   1  41
TORSDOF 6
ENDMDL
MODEL 6
REMARK VINA RESULT:    -6.719      1.544      1.810
REMARK INTER + INTRA:          -8.469
REMARK INTER:                  -8.364
REMARK INTRA:                  -0.105
REMARK UNBOUND:                 0.214
REMARK  Name = 
REMARK  6 active torsions:
REMARK  status: ('A' for Active; 'I' for Inactive)
REMARK    1  A    between atoms: C_1  and  O_2
REMARK    2  A    between atoms: O_2  and  C_3
REMARK    3  A    between atoms: C_5  and  C_6
REMARK    4  A    between atoms: C_8  and  C_9
REMARK    5  A    between atoms: C_13  and  C_15
REMARK    6  A    between atoms: C_19  and  N_20
REMARK                            x       y       z     vdW  Elec       q    Type
REMARK                         _______ _______ _______ _____ _____    ______ ____
ROOT
ATOM      1  C   UNL     1       2.077   4.268  19.811  0.00  0.00    +0.076 C 
ATOM      2  C   UNL     1       3.525   4.193  19.341  0.00  0.00    +0.002 C 
ATOM      3  C   UNL     1       3.667   5.433  18.448  0.00  0.00    +0.107 C 
ATOM      4  N   UNL     1       2.746   6.410  19.032  0.00  0.00    -0.283 N 
ATOM      5  C   UNL     1       2.454   7.576  18.343  0.00  0.00    +0.247 C 
ATOM      6  O   UNL     1       2.940   7.854  17.252  0.00  0.00    -0.270 OA
ATOM      7  C   UNL     1       1.871   5.774  20.014  0.00  0.00    +0.042 C 
ATOM      8  H   UNL     1       1.894   3.719  20.742  0.00  0.00    +0.061 HD
ATOM      9  H   UNL     1       4.192   4.254  20.211  0.00  0.00    +0.031 HD
ATOM     10  H   UNL     1       3.771   3.281  18.789  0.00  0.00    +0.031 HD
ATOM     11  H   UNL     1       3.332   5.215  17.427  0.00  0.00    +0.060 HD
ATOM     12  H   UNL     1       2.224   6.080  21.005  0.00  0.00    +0.049 HD
ATOM     13  H   UNL     1       0.831   6.078  19.872  0.00  0.00    +0.049 HD
ENDROOT
BRANCH   5  14
ATOM     14  C   UNL     1       1.516   8.539  18.964  0.00  0.00    +0.039 A 
ATOM     15  C   UNL     1       1.713   8.902  20.297  0.00  0.00    -0.050 A 
ATOM     16  C   UNL     1       0.834   9.798  20.901  0.00  0.00    -0.059 A 
ATOM     17  C   UNL     1      -0.247  10.319  20.181  0.00  0.00    -0.038 A 
ATOM     18  C   UNL     1      -0.468   9.937  18.847  0.00  0.00    +0.048 A 
ATOM     19  C   UNL     1       0.420   9.035  18.243  0.00  0.00    -0.026 A 
ATOM     20  H   UNL     1       2.545   8.487  20.862  0.00  0.00    +0.063 HD
ATOM     21  H   UNL     1       0.984  10.085  21.939  0.00  0.00    +0.062 HD
ATOM     22  H   UNL     1      -0.903  11.009  20.705  0.00  0.00    +0.064 HD
ATOM     23  H   UNL     1       0.281   8.683  17.226  0.00  0.00    +0.065 HD
BRANCH  18  24
ATOM     24  N   UNL     1      -1.580  10.454  18.117  0.00  0.00    -0.306 N 
ATOM     25  C   UNL     1      -2.472  11.424  18.523  0.00  0.00    +0.029 A 
ATOM     26  C   UNL     1      -3.369  11.579  17.493  0.00  0.00    +0.046 A 
ATOM     27  N   UNL     1      -3.072  10.736  16.463  0.00  0.00    -0.244 NA
ATOM     28  C   UNL     1      -2.001  10.083  16.856  0.00  0.00    +0.100 A 
ATOM     29  H   UNL     1      -2.411  11.931  19.474  0.00  0.00    +0.083 HD
ATOM     30  H   UNL     1      -4.214  12.255  17.444  0.00  0.00    +0.084 HD
ATOM     31  H   UNL     1      -1.503   9.333  16.260  0.00  0.00    +0.103 HD
ENDBRANCH  18  24
ENDBRANCH   5  14
BRANCH   3  32
ATOM     32  C   UNL     1       5.082   5.910  18.433  0.00  0.00    +0.248 A 
ATOM     33  N   UNL     1       5.670   6.758  17.616  0.00  0.00    -0.195 NA
ATOM     34  C   UNL     1       6.961   6.751  18.076  0.00  0.00    +0.169 A 
ATOM     35  N   UNL     1       7.198   5.909  19.090  0.00  0.00    -0.062 NA
ATOM     36  O   UNL     1       5.943   5.347  19.334  0.00  0.00    -0.336 OA
BRANCH  34  37
ATOM     37  C   UNL     1       8.017   7.597  17.490  0.00  0.00    -0.001 C 
ATOM     38  H   UNL     1       8.710   7.947  18.262  0.00  0.00    +0.031 HD
ATOM     39  H   UNL     1       8.591   7.031  16.750  0.00  0.00    +0.031 HD
ATOM     40  H   UNL     1       7.586   8.474  16.999  0.00  0.00    +0.031 HD
ENDBRANCH  34  37
ENDBRANCH   3  32
BRANCH   1  41
ATOM     41  O   UNL     1       1.183   3.813  18.791  0.00  0.00    -0.378 OA
BRANCH  41  42
ATOM     42  C   UNL     1       0.939   2.413  18.847  0.00  0.00    +0.037 C 
ATOM     43  H   UNL     1       0.342   2.083  17.992  0.00  0.00    +0.052 HD
ATOM     44  H   UNL     1       0.379   2.200  19.762  0.00  0.00    +0.052 HD
ATOM     45  H   UNL     1       1.883   1.862  18.882  0.00  0.00    +0.052 HD
ENDBRANCH  41  42
ENDBRANCH   1  41
TORSDOF 6
ENDMDL
MODEL 7
REMARK VINA RESULT:    -6.566      2.944      7.221
REMARK INTER + INTRA:          -8.271
REMARK INTER:                  -7.713
REMARK INTRA:                  -0.558
REMARK UNBOUND:                 0.214
REMARK  Name = 
REMARK  6 active torsions:
REMARK  status: ('A' for Active; 'I' for Inactive)
REMARK    1  A    between atoms: C_1  and  O_2
REMARK    2  A    between atoms: O_2  and  C_3
REMARK    3  A    between atoms: C_5  and  C_6
REMARK    4  A    between atoms: C_8  and  C_9
REMARK    5  A    between atoms: C_13  and  C_15
REMARK    6  A    between atoms: C_19  and  N_20
REMARK                            x       y       z     vdW  Elec       q    Type
REMARK                         _______ _______ _______ _____ _____    ______ ____
ROOT
ATOM      1  C   UNL     1      -1.069  10.495  17.751  0.00  0.00    +0.076 C 
ATOM      2  C   UNL     1      -0.525  11.820  18.273  0.00  0.00    +0.002 C 
ATOM      3  C   UNL     1       0.175  11.421  19.578  0.00  0.00    +0.107 C 
ATOM      4  N   UNL     1       0.644  10.055  19.338  0.00  0.00    -0.283 N 
ATOM      5  C   UNL     1       1.130   9.300  20.392  0.00  0.00    +0.247 C 
ATOM      6  O   UNL     1       1.207   9.719  21.542  0.00  0.00    -0.270 OA
ATOM      7  C   UNL     1       0.048   9.510  18.120  0.00  0.00    +0.042 C 
ATOM      8  H   UNL     1      -1.249  10.495  16.670  0.00  0.00    +0.061 HD
ATOM      9  H   UNL     1       0.191  12.228  17.548  0.00  0.00    +0.031 HD
ATOM     10  H   UNL     1      -1.292  12.579  18.455  0.00  0.00    +0.031 HD
ATOM     11  H   UNL     1      -0.540  11.396  20.409  0.00  0.00    +0.060 HD
ATOM     12  H   UNL     1       0.828   9.510  17.352  0.00  0.00    +0.049 HD
ATOM     13  H   UNL     1      -0.326   8.496  18.283  0.00  0.00    +0.049 HD
ENDROOT
BRANCH   5  14
ATOM     14  C   UNL     1       1.593   7.921  20.110  0.00  0.00    +0.039 A 
ATOM     15  C   UNL     1       1.180   6.889  20.953  0.00  0.00    -0.050 A 
ATOM     16  C   UNL     1       1.614   5.589  20.709  0.00  0.00    -0.059 A 
ATOM     17  C   UNL     1       2.472   5.321  19.637  0.00  0.00    -0.038 A 
ATOM     18  C   UNL     1       2.915   6.359  18.800  0.00  0.00    +0.048 A 
ATOM     19  C   UNL     1       2.474   7.667  19.049  0.00  0.00    -0.026 A 
ATOM     20  H   UNL     1       0.524   7.099  21.795  0.00  0.00    +0.063 HD
ATOM     21  H   UNL     1       1.293   4.781  21.362  0.00  0.00    +0.062 HD
ATOM     22  H   UNL     1       2.783   4.289  19.499  0.00  0.00    +0.064 HD
ATOM     23  H   UNL     1       2.808   8.511  18.453  0.00  0.00    +0.065 HD
BRANCH  18  24
ATOM     24  N   UNL     1       3.804   6.090  17.716  0.00  0.00    -0.306 N 
ATOM     25  C   UNL     1       4.529   7.004  16.980  0.00  0.00    +0.029 A 
ATOM     26  C   UNL     1       5.227   6.278  16.044  0.00  0.00    +0.046 A 
ATOM     27  N   UNL     1       4.960   4.947  16.167  0.00  0.00    -0.244 NA
ATOM     28  C   UNL     1       4.116   4.861  17.172  0.00  0.00    +0.100 A 
ATOM     29  H   UNL     1       4.513   8.067  17.164  0.00  0.00    +0.083 HD
ATOM     30  H   UNL     1       5.909   6.650  15.289  0.00  0.00    +0.084 HD
ATOM     31  H   UNL     1       3.705   3.930  17.534  0.00  0.00    +0.103 HD
ENDBRANCH  18  24
ENDBRANCH   5  14
BRANCH   3  32
ATOM     32  C   UNL     1       1.287  12.367  19.888  0.00  0.00    +0.248 A 
ATOM     33  N   UNL     1       1.545  13.021  21.001  0.00  0.00    -0.195 NA
ATOM     34  C   UNL     1       2.652  13.751  20.656  0.00  0.00    +0.169 A 
ATOM     35  N   UNL     1       3.046  13.617  19.384  0.00  0.00    -0.062 NA
ATOM     36  O   UNL     1       2.139  12.690  18.867  0.00  0.00    -0.336 OA
BRANCH  34  37
ATOM     37  C   UNL     1       3.350  14.632  21.609  0.00  0.00    -0.001 C 
ATOM     38  H   UNL     1       3.729  14.062  22.463  0.00  0.00    +0.031 HD
ATOM     39  H   UNL     1       4.200  15.122  21.123  0.00  0.00    +0.031 HD
ATOM     40  H   UNL     1       2.676  15.405  21.991  0.00  0.00    +0.031 HD
ENDBRANCH  34  37
ENDBRANCH   3  32
BRANCH   1  41
ATOM     41  O   UNL     1      -2.263  10.122  18.446  0.00  0.00    -0.378 OA
BRANCH  41  42
ATOM     42  C   UNL     1      -3.288   9.652  17.580  0.00  0.00    +0.037 C 
ATOM     43  H   UNL     1      -3.730  10.474  17.010  0.00  0.00    +0.052 HD
ATOM     44  H   UNL     1      -4.071   9.196  18.193  0.00  0.00    +0.052 HD
ATOM     45  H   UNL     1      -2.895   8.892  16.899  0.00  0.00    +0.052 HD
ENDBRANCH  41  42
ENDBRANCH   1  41
TORSDOF 6
ENDMDL
MODEL 8
REMARK VINA RESULT:    -6.465      1.578      1.884
REMARK INTER + INTRA:          -8.141
REMARK INTER:                  -8.284
REMARK INTRA:                   0.144
REMARK UNBOUND:                 0.214
REMARK  Name = 
REMARK  6 active torsions:
REMARK  status: ('A' for Active; 'I' for Inactive)
REMARK    1  A    between atoms: C_1  and  O_2
REMARK    2  A    between atoms: O_2  and  C_3
REMARK    3  A    between atoms: C_5  and  C_6
REMARK    4  A    between atoms: C_8  and  C_9
REMARK    5  A    between atoms: C_13  and  C_15
REMARK    6  A    between atoms: C_19  and  N_20
REMARK                            x       y       z     vdW  Elec       q    Type
REMARK                         _______ _______ _______ _____ _____    ______ ____
ROOT
ATOM      1  C   UNL     1       3.232   2.842  20.563  0.00  0.00    +0.076 C 
ATOM      2  C   UNL     1       4.273   2.660  19.464  0.00  0.00    +0.002 C 
ATOM      3  C   UNL     1       3.880   3.725  18.431  0.00  0.00    +0.107 C 
ATOM      4  N   UNL     1       3.294   4.805  19.226  0.00  0.00    -0.283 N 
ATOM      5  C   UNL     1       2.626   5.840  18.593  0.00  0.00    +0.247 C 
ATOM      6  O   UNL     1       2.503   5.917  17.375  0.00  0.00    -0.270 OA
ATOM      7  C   UNL     1       3.050   4.364  20.598  0.00  0.00    +0.042 C 
ATOM      8  H   UNL     1       3.561   2.465  21.538  0.00  0.00    +0.061 HD
ATOM      9  H   UNL     1       5.272   2.856  19.875  0.00  0.00    +0.031 HD
ATOM     10  H   UNL     1       4.281   1.662  19.015  0.00  0.00    +0.031 HD
ATOM     11  H   UNL     1       3.108   3.341  17.754  0.00  0.00    +0.060 HD
ATOM     12  H   UNL     1       3.817   4.829  21.226  0.00  0.00    +0.049 HD
ATOM     13  H   UNL     1       2.052   4.659  20.936  0.00  0.00    +0.049 HD
ENDROOT
BRANCH   5  14
ATOM     14  C   UNL     1       2.043   6.914  19.431  0.00  0.00    +0.039 A 
ATOM     15  C   UNL     1       1.531   6.582  20.686  0.00  0.00    -0.050 A 
ATOM     16  C   UNL     1       0.969   7.576  21.482  0.00  0.00    -0.059 A 
ATOM     17  C   UNL     1       0.906   8.896  21.022  0.00  0.00    -0.038 A 
ATOM     18  C   UNL     1       1.395   9.234  19.749  0.00  0.00    +0.048 A 
ATOM     19  C   UNL     1       1.960   8.228  18.951  0.00  0.00    -0.026 A 
ATOM     20  H   UNL     1       1.567   5.553  21.038  0.00  0.00    +0.063 HD
ATOM     21  H   UNL     1       0.570   7.323  22.462  0.00  0.00    +0.062 HD
ATOM     22  H   UNL     1       0.452   9.629  21.684  0.00  0.00    +0.064 HD
ATOM     23  H   UNL     1       2.326   8.426  17.948  0.00  0.00    +0.065 HD
BRANCH  18  24
ATOM     24  N   UNL     1       1.315  10.576  19.271  0.00  0.00    -0.306 N 
ATOM     25  C   UNL     1       0.401  11.543  19.635  0.00  0.00    +0.029 A 
ATOM     26  C   UNL     1       0.716  12.665  18.906  0.00  0.00    +0.046 A 
ATOM     27  N   UNL     1       1.788  12.431  18.097  0.00  0.00    -0.244 NA
ATOM     28  C   UNL     1       2.129  11.184  18.337  0.00  0.00    +0.100 A 
ATOM     29  H   UNL     1      -0.377  11.384  20.366  0.00  0.00    +0.083 HD
ATOM     30  H   UNL     1       0.222  13.629  18.924  0.00  0.00    +0.084 HD
ATOM     31  H   UNL     1       2.956  10.684  17.855  0.00  0.00    +0.103 HD
ENDBRANCH  18  24
ENDBRANCH   5  14
BRANCH   3  32
ATOM     32  C   UNL     1       5.074   4.165  17.651  0.00  0.00    +0.248 A 
ATOM     33  N   UNL     1       5.254   4.201  16.347  0.00  0.00    -0.195 NA
ATOM     34  C   UNL     1       6.547   4.647  16.249  0.00  0.00    +0.169 A 
ATOM     35  N   UNL     1       7.174   4.831  17.417  0.00  0.00    -0.062 NA
ATOM     36  O   UNL     1       6.192   4.513  18.358  0.00  0.00    -0.336 OA
BRANCH  34  37
ATOM     37  C   UNL     1       7.206   4.891  14.954  0.00  0.00    -0.001 C 
ATOM     38  H   UNL     1       7.024   5.914  14.609  0.00  0.00    +0.031 HD
ATOM     39  H   UNL     1       8.288   4.750  15.043  0.00  0.00    +0.031 HD
ATOM     40  H   UNL     1       6.829   4.206  14.189  0.00  0.00    +0.031 HD
ENDBRANCH  34  37
ENDBRANCH   3  32
BRANCH   1  41
ATOM     41  O   UNL     1       1.989   2.236  20.198  0.00  0.00    -0.378 OA
BRANCH  41  42
ATOM     42  C   UNL     1       0.859   2.918  20.727  0.00  0.00    +0.037 C 
ATOM     43  H   UNL     1       1.160   3.659  21.473  0.00  0.00    +0.052 HD
ATOM     44  H   UNL     1       0.212   2.182  21.214  0.00  0.00    +0.052 HD
ATOM     45  H   UNL     1       0.294   3.400  19.925  0.00  0.00    +0.052 HD
ENDBRANCH  41  42
ENDBRANCH   1  41
TORSDOF 6
ENDMDL
MODEL 9
REMARK VINA RESULT:    -6.407      3.059      8.582
REMARK INTER + INTRA:          -8.066
REMARK INTER:                  -7.698
REMARK INTRA:                  -0.368
REMARK UNBOUND:                 0.214
REMARK  Name = 
REMARK  6 active torsions:
REMARK  status: ('A' for Active; 'I' for Inactive)
REMARK    1  A    between atoms: C_1  and  O_2
REMARK    2  A    between atoms: O_2  and  C_3
REMARK    3  A    between atoms: C_5  and  C_6
REMARK    4  A    between atoms: C_8  and  C_9
REMARK    5  A    between atoms: C_13  and  C_15
REMARK    6  A    between atoms: C_19  and  N_20
REMARK                            x       y       z     vdW  Elec       q    Type
REMARK                         _______ _______ _______ _____ _____    ______ ____
ROOT
ATOM      1  C   UNL     1       1.727  13.251  19.352  0.00  0.00    +0.076 C 
ATOM      2  C   UNL     1       0.270  13.678  19.210  0.00  0.00    +0.002 C 
ATOM      3  C   UNL     1      -0.383  12.470  18.528  0.00  0.00    +0.107 C 
ATOM      4  N   UNL     1       0.387  11.320  19.005  0.00  0.00    -0.283 N 
ATOM      5  C   UNL     1       0.209  10.080  18.414  0.00  0.00    +0.247 C 
ATOM      6  O   UNL     1      -0.583   9.877  17.500  0.00  0.00    -0.270 OA
ATOM      7  C   UNL     1       1.604  11.759  19.685  0.00  0.00    +0.042 C 
ATOM      8  H   UNL     1       2.261  13.786  20.146  0.00  0.00    +0.061 HD
ATOM      9  H   UNL     1      -0.156  13.848  20.208  0.00  0.00    +0.031 HD
ATOM     10  H   UNL     1       0.125  14.588  18.620  0.00  0.00    +0.031 HD
ATOM     11  H   UNL     1      -0.267  12.531  17.439  0.00  0.00    +0.060 HD
ATOM     12  H   UNL     1       1.441  11.616  20.758  0.00  0.00    +0.049 HD
ATOM     13  H   UNL     1       2.472  11.182  19.352  0.00  0.00    +0.049 HD
ENDROOT
BRANCH   5  14
ATOM     14  C   UNL     1       1.008   8.941  18.923  0.00  0.00    +0.039 A 
ATOM     15  C   UNL     1       0.895   8.592  20.270  0.00  0.00    -0.050 A 
ATOM     16  C   UNL     1       1.647   7.531  20.768  0.00  0.00    -0.059 A 
ATOM     17  C   UNL     1       2.520   6.830  19.929  0.00  0.00    -0.038 A 
ATOM     18  C   UNL     1       2.660   7.193  18.579  0.00  0.00    +0.048 A 
ATOM     19  C   UNL     1       1.899   8.262  18.081  0.00  0.00    -0.026 A 
ATOM     20  H   UNL     1       0.227   9.145  20.926  0.00  0.00    +0.063 HD
ATOM     21  H   UNL     1       1.562   7.254  21.816  0.00  0.00    +0.062 HD
ATOM     22  H   UNL     1       3.086   6.016  20.373  0.00  0.00    +0.064 HD
ATOM     23  H   UNL     1       1.989   8.604  17.055  0.00  0.00    +0.065 HD
BRANCH  18  24
ATOM     24  N   UNL     1       3.563   6.490  17.726  0.00  0.00    -0.306 N 
ATOM     25  C   UNL     1       4.537   7.028  16.912  0.00  0.00    +0.029 A 
ATOM     26  C   UNL     1       5.140   5.967  16.279  0.00  0.00    +0.046 A 
ATOM     27  N   UNL     1       4.573   4.789  16.665  0.00  0.00    -0.244 NA
ATOM     28  C   UNL     1       3.642   5.127  17.530  0.00  0.00    +0.100 A 
ATOM     29  H   UNL     1       4.740   8.086  16.841  0.00  0.00    +0.083 HD
ATOM     30  H   UNL     1       5.953   5.994  15.564  0.00  0.00    +0.084 HD
ATOM     31  H   UNL     1       3.004   4.416  18.034  0.00  0.00    +0.103 HD
ENDBRANCH  18  24
ENDBRANCH   5  14
BRANCH   3  32
ATOM     32  C   UNL     1      -1.830  12.384  18.884  0.00  0.00    +0.248 A 
ATOM     33  N   UNL     1      -2.429  12.661  20.024  0.00  0.00    -0.195 NA
ATOM     34  C   UNL     1      -3.733  12.346  19.746  0.00  0.00    +0.169 A 
ATOM     35  N   UNL     1      -3.949  11.845  18.523  0.00  0.00    -0.062 NA
ATOM     36  O   UNL     1      -2.679  11.872  17.942  0.00  0.00    -0.336 OA
BRANCH  34  37
ATOM     37  C   UNL     1      -4.820  12.528  20.725  0.00  0.00    -0.001 C 
ATOM     38  H   UNL     1      -5.567  11.734  20.633  0.00  0.00    +0.031 HD
ATOM     39  H   UNL     1      -4.422  12.504  21.745  0.00  0.00    +0.031 HD
ATOM     40  H   UNL     1      -5.326  13.486  20.572  0.00  0.00    +0.031 HD
ENDBRANCH  34  37
ENDBRANCH   3  32
BRANCH   1  41
ATOM     41  O   UNL     1       2.426  13.392  18.112  0.00  0.00    -0.378 OA
BRANCH  41  42
ATOM     42  C   UNL     1       3.315  14.501  18.096  0.00  0.00    +0.037 C 
ATOM     43  H   UNL     1       4.357  14.172  18.138  0.00  0.00    +0.052 HD
ATOM     44  H   UNL     1       3.111  15.116  18.977  0.00  0.00    +0.052 HD
ATOM     45  H   UNL     1       3.150  15.110  17.203  0.00  0.00    +0.052 HD
ENDBRANCH  41  42
ENDBRANCH   1  41
TORSDOF 6
ENDMDL
MODEL 10
REMARK VINA RESULT:    -6.350      2.784      7.658
REMARK INTER + INTRA:          -7.993
REMARK INTER:                  -8.188
REMARK INTRA:                   0.196
REMARK UNBOUND:                 0.214
REMARK  Name = 
REMARK  6 active torsions:
REMARK  status: ('A' for Active; 'I' for Inactive)
REMARK    1  A    between atoms: C_1  and  O_2
REMARK    2  A    between atoms: O_2  and  C_3
REMARK    3  A    between atoms: C_5  and  C_6
REMARK    4  A    between atoms: C_8  and  C_9
REMARK    5  A    between atoms: C_13  and  C_15
REMARK    6  A    between atoms: C_19  and  N_20
REMARK                            x       y       z     vdW  Elec       q    Type
REMARK                         _______ _______ _______ _____ _____    ______ ____
ROOT
ATOM      1  C   UNL     1       0.001   9.267  21.663  0.00  0.00    +0.076 C 
ATOM      2  C   UNL     1      -0.935  10.100  20.794  0.00  0.00    +0.002 C 
ATOM      3  C   UNL     1      -0.122  10.314  19.511  0.00  0.00    +0.107 C 
ATOM      4  N   UNL     1       0.708   9.113  19.399  0.00  0.00    -0.283 N 
ATOM      5  C   UNL     1       1.733   9.070  18.469  0.00  0.00    +0.247 C 
ATOM      6  O   UNL     1       1.988   9.993  17.703  0.00  0.00    -0.270 OA
ATOM      7  C   UNL     1       0.666   8.339  20.638  0.00  0.00    +0.042 C 
ATOM      8  H   UNL     1      -0.522   8.688  22.432  0.00  0.00    +0.061 HD
ATOM      9  H   UNL     1      -1.849   9.526  20.592  0.00  0.00    +0.031 HD
ATOM     10  H   UNL     1      -1.226  11.056  21.238  0.00  0.00    +0.031 HD
ATOM     11  H   UNL     1       0.543  11.181  19.614  0.00  0.00    +0.060 HD
ATOM     12  H   UNL     1       0.038   7.463  20.448  0.00  0.00    +0.049 HD
ATOM     13  H   UNL     1       1.669   8.028  20.944  0.00  0.00    +0.049 HD
ENDROOT
BRANCH   5  14
ATOM     14  C   UNL     1       2.553   7.838  18.388  0.00  0.00    +0.039 A 
ATOM     15  C   UNL     1       3.538   7.753  17.403  0.00  0.00    -0.050 A 
ATOM     16  C   UNL     1       4.310   6.598  17.305  0.00  0.00    -0.059 A 
ATOM     17  C   UNL     1       4.090   5.526  18.177  0.00  0.00    -0.038 A 
ATOM     18  C   UNL     1       3.082   5.594  19.152  0.00  0.00    +0.048 A 
ATOM     19  C   UNL     1       2.307   6.759  19.248  0.00  0.00    -0.026 A 
ATOM     20  H   UNL     1       3.701   8.580  16.716  0.00  0.00    +0.063 HD
ATOM     21  H   UNL     1       5.081   6.527  16.541  0.00  0.00    +0.062 HD
ATOM     22  H   UNL     1       4.719   4.649  18.050  0.00  0.00    +0.064 HD
ATOM     23  H   UNL     1       1.496   6.855  19.962  0.00  0.00    +0.065 HD
BRANCH  18  24
ATOM     24  N   UNL     1       2.844   4.494  20.031  0.00  0.00    -0.306 N 
ATOM     25  C   UNL     1       1.895   4.408  21.028  0.00  0.00    +0.029 A 
ATOM     26  C   UNL     1       2.056   3.171  21.606  0.00  0.00    +0.046 A 
ATOM     27  N   UNL     1       3.073   2.487  21.010  0.00  0.00    -0.244 NA
ATOM     28  C   UNL     1       3.521   3.292  20.073  0.00  0.00    +0.100 A 
ATOM     29  H   UNL     1       1.188   5.192  21.249  0.00  0.00    +0.083 HD
ATOM     30  H   UNL     1       1.489   2.741  22.423  0.00  0.00    +0.084 HD
ATOM     31  H   UNL     1       4.335   3.045  19.406  0.00  0.00    +0.103 HD
ENDBRANCH  18  24
ENDBRANCH   5  14
BRANCH   3  32
ATOM     32  C   UNL     1      -1.028  10.500  18.339  0.00  0.00    +0.248 A 
ATOM     33  N   UNL     1      -1.434   9.620  17.447  0.00  0.00    -0.195 NA
ATOM     34  C   UNL     1      -2.199  10.392  16.612  0.00  0.00    +0.169 A 
ATOM     35  N   UNL     1      -2.237  11.695  16.918  0.00  0.00    -0.062 NA
ATOM     36  O   UNL     1      -1.458  11.771  18.074  0.00  0.00    -0.336 OA
BRANCH  34  37
ATOM     37  C   UNL     1      -2.918   9.833  15.453  0.00  0.00    -0.001 C 
ATOM     38  H   UNL     1      -2.216   9.441  14.710  0.00  0.00    +0.031 HD
ATOM     39  H   UNL     1      -3.572   9.014  15.768  0.00  0.00    +0.031 HD
ATOM     40  H   UNL     1      -3.529  10.599  14.966  0.00  0.00    +0.031 HD
ENDBRANCH  34  37
ENDBRANCH   3  32
BRANCH   1  41
ATOM     41  O   UNL     1       1.007  10.086  22.265  0.00  0.00    -0.378 OA
BRANCH  41  42
ATOM     42  C   UNL     1       2.001   9.335  22.951  0.00  0.00    +0.037 C 
ATOM     43  H   UNL     1       2.827   9.975  23.272  0.00  0.00    +0.052 HD
ATOM     44  H   UNL     1       2.395   8.581  22.263  0.00  0.00    +0.052 HD
ATOM     45  H   UNL     1       1.565   8.824  23.813  0.00  0.00    +0.052 HD
ENDBRANCH  41  42
ENDBRANCH   1  41
TORSDOF 6
ENDMDL
MODEL 11
REMARK VINA RESULT:    -6.228      2.546      7.960
REMARK INTER + INTRA:          -7.835
REMARK INTER:                  -7.896
REMARK INTRA:                   0.061
REMARK UNBOUND:                 0.214
REMARK  Name = 
REMARK  6 active torsions:
REMARK  status: ('A' for Active; 'I' for Inactive)
REMARK    1  A    between atoms: C_1  and  O_2
REMARK    2  A    between atoms: O_2  and  C_3
REMARK    3  A    between atoms: C_5  and  C_6
REMARK    4  A    between atoms: C_8  and  C_9
REMARK    5  A    between atoms: C_13  and  C_15
REMARK    6  A    between atoms: C_19  and  N_20
REMARK                            x       y       z     vdW  Elec       q    Type
REMARK                         _______ _______ _______ _____ _____    ______ ____
ROOT
ATOM      1  C   UNL     1       0.443  11.048  21.267  0.00  0.00    +0.076 C 
ATOM      2  C   UNL     1      -0.649  11.446  20.281  0.00  0.00    +0.002 C 
ATOM      3  C   UNL     1      -0.158  10.848  18.956  0.00  0.00    +0.107 C 
ATOM      4  N   UNL     1       0.589   9.652  19.350  0.00  0.00    -0.283 N 
ATOM      5  C   UNL     1       1.362   8.986  18.414  0.00  0.00    +0.247 C 
ATOM      6  O   UNL     1       1.453   9.336  17.242  0.00  0.00    -0.270 OA
ATOM      7  C   UNL     1       0.821   9.639  20.793  0.00  0.00    +0.042 C 
ATOM      8  H   UNL     1       0.102  11.031  22.309  0.00  0.00    +0.061 HD
ATOM      9  H   UNL     1      -1.600  10.994  20.591  0.00  0.00    +0.031 HD
ATOM     10  H   UNL     1      -0.801  12.526  20.192  0.00  0.00    +0.031 HD
ATOM     11  H   UNL     1       0.535  11.535  18.455  0.00  0.00    +0.060 HD
ATOM     12  H   UNL     1       0.141   8.894  21.220  0.00  0.00    +0.049 HD
ATOM     13  H   UNL     1       1.858   9.383  21.024  0.00  0.00    +0.049 HD
ENDROOT
BRANCH   5  14
ATOM     14  C   UNL     1       2.105   7.781  18.851  0.00  0.00    +0.039 A 
ATOM     15  C   UNL     1       1.697   7.126  20.014  0.00  0.00    -0.050 A 
ATOM     16  C   UNL     1       2.391   5.998  20.445  0.00  0.00    -0.059 A 
ATOM     17  C   UNL     1       3.499   5.535  19.727  0.00  0.00    -0.038 A 
ATOM     18  C   UNL     1       3.934   6.205  18.572  0.00  0.00    +0.048 A 
ATOM     19  C   UNL     1       3.231   7.339  18.141  0.00  0.00    -0.026 A 
ATOM     20  H   UNL     1       0.844   7.493  20.580  0.00  0.00    +0.063 HD
ATOM     21  H   UNL     1       2.075   5.483  21.349  0.00  0.00    +0.062 HD
ATOM     22  H   UNL     1       4.005   4.654  20.114  0.00  0.00    +0.064 HD
ATOM     23  H   UNL     1       3.539   7.913  17.273  0.00  0.00    +0.065 HD
BRANCH  18  24
ATOM     24  N   UNL     1       5.074   5.744  17.849  0.00  0.00    -0.306 N 
ATOM     25  C   UNL     1       6.064   4.894  18.297  0.00  0.00    +0.029 A 
ATOM     26  C   UNL     1       6.950   4.750  17.255  0.00  0.00    +0.046 A 
ATOM     27  N   UNL     1       6.550   5.483  16.177  0.00  0.00    -0.244 NA
ATOM     28  C   UNL     1       5.430   6.059  16.553  0.00  0.00    +0.100 A 
ATOM     29  H   UNL     1       6.074   4.456  19.283  0.00  0.00    +0.083 HD
ATOM     30  H   UNL     1       7.855   4.156  17.230  0.00  0.00    +0.084 HD
ATOM     31  H   UNL     1       4.848   6.712  15.920  0.00  0.00    +0.103 HD
ENDBRANCH  18  24
ENDBRANCH   5  14
BRANCH   3  32
ATOM     32  C   UNL     1      -1.311  10.540  18.060  0.00  0.00    +0.248 A 
ATOM     33  N   UNL     1      -1.662  11.104  16.923  0.00  0.00    -0.195 NA
ATOM     34  C   UNL     1      -2.811  10.426  16.610  0.00  0.00    +0.169 A 
ATOM     35  N   UNL     1      -3.203   9.522  17.516  0.00  0.00    -0.062 NA
ATOM     36  O   UNL     1      -2.201   9.593  18.487  0.00  0.00    -0.336 OA
BRANCH  34  37
ATOM     37  C   UNL     1      -3.570  10.681  15.372  0.00  0.00    -0.001 C 
ATOM     38  H   UNL     1      -4.219  11.556  15.485  0.00  0.00    +0.031 HD
ATOM     39  H   UNL     1      -2.888  10.870  14.538  0.00  0.00    +0.031 HD
ATOM     40  H   UNL     1      -4.201   9.825  15.118  0.00  0.00    +0.031 HD
ENDBRANCH  34  37
ENDBRANCH   3  32
BRANCH   1  41
ATOM     41  O   UNL     1       1.585  11.900  21.140  0.00  0.00    -0.378 OA
BRANCH  41  42
ATOM     42  C   UNL     1       1.250  13.282  21.116  0.00  0.00    +0.037 C 
ATOM     43  H   UNL     1       1.616  13.760  20.203  0.00  0.00    +0.052 HD
ATOM     44  H   UNL     1       1.726  13.765  21.974  0.00  0.00    +0.052 HD
ATOM     45  H   UNL     1       0.168  13.413  21.201  0.00  0.00    +0.052 HD
ENDBRANCH  41  42
ENDBRANCH   1  41
TORSDOF 6
ENDMDL
MODEL 12
REMARK VINA RESULT:    -6.225      2.197      4.175
REMARK INTER + INTRA:          -7.831
REMARK INTER:                  -7.393
REMARK INTRA:                  -0.438
REMARK UNBOUND:                 0.214
REMARK  Name = 
REMARK  6 active torsions:
REMARK  status: ('A' for Active; 'I' for Inactive)
REMARK    1  A    between atoms: C_1  and  O_2
REMARK    2  A    between atoms: O_2  and  C_3
REMARK    3  A    between atoms: C_5  and  C_6
REMARK    4  A    between atoms: C_8  and  C_9
REMARK    5  A    between atoms: C_13  and  C_15
REMARK    6  A    between atoms: C_19  and  N_20
REMARK                            x       y       z     vdW  Elec       q    Type
REMARK                         _______ _______ _______ _____ _____    ______ ____
ROOT
ATOM      1  C   UNL     1       3.669   7.282  17.242  0.00  0.00    +0.076 C 
ATOM      2  C   UNL     1       3.566   5.911  17.900  0.00  0.00    +0.002 C 
ATOM      3  C   UNL     1       3.051   6.236  19.308  0.00  0.00    +0.107 C 
ATOM      4  N   UNL     1       2.232   7.437  19.129  0.00  0.00    -0.283 N 
ATOM      5  C   UNL     1       1.788   8.138  20.238  0.00  0.00    +0.247 C 
ATOM      6  O   UNL     1       2.034   7.800  21.391  0.00  0.00    -0.270 OA
ATOM      7  C   UNL     1       2.439   8.011  17.801  0.00  0.00    +0.042 C 
ATOM      8  H   UNL     1       3.635   7.242  16.148  0.00  0.00    +0.061 HD
ATOM      9  H   UNL     1       2.844   5.297  17.346  0.00  0.00    +0.031 HD
ATOM     10  H   UNL     1       4.513   5.363  17.945  0.00  0.00    +0.031 HD
ATOM     11  H   UNL     1       3.884   6.487  19.976  0.00  0.00    +0.060 HD
ATOM     12  H   UNL     1       1.550   7.775  17.207  0.00  0.00    +0.049 HD
ATOM     13  H   UNL     1       2.583   9.093  17.856  0.00  0.00    +0.049 HD
ENDROOT
BRANCH   5  14
ATOM     14  C   UNL     1       0.964   9.349  20.016  0.00  0.00    +0.039 A 
ATOM     15  C   UNL     1       1.143  10.446  20.860  0.00  0.00    -0.050 A 
ATOM     16  C   UNL     1       0.370  11.588  20.674  0.00  0.00    -0.059 A 
ATOM     17  C   UNL     1      -0.591  11.631  19.657  0.00  0.00    -0.038 A 
ATOM     18  C   UNL     1      -0.797  10.521  18.821  0.00  0.00    +0.048 A 
ATOM     19  C   UNL     1      -0.014   9.373  19.012  0.00  0.00    -0.026 A 
ATOM     20  H   UNL     1       1.880  10.408  21.660  0.00  0.00    +0.063 HD
ATOM     21  H   UNL     1       0.507  12.446  21.328  0.00  0.00    +0.062 HD
ATOM     22  H   UNL     1      -1.169  12.546  19.562  0.00  0.00    +0.064 HD
ATOM     23  H   UNL     1      -0.150   8.476  18.416  0.00  0.00    +0.065 HD
BRANCH  18  24
ATOM     24  N   UNL     1      -1.788  10.557  17.795  0.00  0.00    -0.306 N 
ATOM     25  C   UNL     1      -2.777  11.501  17.617  0.00  0.00    +0.029 A 
ATOM     26  C   UNL     1      -3.491  11.109  16.509  0.00  0.00    +0.046 A 
ATOM     27  N   UNL     1      -2.986   9.952  15.994  0.00  0.00    -0.244 NA
ATOM     28  C   UNL     1      -1.971   9.648  16.773  0.00  0.00    +0.100 A 
ATOM     29  H   UNL     1      -2.902  12.362  18.255  0.00  0.00    +0.083 HD
ATOM     30  H   UNL     1      -4.342  11.603  16.059  0.00  0.00    +0.084 HD
ATOM     31  H   UNL     1      -1.346   8.778  16.633  0.00  0.00    +0.103 HD
ENDBRANCH  18  24
ENDBRANCH   5  14
BRANCH   3  32
ATOM     32  C   UNL     1       2.277   5.087  19.863  0.00  0.00    +0.248 A 
ATOM     33  N   UNL     1       2.412   4.465  21.015  0.00  0.00    -0.195 NA
ATOM     34  C   UNL     1       1.458   3.485  20.925  0.00  0.00    +0.169 A 
ATOM     35  N   UNL     1       0.792   3.445  19.765  0.00  0.00    -0.062 NA
ATOM     36  O   UNL     1       1.333   4.517  19.052  0.00  0.00    -0.336 OA
BRANCH  34  37
ATOM     37  C   UNL     1       1.194   2.532  22.019  0.00  0.00    -0.001 C 
ATOM     38  H   UNL     1       1.663   2.867  22.950  0.00  0.00    +0.031 HD
ATOM     39  H   UNL     1       0.117   2.442  22.194  0.00  0.00    +0.031 HD
ATOM     40  H   UNL     1       1.591   1.542  21.778  0.00  0.00    +0.031 HD
ENDBRANCH  34  37
ENDBRANCH   3  32
BRANCH   1  41
ATOM     41  O   UNL     1       4.847   7.970  17.671  0.00  0.00    -0.378 OA
BRANCH  41  42
ATOM     42  C   UNL     1       6.045   7.264  17.371  0.00  0.00    +0.037 C 
ATOM     43  H   UNL     1       6.904   7.941  17.338  0.00  0.00    +0.052 HD
ATOM     44  H   UNL     1       5.932   6.802  16.386  0.00  0.00    +0.052 HD
ATOM     45  H   UNL     1       6.217   6.475  18.107  0.00  0.00    +0.052 HD
ENDBRANCH  41  42
ENDBRANCH   1  41
TORSDOF 6
ENDMDL
MODEL 13
REMARK VINA RESULT:    -6.070      2.176      4.194
REMARK INTER + INTRA:          -7.630
REMARK INTER:                  -6.861
REMARK INTRA:                  -0.769
REMARK UNBOUND:                 0.214
REMARK  Name = 
REMARK  6 active torsions:
REMARK  status: ('A' for Active; 'I' for Inactive)
REMARK    1  A    between atoms: C_1  and  O_2
REMARK    2  A    between atoms: O_2  and  C_3
REMARK    3  A    between atoms: C_5  and  C_6
REMARK    4  A    between atoms: C_8  and  C_9
REMARK    5  A    between atoms: C_13  and  C_15
REMARK    6  A    between atoms: C_19  and  N_20
REMARK                            x       y       z     vdW  Elec       q    Type
REMARK                         _______ _______ _______ _____ _____    ______ ____
ROOT
ATOM      1  C   UNL     1       4.012   7.046  17.025  0.00  0.00    +0.076 C 
ATOM      2  C   UNL     1       3.843   5.732  17.780  0.00  0.00    +0.002 C 
ATOM      3  C   UNL     1       3.216   6.171  19.110  0.00  0.00    +0.107 C 
ATOM      4  N   UNL     1       2.426   7.355  18.768  0.00  0.00    -0.283 N 
ATOM      5  C   UNL     1       1.899   8.144  19.777  0.00  0.00    +0.247 C 
ATOM      6  O   UNL     1       2.045   7.900  20.970  0.00  0.00    -0.270 OA
ATOM      7  C   UNL     1       2.748   7.820  17.420  0.00  0.00    +0.042 C 
ATOM      8  H   UNL     1       4.069   6.919  15.939  0.00  0.00    +0.061 HD
ATOM      9  H   UNL     1       3.164   5.077  17.219  0.00  0.00    +0.031 HD
ATOM     10  H   UNL     1       4.778   5.188  17.947  0.00  0.00    +0.031 HD
ATOM     11  H   UNL     1       3.993   6.472  19.823  0.00  0.00    +0.060 HD
ATOM     12  H   UNL     1       1.908   7.540  16.775  0.00  0.00    +0.049 HD
ATOM     13  H   UNL     1       2.896   8.903  17.401  0.00  0.00    +0.049 HD
ENDROOT
BRANCH   5  14
ATOM     14  C   UNL     1       1.107   9.336  19.391  0.00  0.00    +0.039 A 
ATOM     15  C   UNL     1      -0.266   9.191  19.186  0.00  0.00    -0.050 A 
ATOM     16  C   UNL     1      -1.023  10.297  18.812  0.00  0.00    -0.059 A 
ATOM     17  C   UNL     1      -0.411  11.542  18.630  0.00  0.00    -0.038 A 
ATOM     18  C   UNL     1       0.974  11.690  18.807  0.00  0.00    +0.048 A 
ATOM     19  C   UNL     1       1.733  10.573  19.185  0.00  0.00    -0.026 A 
ATOM     20  H   UNL     1      -0.740   8.220  19.314  0.00  0.00    +0.063 HD
ATOM     21  H   UNL     1      -2.094  10.190  18.653  0.00  0.00    +0.062 HD
ATOM     22  H   UNL     1      -1.051  12.369  18.333  0.00  0.00    +0.064 HD
ATOM     23  H   UNL     1       2.811  10.622  19.307  0.00  0.00    +0.065 HD
BRANCH  18  24
ATOM     24  N   UNL     1       1.603  12.955  18.604  0.00  0.00    -0.306 N 
ATOM     25  C   UNL     1       2.880  13.192  18.139  0.00  0.00    +0.029 A 
ATOM     26  C   UNL     1       3.037  14.558  18.124  0.00  0.00    +0.046 A 
ATOM     27  N   UNL     1       1.908  15.179  18.567  0.00  0.00    -0.244 NA
ATOM     28  C   UNL     1       1.068  14.205  18.840  0.00  0.00    +0.100 A 
ATOM     29  H   UNL     1       3.565  12.410  17.852  0.00  0.00    +0.083 HD
ATOM     30  H   UNL     1       3.909  15.122  17.816  0.00  0.00    +0.084 HD
ATOM     31  H   UNL     1       0.067  14.362  19.213  0.00  0.00    +0.103 HD
ENDBRANCH  18  24
ENDBRANCH   5  14
BRANCH   3  32
ATOM     32  C   UNL     1       2.388   5.072  19.688  0.00  0.00    +0.248 A 
ATOM     33  N   UNL     1       2.494   4.469  20.853  0.00  0.00    -0.195 NA
ATOM     34  C   UNL     1       1.495   3.534  20.784  0.00  0.00    +0.169 A 
ATOM     35  N   UNL     1       0.827   3.501  19.624  0.00  0.00    -0.062 NA
ATOM     36  O   UNL     1       1.419   4.531  18.889  0.00  0.00    -0.336 OA
BRANCH  34  37
ATOM     37  C   UNL     1       1.186   2.618  21.897  0.00  0.00    -0.001 C 
ATOM     38  H   UNL     1       1.994   1.893  22.042  0.00  0.00    +0.031 HD
ATOM     39  H   UNL     1       1.061   3.178  22.829  0.00  0.00    +0.031 HD
ATOM     40  H   UNL     1       0.265   2.061  21.700  0.00  0.00    +0.031 HD
ENDBRANCH  34  37
ENDBRANCH   3  32
BRANCH   1  41
ATOM     41  O   UNL     1       5.158   7.763  17.494  0.00  0.00    -0.378 OA
BRANCH  41  42
ATOM     42  C   UNL     1       6.380   7.072  17.267  0.00  0.00    +0.037 C 
ATOM     43  H   UNL     1       7.205   7.773  17.112  0.00  0.00    +0.052 HD
ATOM     44  H   UNL     1       6.267   6.467  16.363  0.00  0.00    +0.052 HD
ATOM     45  H   UNL     1       6.603   6.407  18.104  0.00  0.00    +0.052 HD
ENDBRANCH  41  42
ENDBRANCH   1  41
TORSDOF 6
ENDMDL
MODEL 14
REMARK VINA RESULT:    -6.069      2.938      5.589
REMARK INTER + INTRA:          -7.630
REMARK INTER:                  -8.362
REMARK INTRA:                   0.733
REMARK UNBOUND:                 0.214
REMARK  Name = 
REMARK  6 active torsions:
REMARK  status: ('A' for Active; 'I' for Inactive)
REMARK    1  A    between atoms: C_1  and  O_2
REMARK    2  A    between atoms: O_2  and  C_3
REMARK    3  A    between atoms: C_5  and  C_6
REMARK    4  A    between atoms: C_8  and  C_9
REMARK    5  A    between atoms: C_13  and  C_15
REMARK    6  A    between atoms: C_19  and  N_20
REMARK                            x       y       z     vdW  Elec       q    Type
REMARK                         _______ _______ _______ _____ _____    ______ ____
ROOT
ATOM      1  C   UNL     1       7.195   6.511  17.480  0.00  0.00    +0.076 C 
ATOM      2  C   UNL     1       7.528   6.003  16.081  0.00  0.00    +0.002 C 
ATOM      3  C   UNL     1       6.767   4.673  16.002  0.00  0.00    +0.107 C 
ATOM      4  N   UNL     1       5.591   4.874  16.850  0.00  0.00    -0.283 N 
ATOM      5  C   UNL     1       4.793   3.793  17.186  0.00  0.00    +0.247 C 
ATOM      6  O   UNL     1       5.008   2.650  16.797  0.00  0.00    -0.270 OA
ATOM      7  C   UNL     1       5.727   6.096  17.642  0.00  0.00    +0.042 C 
ATOM      8  H   UNL     1       7.307   7.596  17.585  0.00  0.00    +0.061 HD
ATOM      9  H   UNL     1       7.154   6.719  15.337  0.00  0.00    +0.031 HD
ATOM     10  H   UNL     1       8.597   5.855  15.901  0.00  0.00    +0.031 HD
ATOM     11  H   UNL     1       7.364   3.860  16.432  0.00  0.00    +0.060 HD
ATOM     12  H   UNL     1       5.064   6.843  17.195  0.00  0.00    +0.049 HD
ATOM     13  H   UNL     1       5.454   5.922  18.686  0.00  0.00    +0.049 HD
ENDROOT
BRANCH   5  14
ATOM     14  C   UNL     1       3.613   4.036  18.049  0.00  0.00    +0.039 A 
ATOM     15  C   UNL     1       2.781   2.961  18.365  0.00  0.00    -0.050 A 
ATOM     16  C   UNL     1       1.662   3.173  19.165  0.00  0.00    -0.059 A 
ATOM     17  C   UNL     1       1.364   4.457  19.635  0.00  0.00    -0.038 A 
ATOM     18  C   UNL     1       2.180   5.549  19.298  0.00  0.00    +0.048 A 
ATOM     19  C   UNL     1       3.308   5.330  18.493  0.00  0.00    -0.026 A 
ATOM     20  H   UNL     1       3.005   1.965  17.988  0.00  0.00    +0.063 HD
ATOM     21  H   UNL     1       1.011   2.338  19.416  0.00  0.00    +0.062 HD
ATOM     22  H   UNL     1       0.474   4.563  20.250  0.00  0.00    +0.064 HD
ATOM     23  H   UNL     1       3.956   6.141  18.177  0.00  0.00    +0.065 HD
BRANCH  18  24
ATOM     24  N   UNL     1       1.868   6.862  19.763  0.00  0.00    -0.306 N 
ATOM     25  C   UNL     1       1.380   7.218  21.002  0.00  0.00    +0.029 A 
ATOM     26  C   UNL     1       1.227   8.584  20.978  0.00  0.00    +0.046 A 
ATOM     27  N   UNL     1       1.597   9.090  19.768  0.00  0.00    -0.244 NA
ATOM     28  C   UNL     1       1.979   8.047  19.065  0.00  0.00    +0.100 A 
ATOM     29  H   UNL     1       1.188   6.512  21.795  0.00  0.00    +0.083 HD
ATOM     30  H   UNL     1       0.869   9.227  21.773  0.00  0.00    +0.084 HD
ATOM     31  H   UNL     1       2.341   8.106  18.049  0.00  0.00    +0.103 HD
ENDBRANCH  18  24
ENDBRANCH   5  14
BRANCH   3  32
ATOM     32  C   UNL     1       6.412   4.355  14.588  0.00  0.00    +0.248 A 
ATOM     33  N   UNL     1       5.297   3.855  14.098  0.00  0.00    -0.195 NA
ATOM     34  C   UNL     1       5.592   3.752  12.763  0.00  0.00    +0.169 A 
ATOM     35  N   UNL     1       6.837   4.111  12.427  0.00  0.00    -0.062 NA
ATOM     36  O   UNL     1       7.388   4.519  13.644  0.00  0.00    -0.336 OA
BRANCH  34  37
ATOM     37  C   UNL     1       4.616   3.267  11.770  0.00  0.00    -0.001 C 
ATOM     38  H   UNL     1       4.964   3.466  10.751  0.00  0.00    +0.031 HD
ATOM     39  H   UNL     1       4.471   2.187  11.875  0.00  0.00    +0.031 HD
ATOM     40  H   UNL     1       3.649   3.762  11.899  0.00  0.00    +0.031 HD
ENDBRANCH  34  37
ENDBRANCH   3  32
BRANCH   1  41
ATOM     41  O   UNL     1       7.978   5.839  18.470  0.00  0.00    -0.378 OA
BRANCH  41  42
ATOM     42  C   UNL     1       7.239   5.522  19.643  0.00  0.00    +0.037 C 
ATOM     43  H   UNL     1       7.885   5.519  20.526  0.00  0.00    +0.052 HD
ATOM     44  H   UNL     1       6.817   4.520  19.521  0.00  0.00    +0.052 HD
ATOM     45  H   UNL     1       6.418   6.230  19.780  0.00  0.00    +0.052 HD
ENDBRANCH  41  42
ENDBRANCH   1  41
TORSDOF 6
ENDMDL
MODEL 15
REMARK VINA RESULT:    -6.011      2.215      4.293
REMARK INTER + INTRA:          -7.555
REMARK INTER:                  -7.874
REMARK INTRA:                   0.319
REMARK UNBOUND:                 0.214
REMARK  Name = 
REMARK  6 active torsions:
REMARK  status: ('A' for Active; 'I' for Inactive)
REMARK    1  A    between atoms: C_1  and  O_2
REMARK    2  A    between atoms: O_2  and  C_3
REMARK    3  A    between atoms: C_5  and  C_6
REMARK    4  A    between atoms: C_8  and  C_9
REMARK    5  A    between atoms: C_13  and  C_15
REMARK    6  A    between atoms: C_19  and  N_20
REMARK                            x       y       z     vdW  Elec       q    Type
REMARK                         _______ _______ _______ _____ _____    ______ ____
ROOT
ATOM      1  C   UNL     1       4.046   6.769  17.216  0.00  0.00    +0.076 C 
ATOM      2  C   UNL     1       3.865   5.437  17.936  0.00  0.00    +0.002 C 
ATOM      3  C   UNL     1       3.253   5.847  19.281  0.00  0.00    +0.107 C 
ATOM      4  N   UNL     1       2.476   7.050  18.977  0.00  0.00    -0.283 N 
ATOM      5  C   UNL     1       1.965   7.818  20.010  0.00  0.00    +0.247 C 
ATOM      6  O   UNL     1       2.115   7.540  21.195  0.00  0.00    -0.270 OA
ATOM      7  C   UNL     1       2.794   7.548  17.640  0.00  0.00    +0.042 C 
ATOM      8  H   UNL     1       4.095   6.670  16.126  0.00  0.00    +0.061 HD
ATOM      9  H   UNL     1       3.174   4.806  17.362  0.00  0.00    +0.031 HD
ATOM     10  H   UNL     1       4.794   4.877  18.082  0.00  0.00    +0.031 HD
ATOM     11  H   UNL     1       4.038   6.119  19.997  0.00  0.00    +0.060 HD
ATOM     12  H   UNL     1       1.948   7.295  16.993  0.00  0.00    +0.049 HD
ATOM     13  H   UNL     1       2.957   8.629  17.649  0.00  0.00    +0.049 HD
ENDROOT
BRANCH   5  14
ATOM     14  C   UNL     1       1.186   9.030  19.663  0.00  0.00    +0.039 A 
ATOM     15  C   UNL     1       1.307   9.559  18.377  0.00  0.00    -0.050 A 
ATOM     16  C   UNL     1       0.591  10.703  18.037  0.00  0.00    -0.059 A 
ATOM     17  C   UNL     1      -0.232  11.327  18.981  0.00  0.00    -0.038 A 
ATOM     18  C   UNL     1      -0.338  10.817  20.286  0.00  0.00    +0.048 A 
ATOM     19  C   UNL     1       0.385   9.663  20.623  0.00  0.00    -0.026 A 
ATOM     20  H   UNL     1       1.957   9.082  17.647  0.00  0.00    +0.063 HD
ATOM     21  H   UNL     1       0.680  11.119  17.036  0.00  0.00    +0.062 HD
ATOM     22  H   UNL     1      -0.762  12.220  18.661  0.00  0.00    +0.064 HD
ATOM     23  H   UNL     1       0.364   9.242  21.624  0.00  0.00    +0.065 HD
BRANCH  18  24
ATOM     24  N   UNL     1      -1.163  11.462  21.255  0.00  0.00    -0.306 N 
ATOM     25  C   UNL     1      -2.105  12.444  21.033  0.00  0.00    +0.029 A 
ATOM     26  C   UNL     1      -2.632  12.758  22.264  0.00  0.00    +0.046 A 
ATOM     27  N   UNL     1      -2.049  12.011  23.244  0.00  0.00    -0.244 NA
ATOM     28  C   UNL     1      -1.184  11.244  22.617  0.00  0.00    +0.100 A 
ATOM     29  H   UNL     1      -2.340  12.837  20.056  0.00  0.00    +0.083 HD
ATOM     30  H   UNL     1      -3.402  13.485  22.491  0.00  0.00    +0.084 HD
ATOM     31  H   UNL     1      -0.552  10.521  23.113  0.00  0.00    +0.103 HD
ENDBRANCH  18  24
ENDBRANCH   5  14
BRANCH   3  32
ATOM     32  C   UNL     1       2.414   4.743  19.835  0.00  0.00    +0.248 A 
ATOM     33  N   UNL     1       2.498   4.131  20.998  0.00  0.00    -0.195 NA
ATOM     34  C   UNL     1       1.501   3.196  20.901  0.00  0.00    +0.169 A 
ATOM     35  N   UNL     1       0.855   3.173  19.729  0.00  0.00    -0.062 NA
ATOM     36  O   UNL     1       1.460   4.208  19.014  0.00  0.00    -0.336 OA
BRANCH  34  37
ATOM     37  C   UNL     1       1.172   2.272  22.001  0.00  0.00    -0.001 C 
ATOM     38  H   UNL     1       2.050   1.689  22.298  0.00  0.00    +0.031 HD
ATOM     39  H   UNL     1       0.822   2.829  22.876  0.00  0.00    +0.031 HD
ATOM     40  H   UNL     1       0.387   1.570  21.700  0.00  0.00    +0.031 HD
ENDBRANCH  34  37
ENDBRANCH   3  32
BRANCH   1  41
ATOM     41  O   UNL     1       5.204   7.459  17.697  0.00  0.00    -0.378 OA
BRANCH  41  42
ATOM     42  C   UNL     1       6.423   6.828  17.325  0.00  0.00    +0.037 C 
ATOM     43  H   UNL     1       6.530   6.789  16.237  0.00  0.00    +0.052 HD
ATOM     44  H   UNL     1       6.409   5.804  17.708  0.00  0.00    +0.052 HD
ATOM     45  H   UNL     1       7.274   7.352  17.768  0.00  0.00    +0.052 HD
ENDBRANCH  41  42
ENDBRANCH   1  41
TORSDOF 6
ENDMDL
MODEL 16
REMARK VINA RESULT:    -5.945      3.970      9.285
REMARK INTER + INTRA:          -7.469
REMARK INTER:                  -6.637
REMARK INTRA:                  -0.832
REMARK UNBOUND:                 0.214
REMARK  Name = 
REMARK  6 active torsions:
REMARK  status: ('A' for Active; 'I' for Inactive)
REMARK    1  A    between atoms: C_1  and  O_2
REMARK    2  A    between atoms: O_2  and  C_3
REMARK    3  A    between atoms: C_5  and  C_6
REMARK    4  A    between atoms: C_8  and  C_9
REMARK    5  A    between atoms: C_13  and  C_15
REMARK    6  A    between atoms: C_19  and  N_20
REMARK                            x       y       z     vdW  Elec       q    Type
REMARK                         _______ _______ _______ _____ _____    ______ ____
ROOT
ATOM      1  C   UNL     1       1.521  14.475  19.947  0.00  0.00    +0.076 C 
ATOM      2  C   UNL     1       0.273  15.267  20.319  0.00  0.00    +0.002 C 
ATOM      3  C   UNL     1      -0.845  14.221  20.225  0.00  0.00    +0.107 C 
ATOM      4  N   UNL     1      -0.195  12.958  20.579  0.00  0.00    -0.283 N 
ATOM      5  C   UNL     1      -0.864  11.762  20.381  0.00  0.00    +0.247 C 
ATOM      6  O   UNL     1      -2.002  11.692  19.928  0.00  0.00    -0.270 OA
ATOM      7  C   UNL     1       1.258  13.113  20.604  0.00  0.00    +0.042 C 
ATOM      8  H   UNL     1       2.447  14.919  20.329  0.00  0.00    +0.061 HD
ATOM      9  H   UNL     1       0.376  15.645  21.344  0.00  0.00    +0.031 HD
ATOM     10  H   UNL     1       0.071  16.119  19.662  0.00  0.00    +0.031 HD
ATOM     11  H   UNL     1      -1.213  14.139  19.194  0.00  0.00    +0.060 HD
ATOM     12  H   UNL     1       1.561  13.128  21.655  0.00  0.00    +0.049 HD
ATOM     13  H   UNL     1       1.752  12.292  20.077  0.00  0.00    +0.049 HD
ENDROOT
BRANCH   5  14
ATOM     14  C   UNL     1      -0.173  10.504  20.750  0.00  0.00    +0.039 A 
ATOM     15  C   UNL     1      -0.283  10.038  22.060  0.00  0.00    -0.050 A 
ATOM     16  C   UNL     1       0.369   8.864  22.427  0.00  0.00    -0.059 A 
ATOM     17  C   UNL     1       1.143   8.165  21.493  0.00  0.00    -0.038 A 
ATOM     18  C   UNL     1       1.282   8.643  20.180  0.00  0.00    +0.048 A 
ATOM     19  C   UNL     1       0.622   9.826  19.815  0.00  0.00    -0.026 A 
ATOM     20  H   UNL     1      -0.873  10.587  22.791  0.00  0.00    +0.063 HD
ATOM     21  H   UNL     1       0.285   8.494  23.447  0.00  0.00    +0.062 HD
ATOM     22  H   UNL     1       1.633   7.259  21.838  0.00  0.00    +0.064 HD
ATOM     23  H   UNL     1       0.717  10.257  18.823  0.00  0.00    +0.065 HD
BRANCH  18  24
ATOM     24  N   UNL     1       2.084   7.941  19.231  0.00  0.00    -0.306 N 
ATOM     25  C   UNL     1       2.540   6.643  19.317  0.00  0.00    +0.029 A 
ATOM     26  C   UNL     1       3.277   6.417  18.178  0.00  0.00    +0.046 A 
ATOM     27  N   UNL     1       3.300   7.529  17.389  0.00  0.00    -0.244 NA
ATOM     28  C   UNL     1       2.579   8.419  18.035  0.00  0.00    +0.100 A 
ATOM     29  H   UNL     1       2.316   5.984  20.141  0.00  0.00    +0.083 HD
ATOM     30  H   UNL     1       3.792   5.509  17.888  0.00  0.00    +0.084 HD
ATOM     31  H   UNL     1       2.393   9.419  17.672  0.00  0.00    +0.103 HD
ENDBRANCH  18  24
ENDBRANCH   5  14
BRANCH   3  32
ATOM     32  C   UNL     1      -1.969  14.570  21.143  0.00  0.00    +0.248 A 
ATOM     33  N   UNL     1      -1.982  14.649  22.457  0.00  0.00    -0.195 NA
ATOM     34  C   UNL     1      -3.292  14.960  22.712  0.00  0.00    +0.169 A 
ATOM     35  N   UNL     1      -4.082  15.021  21.634  0.00  0.00    -0.062 NA
ATOM     36  O   UNL     1      -3.201  14.764  20.581  0.00  0.00    -0.336 OA
BRANCH  34  37
ATOM     37  C   UNL     1      -3.801  15.195  24.076  0.00  0.00    -0.001 C 
ATOM     38  H   UNL     1      -3.169  15.912  24.611  0.00  0.00    +0.031 HD
ATOM     39  H   UNL     1      -4.817  15.600  24.039  0.00  0.00    +0.031 HD
ATOM     40  H   UNL     1      -3.818  14.265  24.652  0.00  0.00    +0.031 HD
ENDBRANCH  34  37
ENDBRANCH   3  32
BRANCH   1  41
ATOM     41  O   UNL     1       1.612  14.295  18.531  0.00  0.00    -0.378 OA
BRANCH  41  42
ATOM     42  C   UNL     1       2.437  13.197  18.160  0.00  0.00    +0.037 C 
ATOM     43  H   UNL     1       3.412  13.539  17.805  0.00  0.00    +0.052 HD
ATOM     44  H   UNL     1       1.942  12.658  17.347  0.00  0.00    +0.052 HD
ATOM     45  H   UNL     1       2.563  12.513  19.003  0.00  0.00    +0.052 HD
ENDBRANCH  41  42
ENDBRANCH   1  41
TORSDOF 6
ENDMDL
MODEL 17
REMARK VINA RESULT:    -5.885      3.310      8.622
REMARK INTER + INTRA:          -7.392
REMARK INTER:                  -6.912
REMARK INTRA:                  -0.480
REMARK UNBOUND:                 0.214
REMARK  Name = 
REMARK  6 active torsions:
REMARK  status: ('A' for Active; 'I' for Inactive)
REMARK    1  A    between atoms: C_1  and  O_2
REMARK    2  A    between atoms: O_2  and  C_3
REMARK    3  A    between atoms: C_5  and  C_6
REMARK    4  A    between atoms: C_8  and  C_9
REMARK    5  A    between atoms: C_13  and  C_15
REMARK    6  A    between atoms: C_19  and  N_20
REMARK                            x       y       z     vdW  Elec       q    Type
REMARK                         _______ _______ _______ _____ _____    ______ ____
ROOT
ATOM      1  C   UNL     1       1.930  13.748  20.104  0.00  0.00    +0.076 C 
ATOM      2  C   UNL     1       0.711  13.884  21.008  0.00  0.00    +0.002 C 
ATOM      3  C   UNL     1      -0.202  12.743  20.538  0.00  0.00    +0.107 C 
ATOM      4  N   UNL     1       0.721  11.702  20.081  0.00  0.00    -0.283 N 
ATOM      5  C   UNL     1       0.234  10.611  19.382  0.00  0.00    +0.247 C 
ATOM      6  O   UNL     1      -0.955  10.450  19.126  0.00  0.00    -0.270 OA
ATOM      7  C   UNL     1       2.081  12.227  19.977  0.00  0.00    +0.042 C 
ATOM      8  H   UNL     1       2.836  14.197  20.526  0.00  0.00    +0.061 HD
ATOM      9  H   UNL     1       1.017  13.741  22.053  0.00  0.00    +0.031 HD
ATOM     10  H   UNL     1       0.202  14.850  20.933  0.00  0.00    +0.031 HD
ATOM     11  H   UNL     1      -0.810  13.061  19.683  0.00  0.00    +0.060 HD
ATOM     12  H   UNL     1       2.646  11.825  20.825  0.00  0.00    +0.049 HD
ATOM     13  H   UNL     1       2.548  11.929  19.034  0.00  0.00    +0.049 HD
ENDROOT
BRANCH   5  14
ATOM     14  C   UNL     1       1.199   9.580  18.933  0.00  0.00    +0.039 A 
ATOM     15  C   UNL     1       1.965   9.829  17.794  0.00  0.00    -0.050 A 
ATOM     16  C   UNL     1       2.868   8.867  17.351  0.00  0.00    -0.059 A 
ATOM     17  C   UNL     1       2.996   7.652  18.035  0.00  0.00    -0.038 A 
ATOM     18  C   UNL     1       2.208   7.382  19.166  0.00  0.00    +0.048 A 
ATOM     19  C   UNL     1       1.301   8.356  19.608  0.00  0.00    -0.026 A 
ATOM     20  H   UNL     1       1.856  10.767  17.254  0.00  0.00    +0.063 HD
ATOM     21  H   UNL     1       3.469   9.057  16.465  0.00  0.00    +0.062 HD
ATOM     22  H   UNL     1       3.713   6.937  17.640  0.00  0.00    +0.064 HD
ATOM     23  H   UNL     1       0.646   8.189  20.458  0.00  0.00    +0.065 HD
BRANCH  18  24
ATOM     24  N   UNL     1       2.325   6.137  19.854  0.00  0.00    -0.306 N 
ATOM     25  C   UNL     1       1.519   5.660  20.866  0.00  0.00    +0.029 A 
ATOM     26  C   UNL     1       2.027   4.431  21.216  0.00  0.00    +0.046 A 
ATOM     27  N   UNL     1       3.121   4.128  20.462  0.00  0.00    -0.244 NA
ATOM     28  C   UNL     1       3.274   5.155  19.656  0.00  0.00    +0.100 A 
ATOM     29  H   UNL     1       0.667   6.196  21.254  0.00  0.00    +0.083 HD
ATOM     30  H   UNL     1       1.657   3.751  21.974  0.00  0.00    +0.084 HD
ATOM     31  H   UNL     1       4.060   5.228  18.918  0.00  0.00    +0.103 HD
ENDBRANCH  18  24
ENDBRANCH   5  14
BRANCH   3  32
ATOM     32  C   UNL     1      -1.084  12.284  21.651  0.00  0.00    +0.248 A 
ATOM     33  N   UNL     1      -2.194  12.819  22.114  0.00  0.00    -0.195 NA
ATOM     34  C   UNL     1      -2.506  11.978  23.151  0.00  0.00    +0.169 A 
ATOM     35  N   UNL     1      -1.621  10.999  23.375  0.00  0.00    -0.062 NA
ATOM     36  O   UNL     1      -0.670  11.197  22.372  0.00  0.00    -0.336 OA
BRANCH  34  37
ATOM     37  C   UNL     1      -3.719  12.148  23.972  0.00  0.00    -0.001 C 
ATOM     38  H   UNL     1      -3.568  11.746  24.979  0.00  0.00    +0.031 HD
ATOM     39  H   UNL     1      -3.972  13.209  24.064  0.00  0.00    +0.031 HD
ATOM     40  H   UNL     1      -4.569  11.625  23.525  0.00  0.00    +0.031 HD
ENDBRANCH  34  37
ENDBRANCH   3  32
BRANCH   1  41
ATOM     41  O   UNL     1       1.671  14.296  18.808  0.00  0.00    -0.378 OA
BRANCH  41  42
ATOM     42  C   UNL     1       2.691  13.997  17.862  0.00  0.00    +0.037 C 
ATOM     43  H   UNL     1       3.681  14.033  18.326  0.00  0.00    +0.052 HD
ATOM     44  H   UNL     1       2.654  14.751  17.070  0.00  0.00    +0.052 HD
ATOM     45  H   UNL     1       2.521  13.015  17.415  0.00  0.00    +0.052 HD
ENDBRANCH  41  42
ENDBRANCH   1  41
TORSDOF 6
ENDMDL
MODEL 18
REMARK VINA RESULT:    -5.857      3.009      4.425
REMARK INTER + INTRA:          -7.355
REMARK INTER:                  -7.563
REMARK INTRA:                   0.208
REMARK UNBOUND:                 0.214
REMARK  Name = 
REMARK  6 active torsions:
REMARK  status: ('A' for Active; 'I' for Inactive)
REMARK    1  A    between atoms: C_1  and  O_2
REMARK    2  A    between atoms: O_2  and  C_3
REMARK    3  A    between atoms: C_5  and  C_6
REMARK    4  A    between atoms: C_8  and  C_9
REMARK    5  A    between atoms: C_13  and  C_15
REMARK    6  A    between atoms: C_19  and  N_20
REMARK                            x       y       z     vdW  Elec       q    Type
REMARK                         _______ _______ _______ _____ _____    ______ ____
ROOT
ATOM      1  C   UNL     1       5.975   4.000  16.706  0.00  0.00    +0.076 C 
ATOM      2  C   UNL     1       7.084   5.044  16.648  0.00  0.00    +0.002 C 
ATOM      3  C   UNL     1       6.336   6.362  16.884  0.00  0.00    +0.107 C 
ATOM      4  N   UNL     1       5.212   5.994  17.748  0.00  0.00    -0.283 N 
ATOM      5  C   UNL     1       4.197   6.907  17.981  0.00  0.00    +0.247 C 
ATOM      6  O   UNL     1       4.186   8.038  17.507  0.00  0.00    -0.270 OA
ATOM      7  C   UNL     1       5.068   4.542  17.817  0.00  0.00    +0.042 C 
ATOM      8  H   UNL     1       6.338   2.995  16.952  0.00  0.00    +0.061 HD
ATOM      9  H   UNL     1       7.807   4.850  17.450  0.00  0.00    +0.031 HD
ATOM     10  H   UNL     1       7.630   5.067  15.699  0.00  0.00    +0.031 HD
ATOM     11  H   UNL     1       5.930   6.751  15.942  0.00  0.00    +0.060 HD
ATOM     12  H   UNL     1       5.435   4.229  18.800  0.00  0.00    +0.049 HD
ATOM     13  H   UNL     1       4.024   4.242  17.689  0.00  0.00    +0.049 HD
ENDROOT
BRANCH   5  14
ATOM     14  C   UNL     1       3.076   6.497  18.858  0.00  0.00    +0.039 A 
ATOM     15  C   UNL     1       2.599   5.188  18.770  0.00  0.00    -0.050 A 
ATOM     16  C   UNL     1       1.538   4.789  19.579  0.00  0.00    -0.059 A 
ATOM     17  C   UNL     1       0.945   5.698  20.463  0.00  0.00    -0.038 A 
ATOM     18  C   UNL     1       1.401   7.024  20.537  0.00  0.00    +0.048 A 
ATOM     19  C   UNL     1       2.470   7.421  19.721  0.00  0.00    -0.026 A 
ATOM     20  H   UNL     1       3.050   4.486  18.073  0.00  0.00    +0.063 HD
ATOM     21  H   UNL     1       1.164   3.770  19.515  0.00  0.00    +0.062 HD
ATOM     22  H   UNL     1       0.117   5.332  21.065  0.00  0.00    +0.064 HD
ATOM     23  H   UNL     1       2.844   8.440  19.716  0.00  0.00    +0.065 HD
BRANCH  18  24
ATOM     24  N   UNL     1       0.786   7.956  21.426  0.00  0.00    -0.306 N 
ATOM     25  C   UNL     1       1.412   8.865  22.253  0.00  0.00    +0.029 A 
ATOM     26  C   UNL     1       0.412   9.532  22.921  0.00  0.00    +0.046 A 
ATOM     27  N   UNL     1      -0.813   9.067  22.544  0.00  0.00    -0.244 NA
ATOM     28  C   UNL     1      -0.564   8.136  21.650  0.00  0.00    +0.100 A 
ATOM     29  H   UNL     1       2.483   8.984  22.307  0.00  0.00    +0.083 HD
ATOM     30  H   UNL     1       0.515  10.322  23.654  0.00  0.00    +0.084 HD
ATOM     31  H   UNL     1      -1.331   7.567  21.145  0.00  0.00    +0.103 HD
ENDBRANCH  18  24
ENDBRANCH   5  14
BRANCH   3  32
ATOM     32  C   UNL     1       7.238   7.374  17.510  0.00  0.00    +0.248 A 
ATOM     33  N   UNL     1       7.453   8.627  17.170  0.00  0.00    -0.195 NA
ATOM     34  C   UNL     1       8.403   9.012  18.080  0.00  0.00    +0.169 A 
ATOM     35  N   UNL     1       8.812   8.049  18.915  0.00  0.00    -0.062 NA
ATOM     36  O   UNL     1       8.033   6.952  18.540  0.00  0.00    -0.336 OA
BRANCH  34  37
ATOM     37  C   UNL     1       8.947  10.381  18.128  0.00  0.00    -0.001 C 
ATOM     38  H   UNL     1       8.433  10.980  18.886  0.00  0.00    +0.031 HD
ATOM     39  H   UNL     1      10.013  10.359  18.377  0.00  0.00    +0.031 HD
ATOM     40  H   UNL     1       8.826  10.883  17.163  0.00  0.00    +0.031 HD
ENDBRANCH  34  37
ENDBRANCH   3  32
BRANCH   1  41
ATOM     41  O   UNL     1       5.237   3.967  15.481  0.00  0.00    -0.378 OA
BRANCH  41  42
ATOM     42  C   UNL     1       6.068   4.005  14.327  0.00  0.00    +0.037 C 
ATOM     43  H   UNL     1       6.889   3.286  14.409  0.00  0.00    +0.052 HD
ATOM     44  H   UNL     1       6.495   5.009  14.246  0.00  0.00    +0.052 HD
ATOM     45  H   UNL     1       5.481   3.803  13.427  0.00  0.00    +0.052 HD
ENDBRANCH  41  42
ENDBRANCH   1  41
TORSDOF 6
ENDMDL
MODEL 19
REMARK VINA RESULT:    -5.821      2.746      7.582
REMARK INTER + INTRA:          -7.308
REMARK INTER:                  -7.692
REMARK INTRA:                   0.383
REMARK UNBOUND:                 0.214
REMARK  Name = 
REMARK  6 active torsions:
REMARK  status: ('A' for Active; 'I' for Inactive)
REMARK    1  A    between atoms: C_1  and  O_2
REMARK    2  A    between atoms: O_2  and  C_3
REMARK    3  A    between atoms: C_5  and  C_6
REMARK    4  A    between atoms: C_8  and  C_9
REMARK    5  A    between atoms: C_13  and  C_15
REMARK    6  A    between atoms: C_19  and  N_20
REMARK                            x       y       z     vdW  Elec       q    Type
REMARK                         _______ _______ _______ _____ _____    ______ ____
ROOT
ATOM      1  C   UNL     1      -0.178   9.417  22.022  0.00  0.00    +0.076 C 
ATOM      2  C   UNL     1      -0.957  10.318  21.070  0.00  0.00    +0.002 C 
ATOM      3  C   UNL     1      -0.079  10.339  19.812  0.00  0.00    +0.107 C 
ATOM      4  N   UNL     1       0.576   9.029  19.802  0.00  0.00    -0.283 N 
ATOM      5  C   UNL     1       1.615   8.787  18.919  0.00  0.00    +0.247 C 
ATOM      6  O   UNL     1       2.023   9.618  18.114  0.00  0.00    -0.270 OA
ATOM      7  C   UNL     1       0.383   8.345  21.079  0.00  0.00    +0.042 C 
ATOM      8  H   UNL     1      -0.803   8.964  22.800  0.00  0.00    +0.061 HD
ATOM      9  H   UNL     1      -1.936   9.866  20.863  0.00  0.00    +0.031 HD
ATOM     10  H   UNL     1      -1.125  11.331  21.448  0.00  0.00    +0.031 HD
ATOM     11  H   UNL     1       0.697  11.109  19.894  0.00  0.00    +0.060 HD
ATOM     12  H   UNL     1      -0.356   7.555  20.911  0.00  0.00    +0.049 HD
ATOM     13  H   UNL     1       1.321   7.916  21.443  0.00  0.00    +0.049 HD
ENDROOT
BRANCH   5  14
ATOM     14  C   UNL     1       2.255   7.451  18.940  0.00  0.00    +0.039 A 
ATOM     15  C   UNL     1       2.063   6.634  20.055  0.00  0.00    -0.050 A 
ATOM     16  C   UNL     1       2.666   5.379  20.097  0.00  0.00    -0.059 A 
ATOM     17  C   UNL     1       3.470   4.948  19.036  0.00  0.00    -0.038 A 
ATOM     18  C   UNL     1       3.691   5.776  17.924  0.00  0.00    +0.048 A 
ATOM     19  C   UNL     1       3.081   7.038  17.885  0.00  0.00    -0.026 A 
ATOM     20  H   UNL     1       1.448   6.974  20.886  0.00  0.00    +0.063 HD
ATOM     21  H   UNL     1       2.517   4.737  20.962  0.00  0.00    +0.062 HD
ATOM     22  H   UNL     1       3.920   3.962  19.127  0.00  0.00    +0.064 HD
ATOM     23  H   UNL     1       3.240   7.731  17.065  0.00  0.00    +0.065 HD
BRANCH  18  24
ATOM     24  N   UNL     1       4.526   5.344  16.849  0.00  0.00    -0.306 N 
ATOM     25  C   UNL     1       4.865   4.049  16.520  0.00  0.00    +0.029 A 
ATOM     26  C   UNL     1       5.692   4.134  15.425  0.00  0.00    +0.046 A 
ATOM     27  N   UNL     1       5.883   5.434  15.063  0.00  0.00    -0.244 NA
ATOM     28  C   UNL     1       5.175   6.134  15.922  0.00  0.00    +0.100 A 
ATOM     29  H   UNL     1       4.507   3.183  17.055  0.00  0.00    +0.083 HD
ATOM     30  H   UNL     1       6.158   3.322  14.880  0.00  0.00    +0.084 HD
ATOM     31  H   UNL     1       5.107   7.212  15.908  0.00  0.00    +0.103 HD
ENDBRANCH  18  24
ENDBRANCH   5  14
BRANCH   3  32
ATOM     32  C   UNL     1      -0.911  10.577  18.595  0.00  0.00    +0.248 A 
ATOM     33  N   UNL     1      -1.430   9.709  17.753  0.00  0.00    -0.195 NA
ATOM     34  C   UNL     1      -2.036  10.527  16.835  0.00  0.00    +0.169 A 
ATOM     35  N   UNL     1      -1.868  11.839  17.045  0.00  0.00    -0.062 NA
ATOM     36  O   UNL     1      -1.119  11.877  18.223  0.00  0.00    -0.336 OA
BRANCH  34  37
ATOM     37  C   UNL     1      -2.803  10.004  15.691  0.00  0.00    -0.001 C 
ATOM     38  H   UNL     1      -3.673  10.636  15.482  0.00  0.00    +0.031 HD
ATOM     39  H   UNL     1      -2.179   9.979  14.792  0.00  0.00    +0.031 HD
ATOM     40  H   UNL     1      -3.163   8.991  15.892  0.00  0.00    +0.031 HD
ENDBRANCH  34  37
ENDBRANCH   3  32
BRANCH   1  41
ATOM     41  O   UNL     1       0.913  10.123  22.620  0.00  0.00    -0.378 OA
BRANCH  41  42
ATOM     42  C   UNL     1       1.979   9.270  23.017  0.00  0.00    +0.037 C 
ATOM     43  H   UNL     1       2.724   9.816  23.601  0.00  0.00    +0.052 HD
ATOM     44  H   UNL     1       2.462   8.884  22.114  0.00  0.00    +0.052 HD
ATOM     45  H   UNL     1       1.596   8.424  23.594  0.00  0.00    +0.052 HD
ENDBRANCH  41  42
ENDBRANCH   1  41
TORSDOF 6
ENDMDL
MODEL 20
REMARK VINA RESULT:    -5.807      3.142      7.300
REMARK INTER + INTRA:          -7.291
REMARK INTER:                  -7.611
REMARK INTRA:                   0.319
REMARK UNBOUND:                 0.214
REMARK  Name = 
REMARK  6 active torsions:
REMARK  status: ('A' for Active; 'I' for Inactive)
REMARK    1  A    between atoms: C_1  and  O_2
REMARK    2  A    between atoms: O_2  and  C_3
REMARK    3  A    between atoms: C_5  and  C_6
REMARK    4  A    between atoms: C_8  and  C_9
REMARK    5  A    between atoms: C_13  and  C_15
REMARK    6  A    between atoms: C_19  and  N_20
REMARK                            x       y       z     vdW  Elec       q    Type
REMARK                         _______ _______ _______ _____ _____    ______ ____
ROOT
ATOM      1  C   UNL     1       1.978   2.895  17.920  0.00  0.00    +0.076 C 
ATOM      2  C   UNL     1       1.344   3.905  18.870  0.00  0.00    +0.002 C 
ATOM      3  C   UNL     1       2.551   4.681  19.412  0.00  0.00    +0.107 C 
ATOM      4  N   UNL     1       3.522   4.658  18.317  0.00  0.00    -0.283 N 
ATOM      5  C   UNL     1       4.822   5.078  18.542  0.00  0.00    +0.247 C 
ATOM      6  O   UNL     1       5.218   5.492  19.627  0.00  0.00    -0.270 OA
ATOM      7  C   UNL     1       3.114   3.707  17.285  0.00  0.00    +0.042 C 
ATOM      8  H   UNL     1       1.287   2.525  17.155  0.00  0.00    +0.061 HD
ATOM      9  H   UNL     1       0.672   4.563  18.303  0.00  0.00    +0.031 HD
ATOM     10  H   UNL     1       0.768   3.454  19.685  0.00  0.00    +0.031 HD
ATOM     11  H   UNL     1       2.991   4.161  20.271  0.00  0.00    +0.060 HD
ATOM     12  H   UNL     1       2.742   4.292  16.438  0.00  0.00    +0.049 HD
ATOM     13  H   UNL     1       3.953   3.079  16.973  0.00  0.00    +0.049 HD
ENDROOT
BRANCH   5  14
ATOM     14  C   UNL     1       5.777   5.037  17.410  0.00  0.00    +0.039 A 
ATOM     15  C   UNL     1       7.056   5.564  17.593  0.00  0.00    -0.050 A 
ATOM     16  C   UNL     1       7.963   5.544  16.536  0.00  0.00    -0.059 A 
ATOM     17  C   UNL     1       7.589   5.014  15.296  0.00  0.00    -0.038 A 
ATOM     18  C   UNL     1       6.294   4.508  15.096  0.00  0.00    +0.048 A 
ATOM     19  C   UNL     1       5.385   4.529  16.164  0.00  0.00    -0.026 A 
ATOM     20  H   UNL     1       7.343   5.989  18.552  0.00  0.00    +0.063 HD
ATOM     21  H   UNL     1       8.962   5.952  16.674  0.00  0.00    +0.062 HD
ATOM     22  H   UNL     1       8.336   5.031  14.507  0.00  0.00    +0.064 HD
ATOM     23  H   UNL     1       4.363   4.178  16.058  0.00  0.00    +0.065 HD
BRANCH  18  24
ATOM     24  N   UNL     1       5.906   3.983  13.827  0.00  0.00    -0.306 N 
ATOM     25  C   UNL     1       6.729   3.637  12.776  0.00  0.00    +0.029 A 
ATOM     26  C   UNL     1       5.903   3.193  11.770  0.00  0.00    +0.046 A 
ATOM     27  N   UNL     1       4.597   3.254  12.155  0.00  0.00    -0.244 NA
ATOM     28  C   UNL     1       4.626   3.721  13.384  0.00  0.00    +0.100 A 
ATOM     29  H   UNL     1       7.805   3.716  12.808  0.00  0.00    +0.083 HD
ATOM     30  H   UNL     1       6.187   2.832  10.789  0.00  0.00    +0.084 HD
ATOM     31  H   UNL     1       3.744   3.887  13.985  0.00  0.00    +0.103 HD
ENDBRANCH  18  24
ENDBRANCH   5  14
BRANCH   3  32
ATOM     32  C   UNL     1       2.153   6.066  19.801  0.00  0.00    +0.248 A 
ATOM     33  N   UNL     1       1.594   6.495  20.913  0.00  0.00    -0.195 NA
ATOM     34  C   UNL     1       1.436   7.832  20.657  0.00  0.00    +0.169 A 
ATOM     35  N   UNL     1       1.817   8.226  19.436  0.00  0.00    -0.062 NA
ATOM     36  O   UNL     1       2.301   7.049  18.861  0.00  0.00    -0.336 OA
BRANCH  34  37
ATOM     37  C   UNL     1       0.872   8.768  21.646  0.00  0.00    -0.001 C 
ATOM     38  H   UNL     1       0.344   9.590  21.151  0.00  0.00    +0.031 HD
ATOM     39  H   UNL     1       0.161   8.252  22.298  0.00  0.00    +0.031 HD
ATOM     40  H   UNL     1       1.661   9.201  22.268  0.00  0.00    +0.031 HD
ENDBRANCH  34  37
ENDBRANCH   3  32
BRANCH   1  41
ATOM     41  O   UNL     1       2.543   1.797  18.642  0.00  0.00    -0.378 OA
BRANCH  41  42
ATOM     42  C   UNL     1       3.812   1.395  18.143  0.00  0.00    +0.037 C 
ATOM     43  H   UNL     1       4.385   2.255  17.785  0.00  0.00    +0.052 HD
ATOM     44  H   UNL     1       3.649   0.715  17.302  0.00  0.00    +0.052 HD
ATOM     45  H   UNL     1       4.375   0.863  18.915  0.00  0.00    +0.052 HD
ENDBRANCH  41  42
ENDBRANCH   1  41
TORSDOF 6
ENDMDL
MODEL 21
REMARK VINA RESULT:    -5.704      3.098      7.624
REMARK INTER + INTRA:          -7.157
REMARK INTER:                  -6.977
REMARK INTRA:                  -0.181
REMARK UNBOUND:                 0.214
REMARK  Name = 
REMARK  6 active torsions:
REMARK  status: ('A' for Active; 'I' for Inactive)
REMARK    1  A    between atoms: C_1  and  O_2
REMARK    2  A    between atoms: O_2  and  C_3
REMARK    3  A    between atoms: C_5  and  C_6
REMARK    4  A    between atoms: C_8  and  C_9
REMARK    5  A    between atoms: C_13  and  C_15
REMARK    6  A    between atoms: C_19  and  N_20
REMARK                            x       y       z     vdW  Elec       q    Type
REMARK                         _______ _______ _______ _____ _____    ______ ____
ROOT
ATOM      1  C   UNL     1       2.543   7.712  19.189  0.00  0.00    +0.076 C 
ATOM      2  C   UNL     1       1.623   6.751  19.934  0.00  0.00    +0.002 C 
ATOM      3  C   UNL     1       1.749   5.451  19.127  0.00  0.00    +0.107 C 
ATOM      4  N   UNL     1       3.112   5.482  18.595  0.00  0.00    -0.283 N 
ATOM      5  C   UNL     1       3.495   4.564  17.632  0.00  0.00    +0.247 C 
ATOM      6  O   UNL     1       2.748   3.696  17.194  0.00  0.00    -0.270 OA
ATOM      7  C   UNL     1       3.710   6.803  18.780  0.00  0.00    +0.042 C 
ATOM      8  H   UNL     1       2.895   8.544  19.810  0.00  0.00    +0.061 HD
ATOM      9  H   UNL     1       1.992   6.617  20.959  0.00  0.00    +0.031 HD
ATOM     10  H   UNL     1       0.581   7.079  19.989  0.00  0.00    +0.031 HD
ATOM     11  H   UNL     1       1.051   5.453  18.281  0.00  0.00    +0.060 HD
ATOM     12  H   UNL     1       4.435   6.717  19.595  0.00  0.00    +0.049 HD
ATOM     13  H   UNL     1       4.204   7.144  17.866  0.00  0.00    +0.049 HD
ENDROOT
BRANCH   5  14
ATOM     14  C   UNL     1       4.882   4.629  17.115  0.00  0.00    +0.039 A 
ATOM     15  C   UNL     1       5.919   4.890  18.011  0.00  0.00    -0.050 A 
ATOM     16  C   UNL     1       7.228   4.965  17.541  0.00  0.00    -0.059 A 
ATOM     17  C   UNL     1       7.499   4.795  16.179  0.00  0.00    -0.038 A 
ATOM     18  C   UNL     1       6.457   4.560  15.267  0.00  0.00    +0.048 A 
ATOM     19  C   UNL     1       5.141   4.484  15.745  0.00  0.00    -0.026 A 
ATOM     20  H   UNL     1       5.708   5.035  19.068  0.00  0.00    +0.063 HD
ATOM     21  H   UNL     1       8.040   5.166  18.236  0.00  0.00    +0.062 HD
ATOM     22  H   UNL     1       8.538   4.870  15.869  0.00  0.00    +0.064 HD
ATOM     23  H   UNL     1       4.295   4.334  15.082  0.00  0.00    +0.065 HD
BRANCH  18  24
ATOM     24  N   UNL     1       6.730   4.405  13.875  0.00  0.00    -0.306 N 
ATOM     25  C   UNL     1       6.106   3.553  12.988  0.00  0.00    +0.029 A 
ATOM     26  C   UNL     1       6.714   3.750  11.771  0.00  0.00    +0.046 A 
ATOM     27  N   UNL     1       7.697   4.689  11.868  0.00  0.00    -0.244 NA
ATOM     28  C   UNL     1       7.683   5.067  13.128  0.00  0.00    +0.100 A 
ATOM     29  H   UNL     1       5.297   2.894  13.262  0.00  0.00    +0.083 HD
ATOM     30  H   UNL     1       6.492   3.261  10.830  0.00  0.00    +0.084 HD
ATOM     31  H   UNL     1       8.346   5.814  13.538  0.00  0.00    +0.103 HD
ENDBRANCH  18  24
ENDBRANCH   5  14
BRANCH   3  32
ATOM     32  C   UNL     1       1.496   4.266  19.998  0.00  0.00    +0.248 A 
ATOM     33  N   UNL     1       1.930   4.014  21.215  0.00  0.00    -0.195 NA
ATOM     34  C   UNL     1       1.404   2.771  21.455  0.00  0.00    +0.169 A 
ATOM     35  N   UNL     1       0.723   2.236  20.435  0.00  0.00    -0.062 NA
ATOM     36  O   UNL     1       0.778   3.234  19.459  0.00  0.00    -0.336 OA
BRANCH  34  37
ATOM     37  C   UNL     1       1.588   2.066  22.737  0.00  0.00    -0.001 C 
ATOM     38  H   UNL     1       1.642   2.775  23.569  0.00  0.00    +0.031 HD
ATOM     39  H   UNL     1       0.749   1.387  22.922  0.00  0.00    +0.031 HD
ATOM     40  H   UNL     1       2.513   1.481  22.731  0.00  0.00    +0.031 HD
ENDBRANCH  34  37
ENDBRANCH   3  32
BRANCH   1  41
ATOM     41  O   UNL     1       1.912   8.215  18.008  0.00  0.00    -0.378 OA
BRANCH  41  42
ATOM     42  C   UNL     1       2.153   9.600  17.794  0.00  0.00    +0.037 C 
ATOM     43  H   UNL     1       3.005   9.753  17.125  0.00  0.00    +0.052 HD
ATOM     44  H   UNL     1       2.385  10.060  18.759  0.00  0.00    +0.052 HD
ATOM     45  H   UNL     1       1.262  10.083  17.384  0.00  0.00    +0.052 HD
ENDBRANCH  41  42
ENDBRANCH   1  41
TORSDOF 6
ENDMDL
MODEL 22
REMARK VINA RESULT:    -5.672      1.859      2.470
REMARK INTER + INTRA:          -7.116
REMARK INTER:                  -7.023
REMARK INTRA:                  -0.092
REMARK UNBOUND:                 0.214
REMARK  Name = 
REMARK  6 active torsions:
REMARK  status: ('A' for Active; 'I' for Inactive)
REMARK    1  A    between atoms: C_1  and  O_2
REMARK    2  A    between atoms: O_2  and  C_3
REMARK    3  A    between atoms: C_5  and  C_6
REMARK    4  A    between atoms: C_8  and  C_9
REMARK    5  A    between atoms: C_13  and  C_15
REMARK    6  A    between atoms: C_19  and  N_20
REMARK                            x       y       z     vdW  Elec       q    Type
REMARK                         _______ _______ _______ _____ _____    ______ ____
ROOT
ATOM      1  C   UNL     1       1.942   5.286  20.492  0.00  0.00    +0.076 C 
ATOM      2  C   UNL     1       3.356   4.922  20.054  0.00  0.00    +0.002 C 
ATOM      3  C   UNL     1       3.550   5.751  18.778  0.00  0.00    +0.107 C 
ATOM      4  N   UNL     1       2.736   6.949  18.992  0.00  0.00    -0.283 N 
ATOM      5  C   UNL     1       2.502   7.818  17.940  0.00  0.00    +0.247 C 
ATOM      6  O   UNL     1       2.956   7.649  16.813  0.00  0.00    -0.270 OA
ATOM      7  C   UNL     1       1.863   6.779  20.152  0.00  0.00    +0.042 C 
ATOM      8  H   UNL     1       1.761   5.119  21.560  0.00  0.00    +0.061 HD
ATOM      9  H   UNL     1       4.066   5.225  20.835  0.00  0.00    +0.031 HD
ATOM     10  H   UNL     1       3.504   3.856  19.857  0.00  0.00    +0.031 HD
ATOM     11  H   UNL     1       3.151   5.217  17.906  0.00  0.00    +0.060 HD
ATOM     12  H   UNL     1       2.285   7.382  20.963  0.00  0.00    +0.049 HD
ATOM     13  H   UNL     1       0.843   7.105  19.928  0.00  0.00    +0.049 HD
ENDROOT
BRANCH   5  14
ATOM     14  C   UNL     1       1.672   9.018  18.195  0.00  0.00    +0.039 A 
ATOM     15  C   UNL     1       0.292   8.931  18.007  0.00  0.00    -0.050 A 
ATOM     16  C   UNL     1      -0.503  10.052  18.231  0.00  0.00    -0.059 A 
ATOM     17  C   UNL     1       0.080  11.261  18.627  0.00  0.00    -0.038 A 
ATOM     18  C   UNL     1       1.471  11.364  18.792  0.00  0.00    +0.048 A 
ATOM     19  C   UNL     1       2.267  10.232  18.566  0.00  0.00    -0.026 A 
ATOM     20  H   UNL     1      -0.160   7.995  17.685  0.00  0.00    +0.063 HD
ATOM     21  H   UNL     1      -1.579   9.989  18.088  0.00  0.00    +0.062 HD
ATOM     22  H   UNL     1      -0.589  12.104  18.782  0.00  0.00    +0.064 HD
ATOM     23  H   UNL     1       3.349  10.262  18.649  0.00  0.00    +0.065 HD
BRANCH  18  24
ATOM     24  N   UNL     1       2.068  12.601  19.180  0.00  0.00    -0.306 N 
ATOM     25  C   UNL     1       2.797  13.464  18.389  0.00  0.00    +0.029 A 
ATOM     26  C   UNL     1       3.172  14.509  19.201  0.00  0.00    +0.046 A 
ATOM     27  N   UNL     1       2.707  14.325  20.469  0.00  0.00    -0.244 NA
ATOM     28  C   UNL     1       2.049  13.187  20.429  0.00  0.00    +0.100 A 
ATOM     29  H   UNL     1       2.990  13.296  17.341  0.00  0.00    +0.083 HD
ATOM     30  H   UNL     1       3.753  15.383  18.934  0.00  0.00    +0.084 HD
ATOM     31  H   UNL     1       1.548  12.752  21.281  0.00  0.00    +0.103 HD
ENDBRANCH  18  24
ENDBRANCH   5  14
BRANCH   3  32
ATOM     32  C   UNL     1       4.995   6.064  18.569  0.00  0.00    +0.248 A 
ATOM     33  N   UNL     1       5.556   6.902  17.724  0.00  0.00    -0.195 NA
ATOM     34  C   UNL     1       6.890   6.712  17.974  0.00  0.00    +0.169 A 
ATOM     35  N   UNL     1       7.168   5.770  18.884  0.00  0.00    -0.062 NA
ATOM     36  O   UNL     1       5.904   5.336  19.287  0.00  0.00    -0.336 OA
BRANCH  34  37
ATOM     37  C   UNL     1       7.944   7.476  17.283  0.00  0.00    -0.001 C 
ATOM     38  H   UNL     1       8.904   6.953  17.335  0.00  0.00    +0.031 HD
ATOM     39  H   UNL     1       7.687   7.611  16.227  0.00  0.00    +0.031 HD
ATOM     40  H   UNL     1       8.072   8.463  17.738  0.00  0.00    +0.031 HD
ENDBRANCH  34  37
ENDBRANCH   3  32
BRANCH   1  41
ATOM     41  O   UNL     1       0.968   4.583  19.715  0.00  0.00    -0.378 OA
BRANCH  41  42
ATOM     42  C   UNL     1       0.935   3.188  19.992  0.00  0.00    +0.037 C 
ATOM     43  H   UNL     1       0.266   2.968  20.829  0.00  0.00    +0.052 HD
ATOM     44  H   UNL     1       1.946   2.870  20.264  0.00  0.00    +0.052 HD
ATOM     45  H   UNL     1       0.623   2.630  19.105  0.00  0.00    +0.052 HD
ENDBRANCH  41  42
ENDBRANCH   1  41
TORSDOF 6
ENDMDL
MODEL 23
REMARK VINA RESULT:    -5.608      3.815      6.522
REMARK INTER + INTRA:          -7.034
REMARK INTER:                  -7.052
REMARK INTRA:                   0.018
REMARK UNBOUND:                 0.214
REMARK  Name = 
REMARK  6 active torsions:
REMARK  status: ('A' for Active; 'I' for Inactive)
REMARK    1  A    between atoms: C_1  and  O_2
REMARK    2  A    between atoms: O_2  and  C_3
REMARK    3  A    between atoms: C_5  and  C_6
REMARK    4  A    between atoms: C_8  and  C_9
REMARK    5  A    between atoms: C_13  and  C_15
REMARK    6  A    between atoms: C_19  and  N_20
REMARK                            x       y       z     vdW  Elec       q    Type
REMARK                         _______ _______ _______ _____ _____    ______ ____
ROOT
ATOM      1  C   UNL     1      -2.337  10.724  18.058  0.00  0.00    +0.076 C 
ATOM      2  C   UNL     1      -1.329   9.629  17.726  0.00  0.00    +0.002 C 
ATOM      3  C   UNL     1       0.018  10.281  18.062  0.00  0.00    +0.107 C 
ATOM      4  N   UNL     1      -0.286  11.204  19.158  0.00  0.00    -0.283 N 
ATOM      5  C   UNL     1       0.664  12.126  19.564  0.00  0.00    +0.247 C 
ATOM      6  O   UNL     1       1.779  12.212  19.058  0.00  0.00    -0.270 OA
ATOM      7  C   UNL     1      -1.730  11.362  19.314  0.00  0.00    +0.042 C 
ATOM      8  H   UNL     1      -3.343  10.340  18.262  0.00  0.00    +0.061 HD
ATOM      9  H   UNL     1      -1.517   8.757  18.364  0.00  0.00    +0.031 HD
ATOM     10  H   UNL     1      -1.355   9.298  16.683  0.00  0.00    +0.031 HD
ATOM     11  H   UNL     1       0.387  10.869  17.212  0.00  0.00    +0.060 HD
ATOM     12  H   UNL     1      -2.020  10.802  20.209  0.00  0.00    +0.049 HD
ATOM     13  H   UNL     1      -2.002  12.416  19.421  0.00  0.00    +0.049 HD
ENDROOT
BRANCH   5  14
ATOM     14  C   UNL     1       0.319  13.044  20.674  0.00  0.00    +0.039 A 
ATOM     15  C   UNL     1       1.141  14.146  20.913  0.00  0.00    -0.050 A 
ATOM     16  C   UNL     1       0.838  15.013  21.960  0.00  0.00    -0.059 A 
ATOM     17  C   UNL     1      -0.274  14.773  22.775  0.00  0.00    -0.038 A 
ATOM     18  C   UNL     1      -1.090  13.650  22.558  0.00  0.00    +0.048 A 
ATOM     19  C   UNL     1      -0.781  12.781  21.502  0.00  0.00    -0.026 A 
ATOM     20  H   UNL     1       2.014  14.325  20.289  0.00  0.00    +0.063 HD
ATOM     21  H   UNL     1       1.474  15.874  22.149  0.00  0.00    +0.062 HD
ATOM     22  H   UNL     1      -0.458  15.479  23.580  0.00  0.00    +0.064 HD
ATOM     23  H   UNL     1      -1.359  11.883  21.307  0.00  0.00    +0.065 HD
BRANCH  18  24
ATOM     24  N   UNL     1      -2.214  13.395  23.399  0.00  0.00    -0.306 N 
ATOM     25  C   UNL     1      -2.994  12.258  23.434  0.00  0.00    +0.029 A 
ATOM     26  C   UNL     1      -3.957  12.479  24.390  0.00  0.00    +0.046 A 
ATOM     27  N   UNL     1      -3.807  13.714  24.949  0.00  0.00    -0.244 NA
ATOM     28  C   UNL     1      -2.761  14.236  24.347  0.00  0.00    +0.100 A 
ATOM     29  H   UNL     1      -2.820  11.395  22.810  0.00  0.00    +0.083 HD
ATOM     30  H   UNL     1      -4.749  11.810  24.703  0.00  0.00    +0.084 HD
ATOM     31  H   UNL     1      -2.370  15.218  24.566  0.00  0.00    +0.103 HD
ENDBRANCH  18  24
ENDBRANCH   5  14
BRANCH   3  32
ATOM     32  C   UNL     1       1.023   9.245  18.442  0.00  0.00    +0.248 A 
ATOM     33  N   UNL     1       1.845   8.557  17.678  0.00  0.00    -0.195 NA
ATOM     34  C   UNL     1       2.471   7.745  18.589  0.00  0.00    +0.169 A 
ATOM     35  N   UNL     1       2.037   7.866  19.849  0.00  0.00    -0.062 NA
ATOM     36  O   UNL     1       1.071   8.870  19.757  0.00  0.00    -0.336 OA
BRANCH  34  37
ATOM     37  C   UNL     1       3.533   6.797  18.208  0.00  0.00    -0.001 C 
ATOM     38  H   UNL     1       4.417   7.327  17.841  0.00  0.00    +0.031 HD
ATOM     39  H   UNL     1       3.832   6.193  19.071  0.00  0.00    +0.031 HD
ATOM     40  H   UNL     1       3.190   6.124  17.416  0.00  0.00    +0.031 HD
ENDBRANCH  34  37
ENDBRANCH   3  32
BRANCH   1  41
ATOM     41  O   UNL     1      -2.389  11.706  17.020  0.00  0.00    -0.378 OA
BRANCH  41  42
ATOM     42  C   UNL     1      -2.855  11.184  15.781  0.00  0.00    +0.037 C 
ATOM     43  H   UNL     1      -2.630  10.117  15.695  0.00  0.00    +0.052 HD
ATOM     44  H   UNL     1      -2.341  11.712  14.973  0.00  0.00    +0.052 HD
ATOM     45  H   UNL     1      -3.930  11.351  15.677  0.00  0.00    +0.052 HD
ENDBRANCH  41  42
ENDBRANCH   1  41
TORSDOF 6
ENDMDL
MODEL 24
REMARK VINA RESULT:    -5.577      5.624      8.085
REMARK INTER + INTRA:          -6.993
REMARK INTER:                  -6.360
REMARK INTRA:                  -0.633
REMARK UNBOUND:                 0.214
REMARK  Name = 
REMARK  6 active torsions:
REMARK  status: ('A' for Active; 'I' for Inactive)
REMARK    1  A    between atoms: C_1  and  O_2
REMARK    2  A    between atoms: O_2  and  C_3
REMARK    3  A    between atoms: C_5  and  C_6
REMARK    4  A    between atoms: C_8  and  C_9
REMARK    5  A    between atoms: C_13  and  C_15
REMARK    6  A    between atoms: C_19  and  N_20
REMARK                            x       y       z     vdW  Elec       q    Type
REMARK                         _______ _______ _______ _____ _____    ______ ____
ROOT
ATOM      1  C   UNL     1       0.649   9.833  21.041  0.00  0.00    +0.076 C 
ATOM      2  C   UNL     1      -0.658   9.641  20.281  0.00  0.00    +0.002 C 
ATOM      3  C   UNL     1      -1.020  11.065  19.841  0.00  0.00    +0.107 C 
ATOM      4  N   UNL     1       0.272  11.731  19.662  0.00  0.00    -0.283 N 
ATOM      5  C   UNL     1       0.319  13.103  19.479  0.00  0.00    +0.247 C 
ATOM      6  O   UNL     1      -0.681  13.813  19.445  0.00  0.00    -0.270 OA
ATOM      7  C   UNL     1       1.353  10.921  20.220  0.00  0.00    +0.042 C 
ATOM      8  H   UNL     1       1.260   8.925  21.091  0.00  0.00    +0.061 HD
ATOM      9  H   UNL     1      -0.481   8.991  19.414  0.00  0.00    +0.031 HD
ATOM     10  H   UNL     1      -1.463   9.198  20.877  0.00  0.00    +0.031 HD
ATOM     11  H   UNL     1      -1.567  11.588  20.635  0.00  0.00    +0.060 HD
ATOM     12  H   UNL     1       1.891  10.477  19.376  0.00  0.00    +0.049 HD
ATOM     13  H   UNL     1       2.031  11.530  20.825  0.00  0.00    +0.049 HD
ENDROOT
BRANCH   5  14
ATOM     14  C   UNL     1       1.644  13.740  19.303  0.00  0.00    +0.039 A 
ATOM     15  C   UNL     1       2.066  14.065  18.013  0.00  0.00    -0.050 A 
ATOM     16  C   UNL     1       3.314  14.654  17.828  0.00  0.00    -0.059 A 
ATOM     17  C   UNL     1       4.145  14.905  18.926  0.00  0.00    -0.038 A 
ATOM     18  C   UNL     1       3.739  14.556  20.224  0.00  0.00    +0.048 A 
ATOM     19  C   UNL     1       2.481  13.964  20.405  0.00  0.00    -0.026 A 
ATOM     20  H   UNL     1       1.427  13.857  17.158  0.00  0.00    +0.063 HD
ATOM     21  H   UNL     1       3.647  14.911  16.825  0.00  0.00    +0.062 HD
ATOM     22  H   UNL     1       5.110  15.362  18.720  0.00  0.00    +0.064 HD
ATOM     23  H   UNL     1       2.129  13.646  21.382  0.00  0.00    +0.065 HD
BRANCH  18  24
ATOM     24  N   UNL     1       4.593  14.795  21.342  0.00  0.00    -0.306 N 
ATOM     25  C   UNL     1       5.967  14.912  21.338  0.00  0.00    +0.029 A 
ATOM     26  C   UNL     1       6.340  15.127  22.644  0.00  0.00    +0.046 A 
ATOM     27  N   UNL     1       5.249  15.144  23.461  0.00  0.00    -0.244 NA
ATOM     28  C   UNL     1       4.222  14.950  22.663  0.00  0.00    +0.100 A 
ATOM     29  H   UNL     1       6.570  14.847  20.446  0.00  0.00    +0.083 HD
ATOM     30  H   UNL     1       7.340  15.271  23.035  0.00  0.00    +0.084 HD
ATOM     31  H   UNL     1       3.197  14.913  23.000  0.00  0.00    +0.103 HD
ENDBRANCH  18  24
ENDBRANCH   5  14
BRANCH   3  32
ATOM     32  C   UNL     1      -1.834  11.038  18.591  0.00  0.00    +0.248 A 
ATOM     33  N   UNL     1      -1.544  10.523  17.414  0.00  0.00    -0.195 NA
ATOM     34  C   UNL     1      -2.652  10.851  16.677  0.00  0.00    +0.169 A 
ATOM     35  N   UNL     1      -3.570  11.580  17.324  0.00  0.00    -0.062 NA
ATOM     36  O   UNL     1      -3.029  11.704  18.605  0.00  0.00    -0.336 OA
BRANCH  34  37
ATOM     37  C   UNL     1      -2.816  10.447  15.269  0.00  0.00    -0.001 C 
ATOM     38  H   UNL     1      -3.467   9.571  15.187  0.00  0.00    +0.031 HD
ATOM     39  H   UNL     1      -3.265  11.259  14.689  0.00  0.00    +0.031 HD
ATOM     40  H   UNL     1      -1.851  10.192  14.821  0.00  0.00    +0.031 HD
ENDBRANCH  34  37
ENDBRANCH   3  32
BRANCH   1  41
ATOM     41  O   UNL     1       0.407  10.334  22.360  0.00  0.00    -0.378 OA
BRANCH  41  42
ATOM     42  C   UNL     1      -0.342   9.435  23.168  0.00  0.00    +0.037 C 
ATOM     43  H   UNL     1       0.283   8.612  23.526  0.00  0.00    +0.052 HD
ATOM     44  H   UNL     1      -1.148   9.017  22.558  0.00  0.00    +0.052 HD
ATOM     45  H   UNL     1      -0.786   9.964  24.015  0.00  0.00    +0.052 HD
ENDBRANCH  41  42
ENDBRANCH   1  41
TORSDOF 6
ENDMDL
MODEL 25
REMARK VINA RESULT:    -5.423      3.826      7.285
REMARK INTER + INTRA:          -6.795
REMARK INTER:                  -5.941
REMARK INTRA:                  -0.854
REMARK UNBOUND:                 0.214
REMARK  Name = 
REMARK  6 active torsions:
REMARK  status: ('A' for Active; 'I' for Inactive)
REMARK    1  A    between atoms: C_1  and  O_2
REMARK    2  A    between atoms: O_2  and  C_3
REMARK    3  A    between atoms: C_5  and  C_6
REMARK    4  A    between atoms: C_8  and  C_9
REMARK    5  A    between atoms: C_13  and  C_15
REMARK    6  A    between atoms: C_19  and  N_20
REMARK                            x       y       z     vdW  Elec       q    Type
REMARK                         _______ _______ _______ _____ _____    ______ ____
ROOT
ATOM      1  C   UNL     1       0.780  13.354  18.979  0.00  0.00    +0.076 C 
ATOM      2  C   UNL     1       1.715  12.211  19.360  0.00  0.00    +0.002 C 
ATOM      3  C   UNL     1       0.755  11.039  19.597  0.00  0.00    +0.107 C 
ATOM      4  N   UNL     1      -0.362  11.291  18.685  0.00  0.00    -0.283 N 
ATOM      5  C   UNL     1      -1.522  10.542  18.795  0.00  0.00    +0.247 C 
ATOM      6  O   UNL     1      -1.672   9.649  19.622  0.00  0.00    -0.270 OA
ATOM      7  C   UNL     1      -0.285  12.643  18.134  0.00  0.00    +0.042 C 
ATOM      8  H   UNL     1       1.273  14.144  18.401  0.00  0.00    +0.061 HD
ATOM      9  H   UNL     1       2.394  12.004  18.522  0.00  0.00    +0.031 HD
ATOM     10  H   UNL     1       2.323  12.407  20.249  0.00  0.00    +0.031 HD
ATOM     11  H   UNL     1       0.369  11.056  20.624  0.00  0.00    +0.060 HD
ATOM     12  H   UNL     1       0.048  12.548  17.096  0.00  0.00    +0.049 HD
ATOM     13  H   UNL     1      -1.256  13.143  18.178  0.00  0.00    +0.049 HD
ENDROOT
BRANCH   5  14
ATOM     14  C   UNL     1      -2.632  10.829  17.856  0.00  0.00    +0.039 A 
ATOM     15  C   UNL     1      -3.759  11.498  18.334  0.00  0.00    -0.050 A 
ATOM     16  C   UNL     1      -4.816  11.765  17.469  0.00  0.00    -0.059 A 
ATOM     17  C   UNL     1      -4.755  11.353  16.133  0.00  0.00    -0.038 A 
ATOM     18  C   UNL     1      -3.636  10.654  15.651  0.00  0.00    +0.048 A 
ATOM     19  C   UNL     1      -2.574  10.388  16.526  0.00  0.00    -0.026 A 
ATOM     20  H   UNL     1      -3.813  11.807  19.376  0.00  0.00    +0.063 HD
ATOM     21  H   UNL     1      -5.696  12.289  17.836  0.00  0.00    +0.062 HD
ATOM     22  H   UNL     1      -5.612  11.584  15.505  0.00  0.00    +0.064 HD
ATOM     23  H   UNL     1      -1.698   9.827  16.216  0.00  0.00    +0.065 HD
BRANCH  18  24
ATOM     24  N   UNL     1      -3.580  10.218  14.293  0.00  0.00    -0.306 N 
ATOM     25  C   UNL     1      -4.602  10.224  13.367  0.00  0.00    +0.029 A 
ATOM     26  C   UNL     1      -4.077   9.703  12.209  0.00  0.00    +0.046 A 
ATOM     27  N   UNL     1      -2.767   9.367  12.381  0.00  0.00    -0.244 NA
ATOM     28  C   UNL     1      -2.494   9.689  13.626  0.00  0.00    +0.100 A 
ATOM     29  H   UNL     1      -5.595  10.591  13.576  0.00  0.00    +0.083 HD
ATOM     30  H   UNL     1      -4.579   9.553  11.261  0.00  0.00    +0.084 HD
ATOM     31  H   UNL     1      -1.525   9.552  14.083  0.00  0.00    +0.103 HD
ENDBRANCH  18  24
ENDBRANCH   5  14
BRANCH   3  32
ATOM     32  C   UNL     1       1.437   9.739  19.328  0.00  0.00    +0.248 A 
ATOM     33  N   UNL     1       2.019   9.311  18.227  0.00  0.00    -0.195 NA
ATOM     34  C   UNL     1       2.411   8.047  18.583  0.00  0.00    +0.169 A 
ATOM     35  N   UNL     1       2.053   7.667  19.815  0.00  0.00    -0.062 NA
ATOM     36  O   UNL     1       1.404   8.796  20.319  0.00  0.00    -0.336 OA
BRANCH  34  37
ATOM     37  C   UNL     1       3.158   7.162  17.671  0.00  0.00    -0.001 C 
ATOM     38  H   UNL     1       3.081   7.511  16.636  0.00  0.00    +0.031 HD
ATOM     39  H   UNL     1       4.218   7.140  17.944  0.00  0.00    +0.031 HD
ATOM     40  H   UNL     1       2.768   6.140  17.712  0.00  0.00    +0.031 HD
ENDBRANCH  34  37
ENDBRANCH   3  32
BRANCH   1  41
ATOM     41  O   UNL     1       0.154  13.913  20.137  0.00  0.00    -0.378 OA
BRANCH  41  42
ATOM     42  C   UNL     1      -0.675  15.029  19.839  0.00  0.00    +0.037 C 
ATOM     43  H   UNL     1      -1.551  14.725  19.260  0.00  0.00    +0.052 HD
ATOM     44  H   UNL     1      -0.093  15.737  19.241  0.00  0.00    +0.052 HD
ATOM     45  H   UNL     1      -0.988  15.528  20.760  0.00  0.00    +0.052 HD
ENDBRANCH  41  42
ENDBRANCH   1  41
TORSDOF 6
ENDMDL
MODEL 26
REMARK VINA RESULT:    -5.365      1.973      3.806
REMARK INTER + INTRA:          -6.720
REMARK INTER:                  -7.017
REMARK INTRA:                   0.298
REMARK UNBOUND:                 0.214
REMARK  Name = 
REMARK  6 active torsions:
REMARK  status: ('A' for Active; 'I' for Inactive)
REMARK    1  A    between atoms: C_1  and  O_2
REMARK    2  A    between atoms: O_2  and  C_3
REMARK    3  A    between atoms: C_5  and  C_6
REMARK    4  A    between atoms: C_8  and  C_9
REMARK    5  A    between atoms: C_13  and  C_15
REMARK    6  A    between atoms: C_19  and  N_20
REMARK                            x       y       z     vdW  Elec       q    Type
REMARK                         _______ _______ _______ _____ _____    ______ ____
ROOT
ATOM      1  C   UNL     1       4.483   7.358  17.009  0.00  0.00    +0.076 C 
ATOM      2  C   UNL     1       4.337   5.841  16.977  0.00  0.00    +0.002 C 
ATOM      3  C   UNL     1       3.733   5.519  18.351  0.00  0.00    +0.107 C 
ATOM      4  N   UNL     1       2.929   6.697  18.681  0.00  0.00    -0.283 N 
ATOM      5  C   UNL     1       2.417   6.843  19.959  0.00  0.00    +0.247 C 
ATOM      6  O   UNL     1       2.587   6.020  20.852  0.00  0.00    -0.270 OA
ATOM      7  C   UNL     1       3.222   7.797  17.763  0.00  0.00    +0.042 C 
ATOM      8  H   UNL     1       4.520   7.811  16.012  0.00  0.00    +0.061 HD
ATOM      9  H   UNL     1       3.651   5.559  16.168  0.00  0.00    +0.031 HD
ATOM     10  H   UNL     1       5.278   5.302  16.826  0.00  0.00    +0.031 HD
ATOM     11  H   UNL     1       4.522   5.420  19.106  0.00  0.00    +0.060 HD
ATOM     12  H   UNL     1       2.372   7.877  17.078  0.00  0.00    +0.049 HD
ATOM     13  H   UNL     1       3.363   8.736  18.305  0.00  0.00    +0.049 HD
ENDROOT
BRANCH   5  14
ATOM     14  C   UNL     1       1.610   8.050  20.256  0.00  0.00    +0.039 A 
ATOM     15  C   UNL     1       1.647   8.580  21.546  0.00  0.00    -0.050 A 
ATOM     16  C   UNL     1       0.887   9.707  21.846  0.00  0.00    -0.059 A 
ATOM     17  C   UNL     1       0.079  10.295  20.865  0.00  0.00    -0.038 A 
ATOM     18  C   UNL     1       0.015   9.750  19.572  0.00  0.00    +0.048 A 
ATOM     19  C   UNL     1       0.784   8.615  19.275  0.00  0.00    -0.026 A 
ATOM     20  H   UNL     1       2.264   8.116  22.313  0.00  0.00    +0.063 HD
ATOM     21  H   UNL     1       0.914  10.126  22.849  0.00  0.00    +0.062 HD
ATOM     22  H   UNL     1      -0.497  11.169  21.158  0.00  0.00    +0.064 HD
ATOM     23  H   UNL     1       0.750   8.135  18.302  0.00  0.00    +0.065 HD
BRANCH  18  24
ATOM     24  N   UNL     1      -0.822  10.337  18.576  0.00  0.00    -0.306 N 
ATOM     25  C   UNL     1      -1.311  11.626  18.546  0.00  0.00    +0.029 A 
ATOM     26  C   UNL     1      -2.072  11.723  17.405  0.00  0.00    +0.046 A 
ATOM     27  N   UNL     1      -2.078  10.541  16.726  0.00  0.00    -0.244 NA
ATOM     28  C   UNL     1      -1.322   9.735  17.440  0.00  0.00    +0.100 A 
ATOM     29  H   UNL     1      -1.092  12.366  19.300  0.00  0.00    +0.083 HD
ATOM     30  H   UNL     1      -2.616  12.586  17.040  0.00  0.00    +0.084 HD
ATOM     31  H   UNL     1      -1.116   8.710  17.170  0.00  0.00    +0.103 HD
ENDBRANCH  18  24
ENDBRANCH   5  14
BRANCH   3  32
ATOM     32  C   UNL     1       2.924   4.267  18.288  0.00  0.00    +0.248 A 
ATOM     33  N   UNL     1       1.801   3.964  18.906  0.00  0.00    -0.195 NA
ATOM     34  C   UNL     1       1.581   2.679  18.486  0.00  0.00    +0.169 A 
ATOM     35  N   UNL     1       2.531   2.169  17.693  0.00  0.00    -0.062 NA
ATOM     36  O   UNL     1       3.430   3.229  17.555  0.00  0.00    -0.336 OA
BRANCH  34  37
ATOM     37  C   UNL     1       0.392   1.905  18.889  0.00  0.00    -0.001 C 
ATOM     38  H   UNL     1       0.303   1.865  19.979  0.00  0.00    +0.031 HD
ATOM     39  H   UNL     1      -0.517   2.367  18.490  0.00  0.00    +0.031 HD
ATOM     40  H   UNL     1       0.451   0.878  18.518  0.00  0.00    +0.031 HD
ENDBRANCH  34  37
ENDBRANCH   3  32
BRANCH   1  41
ATOM     41  O   UNL     1       5.633   7.747  17.766  0.00  0.00    -0.378 OA
BRANCH  41  42
ATOM     42  C   UNL     1       6.827   7.102  17.338  0.00  0.00    +0.037 C 
ATOM     43  H   UNL     1       7.634   7.825  17.191  0.00  0.00    +0.052 HD
ATOM     44  H   UNL     1       6.625   6.610  16.382  0.00  0.00    +0.052 HD
ATOM     45  H   UNL     1       7.130   6.342  18.062  0.00  0.00    +0.052 HD
ENDBRANCH  41  42
ENDBRANCH   1  41
TORSDOF 6
ENDMDL
MODEL 27
REMARK VINA RESULT:    -5.220      4.061      7.882
REMARK INTER + INTRA:          -6.532
REMARK INTER:                  -5.857
REMARK INTRA:                  -0.675
REMARK UNBOUND:                 0.214
REMARK  Name = 
REMARK  6 active torsions:
REMARK  status: ('A' for Active; 'I' for Inactive)
REMARK    1  A    between atoms: C_1  and  O_2
REMARK    2  A    between atoms: O_2  and  C_3
REMARK    3  A    between atoms: C_5  and  C_6
REMARK    4  A    between atoms: C_8  and  C_9
REMARK    5  A    between atoms: C_13  and  C_15
REMARK    6  A    between atoms: C_19  and  N_20
REMARK                            x       y       z     vdW  Elec       q    Type
REMARK                         _______ _______ _______ _____ _____    ______ ____
ROOT
ATOM      1  C   UNL     1       1.656   9.185  18.120  0.00  0.00    +0.076 C 
ATOM      2  C   UNL     1       0.158   9.085  17.852  0.00  0.00    +0.002 C 
ATOM      3  C   UNL     1      -0.417  10.269  18.640  0.00  0.00    +0.107 C 
ATOM      4  N   UNL     1       0.643  11.278  18.610  0.00  0.00    -0.283 N 
ATOM      5  C   UNL     1       0.548  12.398  19.418  0.00  0.00    +0.247 C 
ATOM      6  O   UNL     1      -0.399  12.611  20.168  0.00  0.00    -0.270 OA
ATOM      7  C   UNL     1       1.893  10.701  18.119  0.00  0.00    +0.042 C 
ATOM      8  H   UNL     1       2.267   8.694  17.355  0.00  0.00    +0.061 HD
ATOM      9  H   UNL     1      -0.025   9.200  16.776  0.00  0.00    +0.031 HD
ATOM     10  H   UNL     1      -0.293   8.142  18.174  0.00  0.00    +0.031 HD
ATOM     11  H   UNL     1      -0.593   9.988  19.686  0.00  0.00    +0.060 HD
ATOM     12  H   UNL     1       2.035  11.067  17.097  0.00  0.00    +0.049 HD
ATOM     13  H   UNL     1       2.737  10.993  18.748  0.00  0.00    +0.049 HD
ENDROOT
BRANCH   5  14
ATOM     14  C   UNL     1       1.642  13.396  19.362  0.00  0.00    +0.039 A 
ATOM     15  C   UNL     1       1.787  14.168  18.209  0.00  0.00    -0.050 A 
ATOM     16  C   UNL     1       2.816  15.103  18.134  0.00  0.00    -0.059 A 
ATOM     17  C   UNL     1       3.708  15.256  19.201  0.00  0.00    -0.038 A 
ATOM     18  C   UNL     1       3.586  14.464  20.354  0.00  0.00    +0.048 A 
ATOM     19  C   UNL     1       2.547  13.524  20.425  0.00  0.00    -0.026 A 
ATOM     20  H   UNL     1       1.102  14.040  17.373  0.00  0.00    +0.063 HD
ATOM     21  H   UNL     1       2.932  15.708  17.238  0.00  0.00    +0.062 HD
ATOM     22  H   UNL     1       4.495  15.996  19.084  0.00  0.00    +0.064 HD
ATOM     23  H   UNL     1       2.423  12.865  21.279  0.00  0.00    +0.065 HD
BRANCH  18  24
ATOM     24  N   UNL     1       4.506  14.607  21.436  0.00  0.00    -0.306 N 
ATOM     25  C   UNL     1       4.212  14.880  22.756  0.00  0.00    +0.029 A 
ATOM     26  C   UNL     1       5.416  14.934  23.416  0.00  0.00    +0.046 A 
ATOM     27  N   UNL     1       6.449  14.709  22.556  0.00  0.00    -0.244 NA
ATOM     28  C   UNL     1       5.882  14.511  21.386  0.00  0.00    +0.100 A 
ATOM     29  H   UNL     1       3.208  15.005  23.130  0.00  0.00    +0.083 HD
ATOM     30  H   UNL     1       5.589  15.123  24.468  0.00  0.00    +0.084 HD
ATOM     31  H   UNL     1       6.430  14.300  20.480  0.00  0.00    +0.103 HD
ENDBRANCH  18  24
ENDBRANCH   5  14
BRANCH   3  32
ATOM     32  C   UNL     1      -1.687  10.747  18.018  0.00  0.00    +0.248 A 
ATOM     33  N   UNL     1      -2.808  11.131  18.592  0.00  0.00    -0.195 NA
ATOM     34  C   UNL     1      -3.604  11.404  17.511  0.00  0.00    +0.169 A 
ATOM     35  N   UNL     1      -3.048  11.158  16.318  0.00  0.00    -0.062 NA
ATOM     36  O   UNL     1      -1.764  10.721  16.652  0.00  0.00    -0.336 OA
BRANCH  34  37
ATOM     37  C   UNL     1      -4.979  11.918  17.648  0.00  0.00    -0.001 C 
ATOM     38  H   UNL     1      -5.713  11.133  17.436  0.00  0.00    +0.031 HD
ATOM     39  H   UNL     1      -5.152  12.277  18.668  0.00  0.00    +0.031 HD
ATOM     40  H   UNL     1      -5.159  12.744  16.954  0.00  0.00    +0.031 HD
ENDBRANCH  34  37
ENDBRANCH   3  32
BRANCH   1  41
ATOM     41  O   UNL     1       1.981   8.667  19.413  0.00  0.00    -0.378 OA
BRANCH  41  42
ATOM     42  C   UNL     1       2.348   7.294  19.388  0.00  0.00    +0.037 C 
ATOM     43  H   UNL     1       2.003   6.777  20.287  0.00  0.00    +0.052 HD
ATOM     44  H   UNL     1       3.440   7.232  19.351  0.00  0.00    +0.052 HD
ATOM     45  H   UNL     1       1.943   6.807  18.496  0.00  0.00    +0.052 HD
ENDBRANCH  41  42
ENDBRANCH   1  41
TORSDOF 6
ENDMDL
MODEL 28
REMARK VINA RESULT:    -5.135      2.805      4.573
REMARK INTER + INTRA:          -6.423
REMARK INTER:                  -6.068
REMARK INTRA:                  -0.355
REMARK UNBOUND:                 0.214
REMARK  Name = 
REMARK  6 active torsions:
REMARK  status: ('A' for Active; 'I' for Inactive)
REMARK    1  A    between atoms: C_1  and  O_2
REMARK    2  A    between atoms: O_2  and  C_3
REMARK    3  A    between atoms: C_5  and  C_6
REMARK    4  A    between atoms: C_8  and  C_9
REMARK    5  A    between atoms: C_13  and  C_15
REMARK    6  A    between atoms: C_19  and  N_20
REMARK                            x       y       z     vdW  Elec       q    Type
REMARK                         _______ _______ _______ _____ _____    ______ ____
ROOT
ATOM      1  C   UNL     1       1.620   8.966  17.769  0.00  0.00    +0.076 C 
ATOM      2  C   UNL     1       2.075   7.538  18.046  0.00  0.00    +0.002 C 
ATOM      3  C   UNL     1       2.289   7.528  19.566  0.00  0.00    +0.107 C 
ATOM      4  N   UNL     1       1.314   8.493  20.077  0.00  0.00    -0.283 N 
ATOM      5  C   UNL     1       1.380   8.902  21.399  0.00  0.00    +0.247 C 
ATOM      6  O   UNL     1       2.218   8.486  22.192  0.00  0.00    -0.270 OA
ATOM      7  C   UNL     1       0.737   9.275  18.985  0.00  0.00    +0.042 C 
ATOM      8  H   UNL     1       1.051   9.067  16.838  0.00  0.00    +0.061 HD
ATOM      9  H   UNL     1       1.280   6.840  17.754  0.00  0.00    +0.031 HD
ATOM     10  H   UNL     1       2.990   7.249  17.520  0.00  0.00    +0.031 HD
ATOM     11  H   UNL     1       3.293   7.890  19.817  0.00  0.00    +0.060 HD
ATOM     12  H   UNL     1      -0.280   8.903  18.826  0.00  0.00    +0.049 HD
ATOM     13  H   UNL     1       0.719  10.340  19.229  0.00  0.00    +0.049 HD
ENDROOT
BRANCH   5  14
ATOM     14  C   UNL     1       0.378   9.882  21.879  0.00  0.00    +0.039 A 
ATOM     15  C   UNL     1      -0.444   9.529  22.950  0.00  0.00    -0.050 A 
ATOM     16  C   UNL     1      -1.399  10.433  23.408  0.00  0.00    -0.059 A 
ATOM     17  C   UNL     1      -1.544  11.680  22.789  0.00  0.00    -0.038 A 
ATOM     18  C   UNL     1      -0.739  12.031  21.692  0.00  0.00    +0.048 A 
ATOM     19  C   UNL     1       0.222  11.118  21.236  0.00  0.00    -0.026 A 
ATOM     20  H   UNL     1      -0.342   8.555  23.423  0.00  0.00    +0.063 HD
ATOM     21  H   UNL     1      -2.041  10.164  24.244  0.00  0.00    +0.062 HD
ATOM     22  H   UNL     1      -2.309  12.342  23.184  0.00  0.00    +0.064 HD
ATOM     23  H   UNL     1       0.851  11.324  20.375  0.00  0.00    +0.065 HD
BRANCH  18  24
ATOM     24  N   UNL     1      -0.897  13.295  21.049  0.00  0.00    -0.306 N 
ATOM     25  C   UNL     1      -1.903  14.217  21.248  0.00  0.00    +0.029 A 
ATOM     26  C   UNL     1      -1.638  15.267  20.400  0.00  0.00    +0.046 A 
ATOM     27  N   UNL     1      -0.507  15.029  19.677  0.00  0.00    -0.244 NA
ATOM     28  C   UNL     1      -0.082  13.854  20.085  0.00  0.00    +0.100 A 
ATOM     29  H   UNL     1      -2.706  14.082  21.956  0.00  0.00    +0.083 HD
ATOM     30  H   UNL     1      -2.206  16.180  20.276  0.00  0.00    +0.084 HD
ATOM     31  H   UNL     1       0.807  13.372  19.707  0.00  0.00    +0.103 HD
ENDBRANCH  18  24
ENDBRANCH   5  14
BRANCH   3  32
ATOM     32  C   UNL     1       2.086   6.156  20.116  0.00  0.00    +0.248 A 
ATOM     33  N   UNL     1       2.974   5.221  20.383  0.00  0.00    -0.195 NA
ATOM     34  C   UNL     1       2.182   4.189  20.814  0.00  0.00    +0.169 A 
ATOM     35  N   UNL     1       0.866   4.426  20.771  0.00  0.00    -0.062 NA
ATOM     36  O   UNL     1       0.796   5.742  20.308  0.00  0.00    -0.336 OA
BRANCH  34  37
ATOM     37  C   UNL     1       2.737   2.903  21.275  0.00  0.00    -0.001 C 
ATOM     38  H   UNL     1       3.655   3.057  21.850  0.00  0.00    +0.031 HD
ATOM     39  H   UNL     1       2.017   2.386  21.917  0.00  0.00    +0.031 HD
ATOM     40  H   UNL     1       2.975   2.254  20.427  0.00  0.00    +0.031 HD
ENDBRANCH  34  37
ENDBRANCH   3  32
BRANCH   1  41
ATOM     41  O   UNL     1       2.731   9.867  17.763  0.00  0.00    -0.378 OA
BRANCH  41  42
ATOM     42  C   UNL     1       2.366  11.204  18.082  0.00  0.00    +0.037 C 
ATOM     43  H   UNL     1       1.664  11.232  18.920  0.00  0.00    +0.052 HD
ATOM     44  H   UNL     1       1.877  11.643  17.207  0.00  0.00    +0.052 HD
ATOM     45  H   UNL     1       3.254  11.796  18.317  0.00  0.00    +0.052 HD
ENDBRANCH  41  42
ENDBRANCH   1  41
TORSDOF 6
ENDMDL
MODEL 29
REMARK VINA RESULT:    -5.048      4.854      8.681
REMARK INTER + INTRA:          -6.310
REMARK INTER:                  -5.695
REMARK INTRA:                  -0.615
REMARK UNBOUND:                 0.214
REMARK  Name = 
REMARK  6 active torsions:
REMARK  status: ('A' for Active; 'I' for Inactive)
REMARK    1  A    between atoms: C_1  and  O_2
REMARK    2  A    between atoms: O_2  and  C_3
REMARK    3  A    between atoms: C_5  and  C_6
REMARK    4  A    between atoms: C_8  and  C_9
REMARK    5  A    between atoms: C_13  and  C_15
REMARK    6  A    between atoms: C_19  and  N_20
REMARK                            x       y       z     vdW  Elec       q    Type
REMARK                         _______ _______ _______ _____ _____    ______ ____
ROOT
ATOM      1  C   UNL     1       0.793   9.772  19.459  0.00  0.00    +0.076 C 
ATOM      2  C   UNL     1      -0.651  10.001  19.890  0.00  0.00    +0.002 C 
ATOM      3  C   UNL     1      -0.584  11.336  20.643  0.00  0.00    +0.107 C 
ATOM      4  N   UNL     1       0.500  12.070  19.988  0.00  0.00    -0.283 N 
ATOM      5  C   UNL     1       0.984  13.235  20.559  0.00  0.00    +0.247 C 
ATOM      6  O   UNL     1       0.542  13.710  21.600  0.00  0.00    -0.270 OA
ATOM      7  C   UNL     1       1.262  11.190  19.104  0.00  0.00    +0.042 C 
ATOM      8  H   UNL     1       0.888   9.103  18.597  0.00  0.00    +0.061 HD
ATOM      9  H   UNL     1      -1.287  10.081  18.999  0.00  0.00    +0.031 HD
ATOM     10  H   UNL     1      -1.059   9.211  20.528  0.00  0.00    +0.031 HD
ATOM     11  H   UNL     1      -0.304  11.176  21.691  0.00  0.00    +0.060 HD
ATOM     12  H   UNL     1       0.978  11.442  18.077  0.00  0.00    +0.049 HD
ATOM     13  H   UNL     1       2.338  11.322  19.245  0.00  0.00    +0.049 HD
ENDROOT
BRANCH   5  14
ATOM     14  C   UNL     1       2.084  13.949  19.868  0.00  0.00    +0.039 A 
ATOM     15  C   UNL     1       1.840  14.496  18.607  0.00  0.00    -0.050 A 
ATOM     16  C   UNL     1       2.865  15.160  17.939  0.00  0.00    -0.059 A 
ATOM     17  C   UNL     1       4.134  15.266  18.520  0.00  0.00    -0.038 A 
ATOM     18  C   UNL     1       4.395  14.694  19.776  0.00  0.00    +0.048 A 
ATOM     19  C   UNL     1       3.359  14.027  20.446  0.00  0.00    -0.026 A 
ATOM     20  H   UNL     1       0.858  14.402  18.149  0.00  0.00    +0.063 HD
ATOM     21  H   UNL     1       2.680  15.590  16.957  0.00  0.00    +0.062 HD
ATOM     22  H   UNL     1       4.896  15.790  17.949  0.00  0.00    +0.064 HD
ATOM     23  H   UNL     1       3.511  13.541  21.405  0.00  0.00    +0.065 HD
BRANCH  18  24
ATOM     24  N   UNL     1       5.693  14.786  20.362  0.00  0.00    -0.306 N 
ATOM     25  C   UNL     1       6.013  14.736  21.702  0.00  0.00    +0.029 A 
ATOM     26  C   UNL     1       7.379  14.876  21.778  0.00  0.00    +0.046 A 
ATOM     27  N   UNL     1       7.919  15.016  20.534  0.00  0.00    -0.244 NA
ATOM     28  C   UNL     1       6.897  14.952  19.710  0.00  0.00    +0.100 A 
ATOM     29  H   UNL     1       5.284  14.602  22.486  0.00  0.00    +0.083 HD
ATOM     30  H   UNL     1       7.997  14.884  22.667  0.00  0.00    +0.084 HD
ATOM     31  H   UNL     1       6.987  15.025  18.636  0.00  0.00    +0.103 HD
ENDBRANCH  18  24
ENDBRANCH   5  14
BRANCH   3  32
ATOM     32  C   UNL     1      -1.893  12.049  20.566  0.00  0.00    +0.248 A 
ATOM     33  N   UNL     1      -2.530  12.732  21.494  0.00  0.00    -0.195 NA
ATOM     34  C   UNL     1      -3.678  13.098  20.842  0.00  0.00    +0.169 A 
ATOM     35  N   UNL     1      -3.796  12.633  19.593  0.00  0.00    -0.062 NA
ATOM     36  O   UNL     1      -2.602  11.933  19.402  0.00  0.00    -0.336 OA
BRANCH  34  37
ATOM     37  C   UNL     1      -4.718  13.931  21.474  0.00  0.00    -0.001 C 
ATOM     38  H   UNL     1      -5.074  13.474  22.402  0.00  0.00    +0.031 HD
ATOM     39  H   UNL     1      -4.319  14.922  21.714  0.00  0.00    +0.031 HD
ATOM     40  H   UNL     1      -5.577  14.055  20.808  0.00  0.00    +0.031 HD
ENDBRANCH  34  37
ENDBRANCH   3  32
BRANCH   1  41
ATOM     41  O   UNL     1       1.582   9.284  20.547  0.00  0.00    -0.378 OA
BRANCH  41  42
ATOM     42  C   UNL     1       1.030   8.126  21.161  0.00  0.00    +0.037 C 
ATOM     43  H   UNL     1       1.498   7.215  20.777  0.00  0.00    +0.052 HD
ATOM     44  H   UNL     1      -0.038   8.091  20.926  0.00  0.00    +0.052 HD
ATOM     45  H   UNL     1       1.144   8.178  22.247  0.00  0.00    +0.052 HD
ENDBRANCH  41  42
ENDBRANCH   1  41
TORSDOF 6
ENDMDL
MODEL 30
REMARK VINA RESULT:    -4.846      4.928      9.726
REMARK INTER + INTRA:          -6.049
REMARK INTER:                  -6.169
REMARK INTRA:                   0.119
REMARK UNBOUND:                 0.214
REMARK  Name = 
REMARK  6 active torsions:
REMARK  status: ('A' for Active; 'I' for Inactive)
REMARK    1  A    between atoms: C_1  and  O_2
REMARK    2  A    between atoms: O_2  and  C_3
REMARK    3  A    between atoms: C_5  and  C_6
REMARK    4  A    between atoms: C_8  and  C_9
REMARK    5  A    between atoms: C_13  and  C_15
REMARK    6  A    between atoms: C_19  and  N_20
REMARK                            x       y       z     vdW  Elec       q    Type
REMARK                         _______ _______ _______ _____ _____    ______ ____
ROOT
ATOM      1  C   UNL     1       0.920  14.226  21.580  0.00  0.00    +0.076 C 
ATOM      2  C   UNL     1      -0.108  14.625  22.633  0.00  0.00    +0.002 C 
ATOM      3  C   UNL     1      -1.446  14.401  21.918  0.00  0.00    +0.107 C 
ATOM      4  N   UNL     1      -1.187  13.294  20.995  0.00  0.00    -0.283 N 
ATOM      5  C   UNL     1      -2.123  12.973  20.026  0.00  0.00    +0.247 C 
ATOM      6  O   UNL     1      -3.189  13.564  19.897  0.00  0.00    -0.270 OA
ATOM      7  C   UNL     1       0.247  13.027  20.898  0.00  0.00    +0.042 C 
ATOM      8  H   UNL     1       1.888  13.940  22.005  0.00  0.00    +0.061 HD
ATOM      9  H   UNL     1      -0.009  13.965  23.504  0.00  0.00    +0.031 HD
ATOM     10  H   UNL     1      -0.016  15.659  22.980  0.00  0.00    +0.031 HD
ATOM     11  H   UNL     1      -1.721  15.283  21.326  0.00  0.00    +0.060 HD
ATOM     12  H   UNL     1       0.441  12.107  21.459  0.00  0.00    +0.049 HD
ATOM     13  H   UNL     1       0.557  12.910  19.856  0.00  0.00    +0.049 HD
ENDROOT
BRANCH   5  14
ATOM     14  C   UNL     1      -1.823  11.848  19.110  0.00  0.00    +0.039 A 
ATOM     15  C   UNL     1      -2.725  11.560  18.085  0.00  0.00    -0.050 A 
ATOM     16  C   UNL     1      -2.465  10.500  17.221  0.00  0.00    -0.059 A 
ATOM     17  C   UNL     1      -1.316   9.719  17.388  0.00  0.00    -0.038 A 
ATOM     18  C   UNL     1      -0.418   9.985  18.434  0.00  0.00    +0.048 A 
ATOM     19  C   UNL     1      -0.683  11.055  19.301  0.00  0.00    -0.026 A 
ATOM     20  H   UNL     1      -3.626  12.158  17.962  0.00  0.00    +0.063 HD
ATOM     21  H   UNL     1      -3.164  10.273  16.419  0.00  0.00    +0.062 HD
ATOM     22  H   UNL     1      -1.168   8.901  16.688  0.00  0.00    +0.064 HD
ATOM     23  H   UNL     1      -0.040  11.288  20.144  0.00  0.00    +0.065 HD
BRANCH  18  24
ATOM     24  N   UNL     1       0.746   9.179  18.617  0.00  0.00    -0.306 N 
ATOM     25  C   UNL     1       1.714   8.880  17.682  0.00  0.00    +0.029 A 
ATOM     26  C   UNL     1       2.625   8.068  18.315  0.00  0.00    +0.046 A 
ATOM     27  N   UNL     1       2.256   7.846  19.609  0.00  0.00    -0.244 NA
ATOM     28  C   UNL     1       1.140   8.523  19.766  0.00  0.00    +0.100 A 
ATOM     29  H   UNL     1       1.702   9.253  16.669  0.00  0.00    +0.083 HD
ATOM     30  H   UNL     1       3.526   7.632  17.903  0.00  0.00    +0.084 HD
ATOM     31  H   UNL     1       0.585   8.561  20.692  0.00  0.00    +0.103 HD
ENDBRANCH  18  24
ENDBRANCH   5  14
BRANCH   3  32
ATOM     32  C   UNL     1      -2.523  14.090  22.904  0.00  0.00    +0.248 A 
ATOM     33  N   UNL     1      -2.957  12.922  23.328  0.00  0.00    -0.195 NA
ATOM     34  C   UNL     1      -3.971  13.284  24.176  0.00  0.00    +0.169 A 
ATOM     35  N   UNL     1      -4.209  14.600  24.248  0.00  0.00    -0.062 NA
ATOM     36  O   UNL     1      -3.241  15.143  23.401  0.00  0.00    -0.336 OA
BRANCH  34  37
ATOM     37  C   UNL     1      -4.754  12.299  24.943  0.00  0.00    -0.001 C 
ATOM     38  H   UNL     1      -5.825  12.406  24.739  0.00  0.00    +0.031 HD
ATOM     39  H   UNL     1      -4.458  11.281  24.671  0.00  0.00    +0.031 HD
ATOM     40  H   UNL     1      -4.601  12.429  26.018  0.00  0.00    +0.031 HD
ENDBRANCH  34  37
ENDBRANCH   3  32
BRANCH   1  41
ATOM     41  O   UNL     1       1.097  15.267  20.615  0.00  0.00    -0.378 OA
BRANCH  41  42
ATOM     42  C   UNL     1       1.697  14.813  19.408  0.00  0.00    +0.037 C 
ATOM     43  H   UNL     1       2.619  15.361  19.196  0.00  0.00    +0.052 HD
ATOM     44  H   UNL     1       0.993  14.989  18.589  0.00  0.00    +0.052 HD
ATOM     45  H   UNL     1       1.902  13.740  19.465  0.00  0.00    +0.052 HD
ENDBRANCH  41  42
ENDBRANCH   1  41
TORSDOF 6
ENDMDL
MODEL 31
REMARK VINA RESULT:    -4.737      2.924      8.215
REMARK INTER + INTRA:          -5.908
REMARK INTER:                  -6.122
REMARK INTRA:                   0.214
REMARK UNBOUND:                 0.214
REMARK  Name = 
REMARK  6 active torsions:
REMARK  status: ('A' for Active; 'I' for Inactive)
REMARK    1  A    between atoms: C_1  and  O_2
REMARK    2  A    between atoms: O_2  and  C_3
REMARK    3  A    between atoms: C_5  and  C_6
REMARK    4  A    between atoms: C_8  and  C_9
REMARK    5  A    between atoms: C_13  and  C_15
REMARK    6  A    between atoms: C_19  and  N_20
REMARK                            x       y       z     vdW  Elec       q    Type
REMARK                         _______ _______ _______ _____ _____    ______ ____
ROOT
ATOM      1  C   UNL     1      -1.663  12.218  20.607  0.00  0.00    +0.076 C 
ATOM      2  C   UNL     1      -2.452  12.283  19.304  0.00  0.00    +0.002 C 
ATOM      3  C   UNL     1      -1.542  11.551  18.308  0.00  0.00    +0.107 C 
ATOM      4  N   UNL     1      -0.834  10.560  19.120  0.00  0.00    -0.283 N 
ATOM      5  C   UNL     1       0.237   9.867  18.580  0.00  0.00    +0.247 C 
ATOM      6  O   UNL     1       0.633  10.028  17.431  0.00  0.00    -0.270 OA
ATOM      7  C   UNL     1      -1.034  10.820  20.544  0.00  0.00    +0.042 C 
ATOM      8  H   UNL     1      -2.290  12.324  21.499  0.00  0.00    +0.061 HD
ATOM      9  H   UNL     1      -3.405  11.754  19.431  0.00  0.00    +0.031 HD
ATOM     10  H   UNL     1      -2.671  13.299  18.962  0.00  0.00    +0.031 HD
ATOM     11  H   UNL     1      -0.800  12.239  17.885  0.00  0.00    +0.060 HD
ATOM     12  H   UNL     1      -1.736  10.065  20.914  0.00  0.00    +0.049 HD
ATOM     13  H   UNL     1      -0.090  10.761  21.093  0.00  0.00    +0.049 HD
ENDROOT
BRANCH   5  14
ATOM     14  C   UNL     1       0.929   8.874  19.434  0.00  0.00    +0.039 A 
ATOM     15  C   UNL     1       0.882   9.031  20.819  0.00  0.00    -0.050 A 
ATOM     16  C   UNL     1       1.536   8.113  21.636  0.00  0.00    -0.059 A 
ATOM     17  C   UNL     1       2.249   7.049  21.072  0.00  0.00    -0.038 A 
ATOM     18  C   UNL     1       2.325   6.900  19.677  0.00  0.00    +0.048 A 
ATOM     19  C   UNL     1       1.663   7.827  18.858  0.00  0.00    -0.026 A 
ATOM     20  H   UNL     1       0.340   9.865  21.259  0.00  0.00    +0.063 HD
ATOM     21  H   UNL     1       1.501   8.229  22.717  0.00  0.00    +0.062 HD
ATOM     22  H   UNL     1       2.745   6.367  21.758  0.00  0.00    +0.064 HD
ATOM     23  H   UNL     1       1.712   7.777  17.775  0.00  0.00    +0.065 HD
BRANCH  18  24
ATOM     24  N   UNL     1       3.066   5.826  19.099  0.00  0.00    -0.306 N 
ATOM     25  C   UNL     1       2.639   4.936  18.136  0.00  0.00    +0.029 A 
ATOM     26  C   UNL     1       3.692   4.081  17.907  0.00  0.00    +0.046 A 
ATOM     27  N   UNL     1       4.756   4.404  18.696  0.00  0.00    -0.244 NA
ATOM     28  C   UNL     1       4.361   5.448  19.391  0.00  0.00    +0.100 A 
ATOM     29  H   UNL     1       1.660   4.967  17.685  0.00  0.00    +0.083 HD
ATOM     30  H   UNL     1       3.735   3.250  17.214  0.00  0.00    +0.084 HD
ATOM     31  H   UNL     1       4.979   5.956  20.116  0.00  0.00    +0.103 HD
ENDBRANCH  18  24
ENDBRANCH   5  14
BRANCH   3  32
ATOM     32  C   UNL     1      -2.349  10.933  17.215  0.00  0.00    +0.248 A 
ATOM     33  N   UNL     1      -2.275  11.116  15.914  0.00  0.00    -0.195 NA
ATOM     34  C   UNL     1      -3.290  10.318  15.454  0.00  0.00    +0.169 A 
ATOM     35  N   UNL     1      -4.007   9.707  16.405  0.00  0.00    -0.062 NA
ATOM     36  O   UNL     1      -3.379  10.112  17.584  0.00  0.00    -0.336 OA
BRANCH  34  37
ATOM     37  C   UNL     1      -3.584  10.157  14.019  0.00  0.00    -0.001 C 
ATOM     38  H   UNL     1      -4.577   9.720  13.870  0.00  0.00    +0.031 HD
ATOM     39  H   UNL     1      -3.561  11.128  13.513  0.00  0.00    +0.031 HD
ATOM     40  H   UNL     1      -2.852   9.499  13.542  0.00  0.00    +0.031 HD
ENDBRANCH  34  37
ENDBRANCH   3  32
BRANCH   1  41
ATOM     41  O   UNL     1      -0.618  13.195  20.623  0.00  0.00    -0.378 OA
BRANCH  41  42
ATOM     42  C   UNL     1       0.479  12.824  21.449  0.00  0.00    +0.037 C 
ATOM     43  H   UNL     1       0.209  12.874  22.508  0.00  0.00    +0.052 HD
ATOM     44  H   UNL     1       1.297  13.527  21.267  0.00  0.00    +0.052 HD
ATOM     45  H   UNL     1       0.824  11.818  21.196  0.00  0.00    +0.052 HD
ENDBRANCH  41  42
ENDBRANCH   1  41
TORSDOF 6
ENDMDL
