MODEL 1
REMARK VINA RESULT:    -8.828      0.000      0.000
REMARK INTER + INTRA:         -12.338
REMARK INTER:                 -11.941
REMARK INTRA:                  -0.397
REMARK UNBOUND:                -0.413
REMARK  Name = 
REMARK  7 active torsions:
REMARK  status: ('A' for Active; 'I' for Inactive)
REMARK    1  A    between atoms: C_1  and  C_2
REMARK    2  A    between atoms: C_2  and  C_3
REMARK    3  A    between atoms: C_2  and  C_10
REMARK    4  A    between atoms: C_3  and  C_4
REMARK    5  A    between atoms: N_8  and  C_9
REMARK    6  A    between atoms: C_14  and  N_16
REMARK    7  A    between atoms: C_24  and  C_28
REMARK                            x       y       z     vdW  Elec       q    Type
REMARK                         _______ _______ _______ _____ _____    ______ ____
ROOT
ATOM      1  C   UNL     1      -0.474  10.900  20.295  0.00  0.00    -0.042 A 
ATOM      2  C   UNL     1      -0.756  11.232  21.628  0.00  0.00    -0.058 A 
ATOM      3  C   UNL     1      -0.282  10.435  22.671  0.00  0.00    -0.060 A 
ATOM      4  C   UNL     1       0.482   9.303  22.392  0.00  0.00    -0.040 A 
ATOM      5  C   UNL     1       0.784   8.956  21.071  0.00  0.00    +0.035 A 
ATOM      6  C   UNL     1       0.297   9.753  20.029  0.00  0.00    -0.037 A 
ATOM      7  H   UNL     1      -1.337  12.117  21.872  0.00  0.00    +0.062 HD
ATOM      8  H   UNL     1      -0.497  10.705  23.702  0.00  0.00    +0.062 HD
ATOM      9  H   UNL     1       0.844   8.703  23.224  0.00  0.00    +0.064 HD
ATOM     10  H   UNL     1       0.506   9.493  18.994  0.00  0.00    +0.064 HD
ENDROOT
BRANCH   5  11
ATOM     11  N   UNL     1       1.558   7.797  20.877  0.00  0.00    -0.269 N 
ATOM     12  C   UNL     1       2.001   7.264  19.669  0.00  0.00    +0.312 C 
ATOM     13  N   UNL     1       2.646   6.037  19.878  0.00  0.00    -0.234 N 
ATOM     14  C   UNL     1       1.860   4.944  20.457  0.00  0.00    +0.057 C 
ATOM     15  C   UNL     1       2.743   3.758  20.816  0.00  0.00    +0.106 C 
ATOM     16  O   UNL     1       3.440   3.266  19.667  0.00  0.00    -0.487 OA
ATOM     17  C   UNL     1       4.054   4.273  18.959  0.00  0.00    +0.161 A 
ATOM     18  C   UNL     1       5.090   3.880  18.113  0.00  0.00    -0.003 A 
ATOM     19  C   UNL     1       5.793   4.846  17.385  0.00  0.00    +0.076 A 
ATOM     20  C   UNL     1       5.427   6.172  17.565  0.00  0.00    +0.042 A 
ATOM     21  N   UNL     1       4.418   6.576  18.370  0.00  0.00    -0.236 NA
ATOM     22  C   UNL     1       3.708   5.632  19.028  0.00  0.00    +0.171 A 
ATOM     23  O   UNL     1       1.832   7.771  18.564  0.00  0.00    -0.252 OA
ATOM     24  H   UNL     1       2.080   7.463  21.671  0.00  0.00    +0.156 HD
ATOM     25  H   UNL     1       1.109   4.655  19.706  0.00  0.00    +0.050 HD
ATOM     26  H   UNL     1       1.323   5.293  21.346  0.00  0.00    +0.050 HD
ATOM     27  H   UNL     1       2.127   2.936  21.203  0.00  0.00    +0.071 HD
ATOM     28  H   UNL     1       3.472   4.018  21.596  0.00  0.00    +0.071 HD
ATOM     29  H   UNL     1       5.348   2.826  18.031  0.00  0.00    +0.066 HD
ATOM     30  H   UNL     1       5.942   6.982  17.051  0.00  0.00    +0.084 HD
BRANCH  19  31
ATOM     31  C   UNL     1       6.936   4.498  16.487  0.00  0.00    +0.419 C 
ATOM     32  F   UNL     1       7.319   5.525  15.682  0.00  0.00    -0.166 F 
ATOM     33  F   UNL     1       6.665   3.460  15.657  0.00  0.00    -0.166 F 
ATOM     34  F   UNL     1       8.046   4.142  17.183  0.00  0.00    -0.166 F 
ENDBRANCH  19  31
ENDBRANCH   5  11
BRANCH   1  35
ATOM     35  C   UNL     1      -0.968  11.763  19.137  0.00  0.00    -0.012 C 
ATOM     36  H   UNL     1      -0.412  11.478  18.231  0.00  0.00    +0.035 HD
BRANCH  35  37
ATOM     37  C   UNL     1      -0.641  13.239  19.408  0.00  0.00    -0.058 C 
ATOM     38  H   UNL     1      -0.892  13.518  20.438  0.00  0.00    +0.024 HD
ATOM     39  H   UNL     1       0.422  13.457  19.253  0.00  0.00    +0.024 HD
ATOM     40  H   UNL     1      -1.218  13.894  18.742  0.00  0.00    +0.024 HD
ENDBRANCH  35  37
BRANCH  35  41
ATOM     41  C   UNL     1      -2.471  11.529  18.864  0.00  0.00    +0.014 C 
ATOM     42  H   UNL     1      -2.860  10.799  19.585  0.00  0.00    +0.035 HD
ATOM     43  H   UNL     1      -3.042  12.447  19.030  0.00  0.00    +0.035 HD
BRANCH  41  44
ATOM     44  C   UNL     1      -2.734  10.999  17.496  0.00  0.00    +0.134 A 
ATOM     45  N   UNL     1      -1.912  10.262  16.775  0.00  0.00    -0.135 NA
ATOM     46  N   UNL     1      -2.517   9.998  15.571  0.00  0.00    -0.138 NA
ATOM     47  C   UNL     1      -3.697  10.572  15.583  0.00  0.00    +0.120 A 
ATOM     48  N   UNL     1      -3.881  11.204  16.772  0.00  0.00    -0.320 N 
ATOM     49  H   UNL     1      -4.423  10.556  14.780  0.00  0.00    +0.105 HD
BRANCH  48  50
ATOM     50  C   UNL     1      -5.063  11.924  17.166  0.00  0.00    +0.014 C 
ATOM     51  H   UNL     1      -5.202  12.758  16.467  0.00  0.00    +0.046 HD
ATOM     52  H   UNL     1      -4.941  12.310  18.183  0.00  0.00    +0.046 HD
ATOM     53  H   UNL     1      -5.921  11.249  17.132  0.00  0.00    +0.046 HD
ENDBRANCH  48  50
ENDBRANCH  41  44
ENDBRANCH  35  41
ENDBRANCH   1  35
TORSDOF 7
ENDMDL
MODEL 2
REMARK VINA RESULT:    -8.580      1.036      1.470
REMARK INTER + INTRA:         -12.002
REMARK INTER:                 -11.442
REMARK INTRA:                  -0.560
REMARK UNBOUND:                -0.413
REMARK  Name = 
REMARK  7 active torsions:
REMARK  status: ('A' for Active; 'I' for Inactive)
REMARK    1  A    between atoms: C_1  and  C_2
REMARK    2  A    between atoms: C_2  and  C_3
REMARK    3  A    between atoms: C_2  and  C_10
REMARK    4  A    between atoms: C_3  and  C_4
REMARK    5  A    between atoms: N_8  and  C_9
REMARK    6  A    between atoms: C_14  and  N_16
REMARK    7  A    between atoms: C_24  and  C_28
REMARK                            x       y       z     vdW  Elec       q    Type
REMARK                         _______ _______ _______ _____ _____    ______ ____
ROOT
ATOM      1  C   UNL     1       0.224  11.200  20.979  0.00  0.00    -0.042 A 
ATOM      2  C   UNL     1      -0.447  11.186  22.210  0.00  0.00    -0.058 A 
ATOM      3  C   UNL     1      -0.411  10.052  23.023  0.00  0.00    -0.060 A 
ATOM      4  C   UNL     1       0.300   8.924  22.616  0.00  0.00    -0.040 A 
ATOM      5  C   UNL     1       0.985   8.917  21.397  0.00  0.00    +0.035 A 
ATOM      6  C   UNL     1       0.936  10.052  20.581  0.00  0.00    -0.037 A 
ATOM      7  H   UNL     1      -0.995  12.057  22.556  0.00  0.00    +0.062 HD
ATOM      8  H   UNL     1      -0.926  10.054  23.981  0.00  0.00    +0.062 HD
ATOM      9  H   UNL     1       0.317   8.056  23.272  0.00  0.00    +0.064 HD
ATOM     10  H   UNL     1       1.448  10.063  19.622  0.00  0.00    +0.064 HD
ENDROOT
BRANCH   5  11
ATOM     11  N   UNL     1       1.675   7.737  21.060  0.00  0.00    -0.269 N 
ATOM     12  C   UNL     1       1.933   7.238  19.786  0.00  0.00    +0.312 C 
ATOM     13  N   UNL     1       2.546   5.980  19.863  0.00  0.00    -0.234 N 
ATOM     14  C   UNL     1       1.794   4.895  20.500  0.00  0.00    +0.057 C 
ATOM     15  C   UNL     1       2.664   3.661  20.696  0.00  0.00    +0.106 C 
ATOM     16  O   UNL     1       3.183   3.191  19.448  0.00  0.00    -0.487 OA
ATOM     17  C   UNL     1       3.743   4.203  18.703  0.00  0.00    +0.161 A 
ATOM     18  C   UNL     1       4.642   3.806  17.714  0.00  0.00    -0.003 A 
ATOM     19  C   UNL     1       5.286   4.774  16.936  0.00  0.00    +0.076 A 
ATOM     20  C   UNL     1       5.006   6.104  17.211  0.00  0.00    +0.042 A 
ATOM     21  N   UNL     1       4.129   6.513  18.156  0.00  0.00    -0.236 NA
ATOM     22  C   UNL     1       3.469   5.570  18.867  0.00  0.00    +0.171 A 
ATOM     23  O   UNL     1       1.645   7.798  18.732  0.00  0.00    -0.252 OA
ATOM     24  H   UNL     1       2.281   7.350  21.766  0.00  0.00    +0.156 HD
ATOM     25  H   UNL     1       0.940   4.667  19.844  0.00  0.00    +0.050 HD
ATOM     26  H   UNL     1       1.393   5.227  21.465  0.00  0.00    +0.050 HD
ATOM     27  H   UNL     1       2.067   2.848  21.131  0.00  0.00    +0.071 HD
ATOM     28  H   UNL     1       3.499   3.860  21.383  0.00  0.00    +0.071 HD
ATOM     29  H   UNL     1       4.841   2.747  17.560  0.00  0.00    +0.066 HD
ATOM     30  H   UNL     1       5.485   6.914  16.663  0.00  0.00    +0.084 HD
BRANCH  19  31
ATOM     31  C   UNL     1       6.287   4.420  15.882  0.00  0.00    +0.419 C 
ATOM     32  F   UNL     1       6.058   3.208  15.310  0.00  0.00    -0.166 F 
ATOM     33  F   UNL     1       7.559   4.373  16.350  0.00  0.00    -0.166 F 
ATOM     34  F   UNL     1       6.295   5.315  14.862  0.00  0.00    -0.166 F 
ENDBRANCH  19  31
ENDBRANCH   5  11
BRANCH   1  35
ATOM     35  C   UNL     1       0.213  12.431  20.079  0.00  0.00    -0.012 C 
ATOM     36  H   UNL     1       0.569  12.134  19.081  0.00  0.00    +0.035 HD
BRANCH  35  37
ATOM     37  C   UNL     1       1.208  13.475  20.608  0.00  0.00    -0.058 C 
ATOM     38  H   UNL     1       0.728  14.453  20.728  0.00  0.00    +0.024 HD
ATOM     39  H   UNL     1       1.626  13.187  21.579  0.00  0.00    +0.024 HD
ATOM     40  H   UNL     1       2.044  13.606  19.908  0.00  0.00    +0.024 HD
ENDBRANCH  35  37
BRANCH  35  41
ATOM     41  C   UNL     1      -1.216  12.999  19.922  0.00  0.00    +0.014 C 
ATOM     42  H   UNL     1      -1.731  12.952  20.890  0.00  0.00    +0.035 HD
ATOM     43  H   UNL     1      -1.184  14.058  19.650  0.00  0.00    +0.035 HD
BRANCH  41  44
ATOM     44  C   UNL     1      -2.034  12.239  18.935  0.00  0.00    +0.134 A 
ATOM     45  N   UNL     1      -1.586  11.634  17.853  0.00  0.00    -0.135 NA
ATOM     46  N   UNL     1      -2.655  11.067  17.204  0.00  0.00    -0.138 NA
ATOM     47  C   UNL     1      -3.733  11.331  17.906  0.00  0.00    +0.120 A 
ATOM     48  N   UNL     1      -3.392  12.056  19.004  0.00  0.00    -0.320 N 
ATOM     49  H   UNL     1      -4.743  11.028  17.662  0.00  0.00    +0.105 HD
BRANCH  48  50
ATOM     50  C   UNL     1      -4.300  12.512  20.023  0.00  0.00    +0.014 C 
ATOM     51  H   UNL     1      -3.866  12.264  21.000  0.00  0.00    +0.046 HD
ATOM     52  H   UNL     1      -5.266  12.011  19.910  0.00  0.00    +0.046 HD
ATOM     53  H   UNL     1      -4.434  13.592  19.926  0.00  0.00    +0.046 HD
ENDBRANCH  48  50
ENDBRANCH  41  44
ENDBRANCH  35  41
ENDBRANCH   1  35
TORSDOF 7
ENDMDL
MODEL 3
REMARK VINA RESULT:    -8.257      1.275      1.937
REMARK INTER + INTRA:         -11.566
REMARK INTER:                 -10.980
REMARK INTRA:                  -0.586
REMARK UNBOUND:                -0.413
REMARK  Name = 
REMARK  7 active torsions:
REMARK  status: ('A' for Active; 'I' for Inactive)
REMARK    1  A    between atoms: C_1  and  C_2
REMARK    2  A    between atoms: C_2  and  C_3
REMARK    3  A    between atoms: C_2  and  C_10
REMARK    4  A    between atoms: C_3  and  C_4
REMARK    5  A    between atoms: N_8  and  C_9
REMARK    6  A    between atoms: C_14  and  N_16
REMARK    7  A    between atoms: C_24  and  C_28
REMARK                            x       y       z     vdW  Elec       q    Type
REMARK                         _______ _______ _______ _____ _____    ______ ____
ROOT
ATOM      1  C   UNL     1       0.494  11.333  21.258  0.00  0.00    -0.042 A 
ATOM      2  C   UNL     1      -0.430  11.225  22.308  0.00  0.00    -0.058 A 
ATOM      3  C   UNL     1      -0.651   9.997  22.933  0.00  0.00    -0.060 A 
ATOM      4  C   UNL     1       0.054   8.867  22.520  0.00  0.00    -0.040 A 
ATOM      5  C   UNL     1       0.987   8.951  21.482  0.00  0.00    +0.035 A 
ATOM      6  C   UNL     1       1.196  10.182  20.851  0.00  0.00    -0.037 A 
ATOM      7  H   UNL     1      -0.981  12.094  22.658  0.00  0.00    +0.062 HD
ATOM      8  H   UNL     1      -1.361   9.925  23.753  0.00  0.00    +0.062 HD
ATOM      9  H   UNL     1      -0.133   7.924  23.029  0.00  0.00    +0.064 HD
ATOM     10  H   UNL     1       1.905  10.268  20.031  0.00  0.00    +0.064 HD
ENDROOT
BRANCH   5  11
ATOM     11  N   UNL     1       1.653   7.763  21.125  0.00  0.00    -0.269 N 
ATOM     12  C   UNL     1       1.948   7.308  19.842  0.00  0.00    +0.312 C 
ATOM     13  N   UNL     1       2.516   6.027  19.892  0.00  0.00    -0.234 N 
ATOM     14  C   UNL     1       1.703   4.944  20.452  0.00  0.00    +0.057 C 
ATOM     15  C   UNL     1       2.524   3.674  20.631  0.00  0.00    +0.106 C 
ATOM     16  O   UNL     1       3.080   3.238  19.387  0.00  0.00    -0.487 OA
ATOM     17  C   UNL     1       3.703   4.259  18.709  0.00  0.00    +0.161 A 
ATOM     18  C   UNL     1       4.630   3.871  17.742  0.00  0.00    -0.003 A 
ATOM     19  C   UNL     1       5.337   4.848  17.032  0.00  0.00    +0.076 A 
ATOM     20  C   UNL     1       5.089   6.175  17.350  0.00  0.00    +0.042 A 
ATOM     21  N   UNL     1       4.186   6.575  18.275  0.00  0.00    -0.236 NA
ATOM     22  C   UNL     1       3.467   5.627  18.918  0.00  0.00    +0.171 A 
ATOM     23  O   UNL     1       1.723   7.919  18.802  0.00  0.00    -0.252 OA
ATOM     24  H   UNL     1       2.216   7.328  21.838  0.00  0.00    +0.156 HD
ATOM     25  H   UNL     1       0.871   4.772  19.753  0.00  0.00    +0.050 HD
ATOM     26  H   UNL     1       1.273   5.250  21.412  0.00  0.00    +0.050 HD
ATOM     27  H   UNL     1       1.883   2.865  21.007  0.00  0.00    +0.071 HD
ATOM     28  H   UNL     1       3.335   3.817  21.360  0.00  0.00    +0.071 HD
ATOM     29  H   UNL     1       4.801   2.814  17.552  0.00  0.00    +0.066 HD
ATOM     30  H   UNL     1       5.616   6.989  16.856  0.00  0.00    +0.084 HD
BRANCH  19  31
ATOM     31  C   UNL     1       6.370   4.503  16.006  0.00  0.00    +0.419 C 
ATOM     32  F   UNL     1       7.629   4.433  16.513  0.00  0.00    -0.166 F 
ATOM     33  F   UNL     1       6.430   5.399  14.989  0.00  0.00    -0.166 F 
ATOM     34  F   UNL     1       6.136   3.296  15.430  0.00  0.00    -0.166 F 
ENDBRANCH  19  31
ENDBRANCH   5  11
BRANCH   1  35
ATOM     35  C   UNL     1       0.764  12.666  20.568  0.00  0.00    -0.012 C 
ATOM     36  H   UNL     1       1.854  12.808  20.503  0.00  0.00    +0.035 HD
BRANCH  35  37
ATOM     37  C   UNL     1       0.221  13.819  21.426  0.00  0.00    -0.058 C 
ATOM     38  H   UNL     1      -0.837  14.007  21.213  0.00  0.00    +0.024 HD
ATOM     39  H   UNL     1       0.314  13.610  22.498  0.00  0.00    +0.024 HD
ATOM     40  H   UNL     1       0.766  14.749  21.217  0.00  0.00    +0.024 HD
ENDBRANCH  35  37
BRANCH  35  41
ATOM     41  C   UNL     1       0.197  12.679  19.130  0.00  0.00    +0.014 C 
ATOM     42  H   UNL     1       0.261  13.698  18.727  0.00  0.00    +0.035 HD
ATOM     43  H   UNL     1       0.807  12.056  18.469  0.00  0.00    +0.035 HD
BRANCH  41  44
ATOM     44  C   UNL     1      -1.230  12.254  19.068  0.00  0.00    +0.134 A 
ATOM     45  N   UNL     1      -2.258  12.899  19.584  0.00  0.00    -0.135 NA
ATOM     46  N   UNL     1      -3.393  12.171  19.328  0.00  0.00    -0.138 NA
ATOM     47  C   UNL     1      -3.038  11.101  18.656  0.00  0.00    +0.120 A 
ATOM     48  N   UNL     1      -1.692  11.114  18.462  0.00  0.00    -0.320 N 
ATOM     49  H   UNL     1      -3.698  10.319  18.304  0.00  0.00    +0.105 HD
BRANCH  48  50
ATOM     50  C   UNL     1      -0.938  10.120  17.746  0.00  0.00    +0.014 C 
ATOM     51  H   UNL     1      -1.637   9.353  17.391  0.00  0.00    +0.046 HD
ATOM     52  H   UNL     1      -0.197   9.666  18.411  0.00  0.00    +0.046 HD
ATOM     53  H   UNL     1      -0.430  10.594  16.903  0.00  0.00    +0.046 HD
ENDBRANCH  48  50
ENDBRANCH  41  44
ENDBRANCH  35  41
ENDBRANCH   1  35
TORSDOF 7
ENDMDL
MODEL 4
REMARK VINA RESULT:    -8.218      2.602      3.865
REMARK INTER + INTRA:         -11.513
REMARK INTER:                 -11.016
REMARK INTRA:                  -0.497
REMARK UNBOUND:                -0.413
REMARK  Name = 
REMARK  7 active torsions:
REMARK  status: ('A' for Active; 'I' for Inactive)
REMARK    1  A    between atoms: C_1  and  C_2
REMARK    2  A    between atoms: C_2  and  C_3
REMARK    3  A    between atoms: C_2  and  C_10
REMARK    4  A    between atoms: C_3  and  C_4
REMARK    5  A    between atoms: N_8  and  C_9
REMARK    6  A    between atoms: C_14  and  N_16
REMARK    7  A    between atoms: C_24  and  C_28
REMARK                            x       y       z     vdW  Elec       q    Type
REMARK                         _______ _______ _______ _____ _____    ______ ____
ROOT
ATOM      1  C   UNL     1       0.329  11.217  20.745  0.00  0.00    -0.042 A 
ATOM      2  C   UNL     1      -0.343  11.198  21.976  0.00  0.00    -0.058 A 
ATOM      3  C   UNL     1      -0.306  10.061  22.784  0.00  0.00    -0.060 A 
ATOM      4  C   UNL     1       0.405   8.935  22.373  0.00  0.00    -0.040 A 
ATOM      5  C   UNL     1       1.090   8.933  21.154  0.00  0.00    +0.035 A 
ATOM      6  C   UNL     1       1.041  10.072  20.343  0.00  0.00    -0.037 A 
ATOM      7  H   UNL     1      -0.891  12.068  22.326  0.00  0.00    +0.062 HD
ATOM      8  H   UNL     1      -0.821  10.058  23.742  0.00  0.00    +0.062 HD
ATOM      9  H   UNL     1       0.422   8.064  23.026  0.00  0.00    +0.064 HD
ATOM     10  H   UNL     1       1.553  10.087  19.383  0.00  0.00    +0.064 HD
ENDROOT
BRANCH   5  11
ATOM     11  N   UNL     1       1.781   7.755  20.812  0.00  0.00    -0.269 N 
ATOM     12  C   UNL     1       2.036   7.260  19.536  0.00  0.00    +0.312 C 
ATOM     13  N   UNL     1       2.651   6.002  19.608  0.00  0.00    -0.234 N 
ATOM     14  C   UNL     1       1.902   4.914  20.245  0.00  0.00    +0.057 C 
ATOM     15  C   UNL     1       2.774   3.681  20.435  0.00  0.00    +0.106 C 
ATOM     16  O   UNL     1       3.290   3.215  19.185  0.00  0.00    -0.487 OA
ATOM     17  C   UNL     1       3.846   4.229  18.441  0.00  0.00    +0.161 A 
ATOM     18  C   UNL     1       4.743   3.835  17.448  0.00  0.00    -0.003 A 
ATOM     19  C   UNL     1       5.383   4.806  16.670  0.00  0.00    +0.076 A 
ATOM     20  C   UNL     1       5.102   6.135  16.948  0.00  0.00    +0.042 A 
ATOM     21  N   UNL     1       4.227   6.541  17.897  0.00  0.00    -0.236 NA
ATOM     22  C   UNL     1       3.571   5.595  18.608  0.00  0.00    +0.171 A 
ATOM     23  O   UNL     1       1.744   7.821  18.484  0.00  0.00    -0.252 OA
ATOM     24  H   UNL     1       2.390   7.367  21.515  0.00  0.00    +0.156 HD
ATOM     25  H   UNL     1       1.046   4.687  19.591  0.00  0.00    +0.050 HD
ATOM     26  H   UNL     1       1.503   5.243  21.211  0.00  0.00    +0.050 HD
ATOM     27  H   UNL     1       2.180   2.866  20.870  0.00  0.00    +0.071 HD
ATOM     28  H   UNL     1       3.611   3.880  21.120  0.00  0.00    +0.071 HD
ATOM     29  H   UNL     1       4.943   2.777  17.291  0.00  0.00    +0.066 HD
ATOM     30  H   UNL     1       5.578   6.947  16.401  0.00  0.00    +0.084 HD
BRANCH  19  31
ATOM     31  C   UNL     1       6.381   4.456  15.612  0.00  0.00    +0.419 C 
ATOM     32  F   UNL     1       7.661   4.433  16.068  0.00  0.00    -0.166 F 
ATOM     33  F   UNL     1       6.375   5.321  14.567  0.00  0.00    -0.166 F 
ATOM     34  F   UNL     1       6.156   3.226  15.083  0.00  0.00    -0.166 F 
ENDBRANCH  19  31
ENDBRANCH   5  11
BRANCH   1  35
ATOM     35  C   UNL     1       0.317  12.453  19.850  0.00  0.00    -0.012 C 
ATOM     36  H   UNL     1       0.166  13.339  20.485  0.00  0.00    +0.035 HD
BRANCH  35  37
ATOM     37  C   UNL     1      -0.880  12.391  18.890  0.00  0.00    -0.058 C 
ATOM     38  H   UNL     1      -1.488  13.301  18.956  0.00  0.00    +0.024 HD
ATOM     39  H   UNL     1      -0.563  12.277  17.847  0.00  0.00    +0.024 HD
ATOM     40  H   UNL     1      -1.534  11.544  19.136  0.00  0.00    +0.024 HD
ENDBRANCH  35  37
BRANCH  35  41
ATOM     41  C   UNL     1       1.663  12.623  19.110  0.00  0.00    +0.014 C 
ATOM     42  H   UNL     1       2.184  11.657  19.082  0.00  0.00    +0.035 HD
ATOM     43  H   UNL     1       1.498  12.905  18.067  0.00  0.00    +0.035 HD
BRANCH  41  44
ATOM     44  C   UNL     1       2.566  13.606  19.774  0.00  0.00    +0.134 A 
ATOM     45  N   UNL     1       2.816  13.686  21.066  0.00  0.00    -0.135 NA
ATOM     46  N   UNL     1       3.680  14.733  21.271  0.00  0.00    -0.138 NA
ATOM     47  C   UNL     1       3.946  15.267  20.102  0.00  0.00    +0.120 A 
ATOM     48  N   UNL     1       3.276  14.589  19.132  0.00  0.00    -0.320 N 
ATOM     49  H   UNL     1       4.592  16.116  19.919  0.00  0.00    +0.105 HD
BRANCH  48  50
ATOM     50  C   UNL     1       3.336  14.866  17.721  0.00  0.00    +0.014 C 
ATOM     51  H   UNL     1       2.357  15.251  17.409  0.00  0.00    +0.046 HD
ATOM     52  H   UNL     1       3.565  13.947  17.172  0.00  0.00    +0.046 HD
ATOM     53  H   UNL     1       4.116  15.607  17.534  0.00  0.00    +0.046 HD
ENDBRANCH  48  50
ENDBRANCH  41  44
ENDBRANCH  35  41
ENDBRANCH   1  35
TORSDOF 7
ENDMDL
MODEL 5
REMARK VINA RESULT:    -7.969      3.076      4.129
REMARK INTER + INTRA:         -11.177
REMARK INTER:                 -10.925
REMARK INTRA:                  -0.252
REMARK UNBOUND:                -0.413
REMARK  Name = 
REMARK  7 active torsions:
REMARK  status: ('A' for Active; 'I' for Inactive)
REMARK    1  A    between atoms: C_1  and  C_2
REMARK    2  A    between atoms: C_2  and  C_3
REMARK    3  A    between atoms: C_2  and  C_10
REMARK    4  A    between atoms: C_3  and  C_4
REMARK    5  A    between atoms: N_8  and  C_9
REMARK    6  A    between atoms: C_14  and  N_16
REMARK    7  A    between atoms: C_24  and  C_28
REMARK                            x       y       z     vdW  Elec       q    Type
REMARK                         _______ _______ _______ _____ _____    ______ ____
ROOT
ATOM      1  C   UNL     1      -0.099  11.186  21.245  0.00  0.00    -0.042 A 
ATOM      2  C   UNL     1      -0.120  12.057  20.146  0.00  0.00    -0.058 A 
ATOM      3  C   UNL     1       0.521  11.711  18.956  0.00  0.00    -0.060 A 
ATOM      4  C   UNL     1       1.184  10.489  18.850  0.00  0.00    -0.040 A 
ATOM      5  C   UNL     1       1.211   9.600  19.929  0.00  0.00    +0.035 A 
ATOM      6  C   UNL     1       0.576   9.957  21.124  0.00  0.00    -0.037 A 
ATOM      7  H   UNL     1      -0.642  13.009  20.199  0.00  0.00    +0.062 HD
ATOM      8  H   UNL     1       0.491  12.388  18.106  0.00  0.00    +0.062 HD
ATOM      9  H   UNL     1       1.669  10.242  17.909  0.00  0.00    +0.064 HD
ATOM     10  H   UNL     1       0.598   9.288  21.981  0.00  0.00    +0.064 HD
ENDROOT
BRANCH   5  11
ATOM     11  N   UNL     1       1.905   8.389  19.740  0.00  0.00    -0.269 N 
ATOM     12  C   UNL     1       2.154   7.732  18.538  0.00  0.00    +0.312 C 
ATOM     13  N   UNL     1       2.774   6.496  18.771  0.00  0.00    -0.234 N 
ATOM     14  C   UNL     1       2.032   5.499  19.550  0.00  0.00    +0.057 C 
ATOM     15  C   UNL     1       2.909   4.304  19.894  0.00  0.00    +0.106 C 
ATOM     16  O   UNL     1       3.420   3.679  18.713  0.00  0.00    -0.487 OA
ATOM     17  C   UNL     1       3.969   4.589  17.839  0.00  0.00    +0.161 A 
ATOM     18  C   UNL     1       4.862   4.071  16.901  0.00  0.00    -0.003 A 
ATOM     19  C   UNL     1       5.494   4.933  15.999  0.00  0.00    +0.076 A 
ATOM     20  C   UNL     1       5.210   6.286  16.103  0.00  0.00    +0.042 A 
ATOM     21  N   UNL     1       4.339   6.810  16.995  0.00  0.00    -0.236 NA
ATOM     22  C   UNL     1       3.690   5.964  17.828  0.00  0.00    +0.171 A 
ATOM     23  O   UNL     1       1.854   8.150  17.424  0.00  0.00    -0.252 OA
ATOM     24  H   UNL     1       2.519   8.098  20.485  0.00  0.00    +0.156 HD
ATOM     25  H   UNL     1       1.174   5.186  18.936  0.00  0.00    +0.050 HD
ATOM     26  H   UNL     1       1.638   5.951  20.467  0.00  0.00    +0.050 HD
ATOM     27  H   UNL     1       2.321   3.552  20.436  0.00  0.00    +0.071 HD
ATOM     28  H   UNL     1       3.749   4.593  20.542  0.00  0.00    +0.071 HD
ATOM     29  H   UNL     1       5.064   3.002  16.883  0.00  0.00    +0.066 HD
ATOM     30  H   UNL     1       5.680   7.021  15.451  0.00  0.00    +0.084 HD
BRANCH  19  31
ATOM     31  C   UNL     1       6.488   4.450  14.991  0.00  0.00    +0.419 C 
ATOM     32  F   UNL     1       6.624   5.286  13.928  0.00  0.00    -0.166 F 
ATOM     33  F   UNL     1       6.171   3.238  14.470  0.00  0.00    -0.166 F 
ATOM     34  F   UNL     1       7.731   4.319  15.518  0.00  0.00    -0.166 F 
ENDBRANCH  19  31
ENDBRANCH   5  11
BRANCH   1  35
ATOM     35  C   UNL     1      -0.804  11.535  22.553  0.00  0.00    -0.012 C 
ATOM     36  H   UNL     1      -0.138  12.181  23.143  0.00  0.00    +0.035 HD
BRANCH  35  37
ATOM     37  C   UNL     1      -1.029  10.261  23.381  0.00  0.00    -0.058 C 
ATOM     38  H   UNL     1      -2.084   9.964  23.372  0.00  0.00    +0.024 HD
ATOM     39  H   UNL     1      -0.441   9.417  23.002  0.00  0.00    +0.024 HD
ATOM     40  H   UNL     1      -0.745  10.423  24.429  0.00  0.00    +0.024 HD
ENDBRANCH  35  37
BRANCH  35  41
ATOM     41  C   UNL     1      -2.114  12.313  22.294  0.00  0.00    +0.014 C 
ATOM     42  H   UNL     1      -2.074  12.764  21.294  0.00  0.00    +0.035 HD
ATOM     43  H   UNL     1      -2.971  11.635  22.282  0.00  0.00    +0.035 HD
BRANCH  41  44
ATOM     44  C   UNL     1      -2.337  13.410  23.278  0.00  0.00    +0.134 A 
ATOM     45  N   UNL     1      -1.656  14.536  23.358  0.00  0.00    -0.135 NA
ATOM     46  N   UNL     1      -2.158  15.267  24.406  0.00  0.00    -0.138 NA
ATOM     47  C   UNL     1      -3.139  14.577  24.941  0.00  0.00    +0.120 A 
ATOM     48  N   UNL     1      -3.294  13.410  24.262  0.00  0.00    -0.320 N 
ATOM     49  H   UNL     1      -3.740  14.875  25.790  0.00  0.00    +0.105 HD
BRANCH  48  50
ATOM     50  C   UNL     1      -4.284  12.403  24.538  0.00  0.00    +0.014 C 
ATOM     51  H   UNL     1      -5.129  12.888  25.044  0.00  0.00    +0.046 HD
ATOM     52  H   UNL     1      -3.858  11.631  25.186  0.00  0.00    +0.046 HD
ATOM     53  H   UNL     1      -4.609  11.952  23.597  0.00  0.00    +0.046 HD
ENDBRANCH  48  50
ENDBRANCH  41  44
ENDBRANCH  35  41
ENDBRANCH   1  35
TORSDOF 7
ENDMDL
MODEL 6
REMARK VINA RESULT:    -7.840      2.430      3.526
REMARK INTER + INTRA:         -11.002
REMARK INTER:                 -10.150
REMARK INTRA:                  -0.852
REMARK UNBOUND:                -0.413
REMARK  Name = 
REMARK  7 active torsions:
REMARK  status: ('A' for Active; 'I' for Inactive)
REMARK    1  A    between atoms: C_1  and  C_2
REMARK    2  A    between atoms: C_2  and  C_3
REMARK    3  A    between atoms: C_2  and  C_10
REMARK    4  A    between atoms: C_3  and  C_4
REMARK    5  A    between atoms: N_8  and  C_9
REMARK    6  A    between atoms: C_14  and  N_16
REMARK    7  A    between atoms: C_24  and  C_28
REMARK                            x       y       z     vdW  Elec       q    Type
REMARK                         _______ _______ _______ _____ _____    ______ ____
ROOT
ATOM      1  C   UNL     1      -1.162  11.657  19.567  0.00  0.00    -0.042 A 
ATOM      2  C   UNL     1      -0.398  12.796  19.273  0.00  0.00    -0.058 A 
ATOM      3  C   UNL     1       0.983  12.696  19.102  0.00  0.00    -0.060 A 
ATOM      4  C   UNL     1       1.613  11.458  19.218  0.00  0.00    -0.040 A 
ATOM      5  C   UNL     1       0.872  10.307  19.502  0.00  0.00    +0.035 A 
ATOM      6  C   UNL     1      -0.511  10.414  19.683  0.00  0.00    -0.037 A 
ATOM      7  H   UNL     1      -0.868  13.769  19.163  0.00  0.00    +0.062 HD
ATOM      8  H   UNL     1       1.566  13.582  18.864  0.00  0.00    +0.062 HD
ATOM      9  H   UNL     1       2.690  11.408  19.073  0.00  0.00    +0.064 HD
ATOM     10  H   UNL     1      -1.105   9.535  19.921  0.00  0.00    +0.064 HD
ENDROOT
BRANCH   5  11
ATOM     11  N   UNL     1       1.586   9.098  19.605  0.00  0.00    -0.269 N 
ATOM     12  C   UNL     1       1.957   8.240  18.573  0.00  0.00    +0.312 C 
ATOM     13  N   UNL     1       2.555   7.080  19.086  0.00  0.00    -0.234 N 
ATOM     14  C   UNL     1       1.743   6.224  19.957  0.00  0.00    +0.057 C 
ATOM     15  C   UNL     1       2.586   5.131  20.597  0.00  0.00    +0.106 C 
ATOM     16  O   UNL     1       3.215   4.314  19.604  0.00  0.00    -0.487 OA
ATOM     17  C   UNL     1       3.845   5.063  18.637  0.00  0.00    +0.161 A 
ATOM     18  C   UNL     1       4.829   4.404  17.901  0.00  0.00    -0.003 A 
ATOM     19  C   UNL     1       5.545   5.103  16.923  0.00  0.00    +0.076 A 
ATOM     20  C   UNL     1       5.247   6.446  16.751  0.00  0.00    +0.042 A 
ATOM     21  N   UNL     1       4.288   7.103  17.444  0.00  0.00    -0.236 NA
ATOM     22  C   UNL     1       3.563   6.407  18.349  0.00  0.00    +0.171 A 
ATOM     23  O   UNL     1       1.768   8.443  17.377  0.00  0.00    -0.252 OA
ATOM     24  H   UNL     1       2.123   8.960  20.446  0.00  0.00    +0.156 HD
ATOM     25  H   UNL     1       0.952   5.787  19.329  0.00  0.00    +0.050 HD
ATOM     26  H   UNL     1       1.257   6.825  20.733  0.00  0.00    +0.050 HD
ATOM     27  H   UNL     1       1.949   4.476  21.206  0.00  0.00    +0.071 HD
ATOM     28  H   UNL     1       3.356   5.550  21.260  0.00  0.00    +0.071 HD
ATOM     29  H   UNL     1       5.037   3.354  18.097  0.00  0.00    +0.066 HD
ATOM     30  H   UNL     1       5.777   7.061  16.025  0.00  0.00    +0.084 HD
BRANCH  19  31
ATOM     31  C   UNL     1       6.636   4.468  16.121  0.00  0.00    +0.419 C 
ATOM     32  F   UNL     1       7.131   5.280  15.149  0.00  0.00    -0.166 F 
ATOM     33  F   UNL     1       6.242   3.333  15.491  0.00  0.00    -0.166 F 
ATOM     34  F   UNL     1       7.701   4.121  16.889  0.00  0.00    -0.166 F 
ENDBRANCH  19  31
ENDBRANCH   5  11
BRANCH   1  35
ATOM     35  C   UNL     1      -2.676  11.736  19.744  0.00  0.00    -0.012 C 
ATOM     36  H   UNL     1      -2.992  10.904  20.391  0.00  0.00    +0.035 HD
BRANCH  35  37
ATOM     37  C   UNL     1      -3.372  11.532  18.391  0.00  0.00    -0.058 C 
ATOM     38  H   UNL     1      -2.805  10.843  17.754  0.00  0.00    +0.024 HD
ATOM     39  H   UNL     1      -4.383  11.124  18.508  0.00  0.00    +0.024 HD
ATOM     40  H   UNL     1      -3.455  12.483  17.848  0.00  0.00    +0.024 HD
ENDBRANCH  35  37
BRANCH  35  41
ATOM     41  C   UNL     1      -3.092  13.056  20.433  0.00  0.00    +0.014 C 
ATOM     42  H   UNL     1      -2.223  13.723  20.489  0.00  0.00    +0.035 HD
ATOM     43  H   UNL     1      -3.839  13.586  19.834  0.00  0.00    +0.035 HD
BRANCH  41  44
ATOM     44  C   UNL     1      -3.596  12.850  21.820  0.00  0.00    +0.134 A 
ATOM     45  N   UNL     1      -4.860  12.751  22.184  0.00  0.00    -0.135 NA
ATOM     46  N   UNL     1      -4.902  12.586  23.546  0.00  0.00    -0.138 NA
ATOM     47  C   UNL     1      -3.665  12.579  23.986  0.00  0.00    +0.120 A 
ATOM     48  N   UNL     1      -2.812  12.733  22.939  0.00  0.00    -0.320 N 
ATOM     49  H   UNL     1      -3.355  12.471  25.017  0.00  0.00    +0.105 HD
BRANCH  48  50
ATOM     50  C   UNL     1      -1.375  12.751  23.024  0.00  0.00    +0.014 C 
ATOM     51  H   UNL     1      -1.098  13.106  24.024  0.00  0.00    +0.046 HD
ATOM     52  H   UNL     1      -0.967  13.426  22.265  0.00  0.00    +0.046 HD
ATOM     53  H   UNL     1      -0.994  11.740  22.857  0.00  0.00    +0.046 HD
ENDBRANCH  48  50
ENDBRANCH  41  44
ENDBRANCH  35  41
ENDBRANCH   1  35
TORSDOF 7
ENDMDL
MODEL 7
REMARK VINA RESULT:    -7.784      6.069     10.135
REMARK INTER + INTRA:         -10.927
REMARK INTER:                 -10.291
REMARK INTRA:                  -0.636
REMARK UNBOUND:                -0.413
REMARK  Name = 
REMARK  7 active torsions:
REMARK  status: ('A' for Active; 'I' for Inactive)
REMARK    1  A    between atoms: C_1  and  C_2
REMARK    2  A    between atoms: C_2  and  C_3
REMARK    3  A    between atoms: C_2  and  C_10
REMARK    4  A    between atoms: C_3  and  C_4
REMARK    5  A    between atoms: N_8  and  C_9
REMARK    6  A    between atoms: C_14  and  N_16
REMARK    7  A    between atoms: C_24  and  C_28
REMARK                            x       y       z     vdW  Elec       q    Type
REMARK                         _______ _______ _______ _____ _____    ______ ____
ROOT
ATOM      1  C   UNL     1       2.693   5.769  18.751  0.00  0.00    -0.042 A 
ATOM      2  C   UNL     1       2.214   4.784  19.627  0.00  0.00    -0.058 A 
ATOM      3  C   UNL     1       1.564   5.144  20.808  0.00  0.00    -0.060 A 
ATOM      4  C   UNL     1       1.382   6.490  21.122  0.00  0.00    -0.040 A 
ATOM      5  C   UNL     1       1.843   7.490  20.260  0.00  0.00    +0.035 A 
ATOM      6  C   UNL     1       2.503   7.124  19.083  0.00  0.00    -0.037 A 
ATOM      7  H   UNL     1       2.330   3.729  19.398  0.00  0.00    +0.062 HD
ATOM      8  H   UNL     1       1.187   4.374  21.476  0.00  0.00    +0.062 HD
ATOM      9  H   UNL     1       0.866   6.743  22.046  0.00  0.00    +0.064 HD
ATOM     10  H   UNL     1       2.884   7.885  18.405  0.00  0.00    +0.064 HD
ENDROOT
BRANCH   5  11
ATOM     11  N   UNL     1       1.621   8.824  20.653  0.00  0.00    -0.269 N 
ATOM     12  C   UNL     1       0.401   9.489  20.750  0.00  0.00    +0.312 C 
ATOM     13  N   UNL     1       0.600  10.841  21.063  0.00  0.00    -0.234 N 
ATOM     14  C   UNL     1       1.351  11.657  20.105  0.00  0.00    +0.057 C 
ATOM     15  C   UNL     1       1.662  13.033  20.677  0.00  0.00    +0.106 C 
ATOM     16  O   UNL     1       0.464  13.728  21.035  0.00  0.00    -0.487 OA
ATOM     17  C   UNL     1      -0.385  12.948  21.787  0.00  0.00    +0.161 A 
ATOM     18  C   UNL     1      -1.336  13.635  22.539  0.00  0.00    -0.003 A 
ATOM     19  C   UNL     1      -2.214  12.921  23.362  0.00  0.00    +0.076 A 
ATOM     20  C   UNL     1      -2.074  11.542  23.400  0.00  0.00    +0.042 A 
ATOM     21  N   UNL     1      -1.167  10.853  22.670  0.00  0.00    -0.236 NA
ATOM     22  C   UNL     1      -0.358  11.546  21.836  0.00  0.00    +0.171 A 
ATOM     23  O   UNL     1      -0.701   8.982  20.563  0.00  0.00    -0.252 OA
ATOM     24  H   UNL     1       2.356   9.269  21.178  0.00  0.00    +0.156 HD
ATOM     25  H   UNL     1       0.729  11.745  19.201  0.00  0.00    +0.050 HD
ATOM     26  H   UNL     1       2.280  11.151  19.821  0.00  0.00    +0.050 HD
ATOM     27  H   UNL     1       2.183  13.642  19.925  0.00  0.00    +0.071 HD
ATOM     28  H   UNL     1       2.318  12.966  21.557  0.00  0.00    +0.071 HD
ATOM     29  H   UNL     1      -1.384  14.721  22.487  0.00  0.00    +0.066 HD
ATOM     30  H   UNL     1      -2.705  10.920  24.033  0.00  0.00    +0.084 HD
BRANCH  19  31
ATOM     31  C   UNL     1      -3.236  13.595  24.221  0.00  0.00    +0.419 C 
ATOM     32  F   UNL     1      -2.695  14.452  25.127  0.00  0.00    -0.166 F 
ATOM     33  F   UNL     1      -3.987  12.723  24.940  0.00  0.00    -0.166 F 
ATOM     34  F   UNL     1      -4.112  14.333  23.493  0.00  0.00    -0.166 F 
ENDBRANCH  19  31
ENDBRANCH   5  11
BRANCH   1  35
ATOM     35  C   UNL     1       3.394   5.402  17.446  0.00  0.00    -0.012 C 
ATOM     36  H   UNL     1       2.749   5.707  16.609  0.00  0.00    +0.035 HD
BRANCH  35  37
ATOM     37  C   UNL     1       3.551   3.877  17.348  0.00  0.00    -0.058 C 
ATOM     38  H   UNL     1       3.908   3.454  18.294  0.00  0.00    +0.024 HD
ATOM     39  H   UNL     1       2.606   3.384  17.096  0.00  0.00    +0.024 HD
ATOM     40  H   UNL     1       4.284   3.611  16.574  0.00  0.00    +0.024 HD
ENDBRANCH  35  37
BRANCH  35  41
ATOM     41  C   UNL     1       4.741   6.148  17.303  0.00  0.00    +0.014 C 
ATOM     42  H   UNL     1       4.548   7.186  17.004  0.00  0.00    +0.035 HD
ATOM     43  H   UNL     1       5.256   6.203  18.266  0.00  0.00    +0.035 HD
BRANCH  41  44
ATOM     44  C   UNL     1       5.632   5.538  16.275  0.00  0.00    +0.134 A 
ATOM     45  N   UNL     1       5.435   5.543  14.972  0.00  0.00    -0.135 NA
ATOM     46  N   UNL     1       6.470   4.863  14.380  0.00  0.00    -0.138 NA
ATOM     47  C   UNL     1       7.281   4.462  15.331  0.00  0.00    +0.120 A 
ATOM     48  N   UNL     1       6.801   4.869  16.536  0.00  0.00    -0.320 N 
ATOM     49  H   UNL     1       8.192   3.894  15.196  0.00  0.00    +0.105 HD
BRANCH  48  50
ATOM     50  C   UNL     1       7.428   4.639  17.810  0.00  0.00    +0.014 C 
ATOM     51  H   UNL     1       8.514   4.703  17.671  0.00  0.00    +0.046 HD
ATOM     52  H   UNL     1       7.160   3.645  18.182  0.00  0.00    +0.046 HD
ATOM     53  H   UNL     1       7.088   5.398  18.519  0.00  0.00    +0.046 HD
ENDBRANCH  48  50
ENDBRANCH  41  44
ENDBRANCH  35  41
ENDBRANCH   1  35
TORSDOF 7
ENDMDL
MODEL 8
REMARK VINA RESULT:    -7.757      3.126      4.618
REMARK INTER + INTRA:         -10.890
REMARK INTER:                 -10.036
REMARK INTRA:                  -0.854
REMARK UNBOUND:                -0.413
REMARK  Name = 
REMARK  7 active torsions:
REMARK  status: ('A' for Active; 'I' for Inactive)
REMARK    1  A    between atoms: C_1  and  C_2
REMARK    2  A    between atoms: C_2  and  C_3
REMARK    3  A    between atoms: C_2  and  C_10
REMARK    4  A    between atoms: C_3  and  C_4
REMARK    5  A    between atoms: N_8  and  C_9
REMARK    6  A    between atoms: C_14  and  N_16
REMARK    7  A    between atoms: C_24  and  C_28
REMARK                            x       y       z     vdW  Elec       q    Type
REMARK                         _______ _______ _______ _____ _____    ______ ____
ROOT
ATOM      1  C   UNL     1       0.408  12.605  19.351  0.00  0.00    -0.042 A 
ATOM      2  C   UNL     1      -0.973  12.429  19.188  0.00  0.00    -0.058 A 
ATOM      3  C   UNL     1      -1.526  11.148  19.168  0.00  0.00    -0.060 A 
ATOM      4  C   UNL     1      -0.705  10.032  19.319  0.00  0.00    -0.040 A 
ATOM      5  C   UNL     1       0.674  10.182  19.493  0.00  0.00    +0.035 A 
ATOM      6  C   UNL     1       1.225  11.468  19.500  0.00  0.00    -0.037 A 
ATOM      7  H   UNL     1      -1.636  13.284  19.084  0.00  0.00    +0.062 HD
ATOM      8  H   UNL     1      -2.600  11.022  19.052  0.00  0.00    +0.062 HD
ATOM      9  H   UNL     1      -1.163   9.045  19.307  0.00  0.00    +0.064 HD
ATOM     10  H   UNL     1       2.297  11.608  19.618  0.00  0.00    +0.064 HD
ENDROOT
BRANCH   5  11
ATOM     11  N   UNL     1       1.431   9.003  19.635  0.00  0.00    -0.269 N 
ATOM     12  C   UNL     1       1.866   8.147  18.626  0.00  0.00    +0.312 C 
ATOM     13  N   UNL     1       2.494   7.019  19.174  0.00  0.00    -0.234 N 
ATOM     14  C   UNL     1       1.692   6.144  20.033  0.00  0.00    +0.057 C 
ATOM     15  C   UNL     1       2.558   5.094  20.714  0.00  0.00    +0.106 C 
ATOM     16  O   UNL     1       3.247   4.289  19.751  0.00  0.00    -0.487 OA
ATOM     17  C   UNL     1       3.875   5.049  18.792  0.00  0.00    +0.161 A 
ATOM     18  C   UNL     1       4.905   4.419  18.094  0.00  0.00    -0.003 A 
ATOM     19  C   UNL     1       5.622   5.133  17.127  0.00  0.00    +0.076 A 
ATOM     20  C   UNL     1       5.275   6.461  16.926  0.00  0.00    +0.042 A 
ATOM     21  N   UNL     1       4.272   7.089  17.581  0.00  0.00    -0.236 NA
ATOM     22  C   UNL     1       3.549   6.377  18.476  0.00  0.00    +0.171 A 
ATOM     23  O   UNL     1       1.704   8.326  17.423  0.00  0.00    -0.252 OA
ATOM     24  H   UNL     1       1.949   8.899  20.493  0.00  0.00    +0.156 HD
ATOM     25  H   UNL     1       0.937   5.666  19.390  0.00  0.00    +0.050 HD
ATOM     26  H   UNL     1       1.160   6.736  20.787  0.00  0.00    +0.050 HD
ATOM     27  H   UNL     1       1.930   4.422  21.314  0.00  0.00    +0.071 HD
ATOM     28  H   UNL     1       3.291   5.552  21.392  0.00  0.00    +0.071 HD
ATOM     29  H   UNL     1       5.148   3.381  18.312  0.00  0.00    +0.066 HD
ATOM     30  H   UNL     1       5.802   7.086  16.207  0.00  0.00    +0.084 HD
BRANCH  19  31
ATOM     31  C   UNL     1       6.760   4.531  16.366  0.00  0.00    +0.419 C 
ATOM     32  F   UNL     1       6.414   3.409  15.681  0.00  0.00    -0.166 F 
ATOM     33  F   UNL     1       7.801   4.173  17.159  0.00  0.00    -0.166 F 
ATOM     34  F   UNL     1       7.268   5.385  15.442  0.00  0.00    -0.166 F 
ENDBRANCH  19  31
ENDBRANCH   5  11
BRANCH   1  35
ATOM     35  C   UNL     1       1.036  13.996  19.390  0.00  0.00    -0.012 C 
ATOM     36  H   UNL     1       1.218  14.264  20.442  0.00  0.00    +0.035 HD
BRANCH  35  37
ATOM     37  C   UNL     1       0.046  15.032  18.837  0.00  0.00    -0.058 C 
ATOM     38  H   UNL     1       0.424  15.487  17.915  0.00  0.00    +0.024 HD
ATOM     39  H   UNL     1      -0.930  14.587  18.614  0.00  0.00    +0.024 HD
ATOM     40  H   UNL     1      -0.113  15.843  19.560  0.00  0.00    +0.024 HD
ENDBRANCH  35  37
BRANCH  35  41
ATOM     41  C   UNL     1       2.394  14.020  18.653  0.00  0.00    +0.014 C 
ATOM     42  H   UNL     1       2.610  13.017  18.262  0.00  0.00    +0.035 HD
ATOM     43  H   UNL     1       2.349  14.679  17.781  0.00  0.00    +0.035 HD
BRANCH  41  44
ATOM     44  C   UNL     1       3.525  14.414  19.540  0.00  0.00    +0.134 A 
ATOM     45  N   UNL     1       3.507  14.449  20.858  0.00  0.00    -0.135 NA
ATOM     46  N   UNL     1       4.735  14.881  21.292  0.00  0.00    -0.138 NA
ATOM     47  C   UNL     1       5.481  15.094  20.234  0.00  0.00    +0.120 A 
ATOM     48  N   UNL     1       4.768  14.807  19.112  0.00  0.00    -0.320 N 
ATOM     49  H   UNL     1       6.505  15.445  20.234  0.00  0.00    +0.105 HD
BRANCH  48  50
ATOM     50  C   UNL     1       5.257  14.895  17.762  0.00  0.00    +0.014 C 
ATOM     51  H   UNL     1       5.865  15.804  17.679  0.00  0.00    +0.046 HD
ATOM     52  H   UNL     1       4.414  14.949  17.065  0.00  0.00    +0.046 HD
ATOM     53  H   UNL     1       5.858  14.010  17.540  0.00  0.00    +0.046 HD
ENDBRANCH  48  50
ENDBRANCH  41  44
ENDBRANCH  35  41
ENDBRANCH   1  35
TORSDOF 7
ENDMDL
MODEL 9
REMARK VINA RESULT:    -7.717      5.981     10.151
REMARK INTER + INTRA:         -10.837
REMARK INTER:                 -10.134
REMARK INTRA:                  -0.702
REMARK UNBOUND:                -0.413
REMARK  Name = 
REMARK  7 active torsions:
REMARK  status: ('A' for Active; 'I' for Inactive)
REMARK    1  A    between atoms: C_1  and  C_2
REMARK    2  A    between atoms: C_2  and  C_3
REMARK    3  A    between atoms: C_2  and  C_10
REMARK    4  A    between atoms: C_3  and  C_4
REMARK    5  A    between atoms: N_8  and  C_9
REMARK    6  A    between atoms: C_14  and  N_16
REMARK    7  A    between atoms: C_24  and  C_28
REMARK                            x       y       z     vdW  Elec       q    Type
REMARK                         _______ _______ _______ _____ _____    ______ ____
ROOT
ATOM      1  C   UNL     1       2.704   5.681  18.657  0.00  0.00    -0.042 A 
ATOM      2  C   UNL     1       2.226   4.735  19.575  0.00  0.00    -0.058 A 
ATOM      3  C   UNL     1       1.600   5.144  20.753  0.00  0.00    -0.060 A 
ATOM      4  C   UNL     1       1.440   6.502  21.022  0.00  0.00    -0.040 A 
ATOM      5  C   UNL     1       1.900   7.465  20.118  0.00  0.00    +0.035 A 
ATOM      6  C   UNL     1       2.537   7.049  18.944  0.00  0.00    -0.037 A 
ATOM      7  H   UNL     1       2.325   3.670  19.381  0.00  0.00    +0.062 HD
ATOM      8  H   UNL     1       1.224   4.403  21.454  0.00  0.00    +0.062 HD
ATOM      9  H   UNL     1       0.942   6.794  21.945  0.00  0.00    +0.064 HD
ATOM     10  H   UNL     1       2.916   7.781  18.234  0.00  0.00    +0.064 HD
ENDROOT
BRANCH   5  11
ATOM     11  N   UNL     1       1.701   8.815  20.468  0.00  0.00    -0.269 N 
ATOM     12  C   UNL     1       0.490   9.489  20.596  0.00  0.00    +0.312 C 
ATOM     13  N   UNL     1       0.708  10.852  20.844  0.00  0.00    -0.234 N 
ATOM     14  C   UNL     1       1.415  11.626  19.819  0.00  0.00    +0.057 C 
ATOM     15  C   UNL     1       1.758  13.021  20.320  0.00  0.00    +0.106 C 
ATOM     16  O   UNL     1       0.580  13.736  20.707  0.00  0.00    -0.487 OA
ATOM     17  C   UNL     1      -0.234  12.992  21.529  0.00  0.00    +0.161 A 
ATOM     18  C   UNL     1      -1.146  13.713  22.298  0.00  0.00    -0.003 A 
ATOM     19  C   UNL     1      -1.986  13.037  23.189  0.00  0.00    +0.076 A 
ATOM     20  C   UNL     1      -1.849  11.659  23.276  0.00  0.00    +0.042 A 
ATOM     21  N   UNL     1      -0.980  10.938  22.531  0.00  0.00    -0.236 NA
ATOM     22  C   UNL     1      -0.210  11.593  21.633  0.00  0.00    +0.171 A 
ATOM     23  O   UNL     1      -0.622   8.982  20.482  0.00  0.00    -0.252 OA
ATOM     24  H   UNL     1       2.463   9.277  20.938  0.00  0.00    +0.156 HD
ATOM     25  H   UNL     1       0.751  11.681  18.943  0.00  0.00    +0.050 HD
ATOM     26  H   UNL     1       2.328  11.103  19.512  0.00  0.00    +0.050 HD
ATOM     27  H   UNL     1       2.244  13.597  19.521  0.00  0.00    +0.071 HD
ATOM     28  H   UNL     1       2.455  12.986  21.170  0.00  0.00    +0.071 HD
ATOM     29  H   UNL     1      -1.192  14.797  22.204  0.00  0.00    +0.066 HD
ATOM     30  H   UNL     1      -2.451  11.067  23.962  0.00  0.00    +0.084 HD
BRANCH  19  31
ATOM     31  C   UNL     1      -2.963  13.750  24.068  0.00  0.00    +0.419 C 
ATOM     32  F   UNL     1      -2.371  14.582  24.965  0.00  0.00    -0.166 F 
ATOM     33  F   UNL     1      -3.736  12.908  24.799  0.00  0.00    -0.166 F 
ATOM     34  F   UNL     1      -3.822  14.525  23.358  0.00  0.00    -0.166 F 
ENDBRANCH  19  31
ENDBRANCH   5  11
BRANCH   1  35
ATOM     35  C   UNL     1       3.379   5.260  17.355  0.00  0.00    -0.012 C 
ATOM     36  H   UNL     1       2.653   5.376  16.536  0.00  0.00    +0.035 HD
BRANCH  35  37
ATOM     37  C   UNL     1       3.741   3.768  17.413  0.00  0.00    -0.058 C 
ATOM     38  H   UNL     1       3.301   3.221  16.571  0.00  0.00    +0.024 HD
ATOM     39  H   UNL     1       4.825   3.609  17.385  0.00  0.00    +0.024 HD
ATOM     40  H   UNL     1       3.359   3.310  18.335  0.00  0.00    +0.024 HD
ENDBRANCH  35  37
BRANCH  35  41
ATOM     41  C   UNL     1       4.599   6.155  17.040  0.00  0.00    +0.014 C 
ATOM     42  H   UNL     1       4.725   6.221  15.952  0.00  0.00    +0.035 HD
ATOM     43  H   UNL     1       4.427   7.178  17.385  0.00  0.00    +0.035 HD
BRANCH  41  44
ATOM     44  C   UNL     1       5.868   5.624  17.613  0.00  0.00    +0.134 A 
ATOM     45  N   UNL     1       6.251   5.711  18.871  0.00  0.00    -0.135 NA
ATOM     46  N   UNL     1       7.484   5.117  18.986  0.00  0.00    -0.138 NA
ATOM     47  C   UNL     1       7.826   4.674  17.799  0.00  0.00    +0.120 A 
ATOM     48  N   UNL     1       6.840   4.961  16.907  0.00  0.00    -0.320 N 
ATOM     49  H   UNL     1       8.745   4.160  17.550  0.00  0.00    +0.105 HD
BRANCH  48  50
ATOM     50  C   UNL     1       6.843   4.612  15.511  0.00  0.00    +0.014 C 
ATOM     51  H   UNL     1       6.982   5.532  14.931  0.00  0.00    +0.046 HD
ATOM     52  H   UNL     1       5.890   4.145  15.244  0.00  0.00    +0.046 HD
ATOM     53  H   UNL     1       7.660   3.911  15.320  0.00  0.00    +0.046 HD
ENDBRANCH  48  50
ENDBRANCH  41  44
ENDBRANCH  35  41
ENDBRANCH   1  35
TORSDOF 7
ENDMDL
MODEL 10
REMARK VINA RESULT:    -7.638      4.360      8.994
REMARK INTER + INTRA:         -10.730
REMARK INTER:                 -10.069
REMARK INTRA:                  -0.661
REMARK UNBOUND:                -0.413
REMARK  Name = 
REMARK  7 active torsions:
REMARK  status: ('A' for Active; 'I' for Inactive)
REMARK    1  A    between atoms: C_1  and  C_2
REMARK    2  A    between atoms: C_2  and  C_3
REMARK    3  A    between atoms: C_2  and  C_10
REMARK    4  A    between atoms: C_3  and  C_4
REMARK    5  A    between atoms: N_8  and  C_9
REMARK    6  A    between atoms: C_14  and  N_16
REMARK    7  A    between atoms: C_24  and  C_28
REMARK                            x       y       z     vdW  Elec       q    Type
REMARK                         _______ _______ _______ _____ _____    ______ ____
ROOT
ATOM      1  C   UNL     1       2.649   3.400  18.935  0.00  0.00    -0.042 A 
ATOM      2  C   UNL     1       2.871   2.521  20.005  0.00  0.00    -0.058 A 
ATOM      3  C   UNL     1       2.516   2.885  21.304  0.00  0.00    -0.060 A 
ATOM      4  C   UNL     1       1.931   4.127  21.547  0.00  0.00    -0.040 A 
ATOM      5  C   UNL     1       1.692   5.017  20.495  0.00  0.00    +0.035 A 
ATOM      6  C   UNL     1       2.059   4.652  19.195  0.00  0.00    -0.037 A 
ATOM      7  H   UNL     1       3.311   1.542  19.840  0.00  0.00    +0.062 HD
ATOM      8  H   UNL     1       2.682   2.193  22.126  0.00  0.00    +0.062 HD
ATOM      9  H   UNL     1       1.658   4.382  22.568  0.00  0.00    +0.064 HD
ATOM     10  H   UNL     1       1.897   5.335  18.365  0.00  0.00    +0.064 HD
ENDROOT
BRANCH   5  11
ATOM     11  N   UNL     1       1.100   6.251  20.826  0.00  0.00    -0.269 N 
ATOM     12  C   UNL     1       1.562   7.526  20.509  0.00  0.00    +0.312 C 
ATOM     13  N   UNL     1       0.761   8.505  21.113  0.00  0.00    -0.234 N 
ATOM     14  C   UNL     1       0.701   8.526  22.578  0.00  0.00    +0.057 C 
ATOM     15  C   UNL     1      -0.362   9.497  23.073  0.00  0.00    +0.106 C 
ATOM     16  O   UNL     1      -0.109  10.825  22.603  0.00  0.00    -0.487 OA
ATOM     17  C   UNL     1       0.146  10.858  21.251  0.00  0.00    +0.161 A 
ATOM     18  C   UNL     1      -0.031  12.094  20.629  0.00  0.00    -0.003 A 
ATOM     19  C   UNL     1       0.170  12.207  19.249  0.00  0.00    +0.076 A 
ATOM     20  C   UNL     1       0.521  11.057  18.557  0.00  0.00    +0.042 A 
ATOM     21  N   UNL     1       0.710   9.852  19.141  0.00  0.00    -0.236 NA
ATOM     22  C   UNL     1       0.567   9.762  20.483  0.00  0.00    +0.171 A 
ATOM     23  O   UNL     1       2.547   7.774  19.820  0.00  0.00    -0.252 OA
ATOM     24  H   UNL     1       0.123   6.234  21.068  0.00  0.00    +0.156 HD
ATOM     25  H   UNL     1       1.698   8.826  22.936  0.00  0.00    +0.050 HD
ATOM     26  H   UNL     1       0.498   7.521  22.963  0.00  0.00    +0.050 HD
ATOM     27  H   UNL     1      -0.356   9.530  24.170  0.00  0.00    +0.071 HD
ATOM     28  H   UNL     1      -1.369   9.188  22.758  0.00  0.00    +0.071 HD
ATOM     29  H   UNL     1      -0.331  12.957  21.219  0.00  0.00    +0.066 HD
ATOM     30  H   UNL     1       0.672  11.062  17.479  0.00  0.00    +0.084 HD
BRANCH  19  31
ATOM     31  C   UNL     1      -0.035  13.492  18.512  0.00  0.00    +0.419 C 
ATOM     32  F   UNL     1      -0.671  14.439  19.250  0.00  0.00    -0.166 F 
ATOM     33  F   UNL     1      -0.772  13.347  17.382  0.00  0.00    -0.166 F 
ATOM     34  F   UNL     1       1.139  14.054  18.124  0.00  0.00    -0.166 F 
ENDBRANCH  19  31
ENDBRANCH   5  11
BRANCH   1  35
ATOM     35  C   UNL     1       3.015   3.021  17.503  0.00  0.00    -0.012 C 
ATOM     36  H   UNL     1       2.088   2.775  16.963  0.00  0.00    +0.035 HD
BRANCH  35  37
ATOM     37  C   UNL     1       3.875   1.749  17.502  0.00  0.00    -0.058 C 
ATOM     38  H   UNL     1       3.653   1.122  16.631  0.00  0.00    +0.024 HD
ATOM     39  H   UNL     1       4.946   1.979  17.483  0.00  0.00    +0.024 HD
ATOM     40  H   UNL     1       3.678   1.145  18.397  0.00  0.00    +0.024 HD
ENDBRANCH  35  37
BRANCH  35  41
ATOM     41  C   UNL     1       3.694   4.198  16.766  0.00  0.00    +0.014 C 
ATOM     42  H   UNL     1       3.629   4.032  15.683  0.00  0.00    +0.035 HD
ATOM     43  H   UNL     1       3.162   5.134  16.958  0.00  0.00    +0.035 HD
BRANCH  41  44
ATOM     44  C   UNL     1       5.135   4.344  17.117  0.00  0.00    +0.134 A 
ATOM     45  N   UNL     1       5.623   4.613  18.312  0.00  0.00    -0.135 NA
ATOM     46  N   UNL     1       6.990   4.682  18.212  0.00  0.00    -0.138 NA
ATOM     47  C   UNL     1       7.311   4.447  16.961  0.00  0.00    +0.120 A 
ATOM     48  N   UNL     1       6.182   4.221  16.239  0.00  0.00    -0.320 N 
ATOM     49  H   UNL     1       8.313   4.433  16.551  0.00  0.00    +0.105 HD
BRANCH  48  50
ATOM     50  C   UNL     1       6.133   3.904  14.836  0.00  0.00    +0.014 C 
ATOM     51  H   UNL     1       5.928   2.830  14.738  0.00  0.00    +0.046 HD
ATOM     52  H   UNL     1       7.093   4.143  14.368  0.00  0.00    +0.046 HD
ATOM     53  H   UNL     1       5.340   4.490  14.365  0.00  0.00    +0.046 HD
ENDBRANCH  48  50
ENDBRANCH  41  44
ENDBRANCH  35  41
ENDBRANCH   1  35
TORSDOF 7
ENDMDL
MODEL 11
REMARK VINA RESULT:    -7.628      2.364      3.667
REMARK INTER + INTRA:         -10.716
REMARK INTER:                 -10.070
REMARK INTRA:                  -0.646
REMARK UNBOUND:                -0.413
REMARK  Name = 
REMARK  7 active torsions:
REMARK  status: ('A' for Active; 'I' for Inactive)
REMARK    1  A    between atoms: C_1  and  C_2
REMARK    2  A    between atoms: C_2  and  C_3
REMARK    3  A    between atoms: C_2  and  C_10
REMARK    4  A    between atoms: C_3  and  C_4
REMARK    5  A    between atoms: N_8  and  C_9
REMARK    6  A    between atoms: C_14  and  N_16
REMARK    7  A    between atoms: C_24  and  C_28
REMARK                            x       y       z     vdW  Elec       q    Type
REMARK                         _______ _______ _______ _____ _____    ______ ____
ROOT
ATOM      1  C   UNL     1      -0.053  12.421  19.846  0.00  0.00    -0.042 A 
ATOM      2  C   UNL     1      -1.130  12.298  18.956  0.00  0.00    -0.058 A 
ATOM      3  C   UNL     1      -1.365  11.094  18.291  0.00  0.00    -0.060 A 
ATOM      4  C   UNL     1      -0.530  10.000  18.513  0.00  0.00    -0.040 A 
ATOM      5  C   UNL     1       0.546  10.095  19.402  0.00  0.00    +0.035 A 
ATOM      6  C   UNL     1       0.783  11.308  20.058  0.00  0.00    -0.037 A 
ATOM      7  H   UNL     1      -1.804  13.131  18.778  0.00  0.00    +0.062 HD
ATOM      8  H   UNL     1      -2.209  11.005  17.612  0.00  0.00    +0.062 HD
ATOM      9  H   UNL     1      -0.740   9.072  17.986  0.00  0.00    +0.064 HD
ATOM     10  H   UNL     1       1.623  11.410  20.741  0.00  0.00    +0.064 HD
ENDROOT
BRANCH   5  11
ATOM     11  N   UNL     1       1.342   8.946  19.566  0.00  0.00    -0.269 N 
ATOM     12  C   UNL     1       1.810   8.088  18.573  0.00  0.00    +0.312 C 
ATOM     13  N   UNL     1       2.473   6.991  19.141  0.00  0.00    -0.234 N 
ATOM     14  C   UNL     1       1.697   6.103  20.012  0.00  0.00    +0.057 C 
ATOM     15  C   UNL     1       2.595   5.094  20.713  0.00  0.00    +0.106 C 
ATOM     16  O   UNL     1       3.315   4.298  19.767  0.00  0.00    -0.487 OA
ATOM     17  C   UNL     1       3.922   5.064  18.798  0.00  0.00    +0.161 A 
ATOM     18  C   UNL     1       4.976   4.458  18.115  0.00  0.00    -0.003 A 
ATOM     19  C   UNL     1       5.672   5.180  17.139  0.00  0.00    +0.076 A 
ATOM     20  C   UNL     1       5.282   6.491  16.915  0.00  0.00    +0.042 A 
ATOM     21  N   UNL     1       4.255   7.095  17.556  0.00  0.00    -0.236 NA
ATOM     22  C   UNL     1       3.553   6.374  18.458  0.00  0.00    +0.171 A 
ATOM     23  O   UNL     1       1.648   8.243  17.366  0.00  0.00    -0.252 OA
ATOM     24  H   UNL     1       1.859   8.873  20.427  0.00  0.00    +0.156 HD
ATOM     25  H   UNL     1       0.961   5.590  19.374  0.00  0.00    +0.050 HD
ATOM     26  H   UNL     1       1.142   6.689  20.753  0.00  0.00    +0.050 HD
ATOM     27  H   UNL     1       1.987   4.412  21.322  0.00  0.00    +0.071 HD
ATOM     28  H   UNL     1       3.309   5.589  21.387  0.00  0.00    +0.071 HD
ATOM     29  H   UNL     1       5.253   3.432  18.350  0.00  0.00    +0.066 HD
ATOM     30  H   UNL     1       5.790   7.123  16.188  0.00  0.00    +0.084 HD
BRANCH  19  31
ATOM     31  C   UNL     1       6.833   4.604  16.393  0.00  0.00    +0.419 C 
ATOM     32  F   UNL     1       7.874   4.264  17.198  0.00  0.00    -0.166 F 
ATOM     33  F   UNL     1       7.344   5.453  15.466  0.00  0.00    -0.166 F 
ATOM     34  F   UNL     1       6.501   3.471  15.722  0.00  0.00    -0.166 F 
ENDBRANCH  19  31
ENDBRANCH   5  11
BRANCH   1  35
ATOM     35  C   UNL     1       0.217  13.722  20.597  0.00  0.00    -0.012 C 
ATOM     36  H   UNL     1      -0.535  14.463  20.285  0.00  0.00    +0.035 HD
BRANCH  35  37
ATOM     37  C   UNL     1       1.586  14.287  20.190  0.00  0.00    -0.058 C 
ATOM     38  H   UNL     1       1.829  14.028  19.153  0.00  0.00    +0.024 HD
ATOM     39  H   UNL     1       1.621  15.378  20.278  0.00  0.00    +0.024 HD
ATOM     40  H   UNL     1       2.382  13.873  20.823  0.00  0.00    +0.024 HD
ENDBRANCH  35  37
BRANCH  35  41
ATOM     41  C   UNL     1       0.086  13.526  22.124  0.00  0.00    +0.014 C 
ATOM     42  H   UNL     1       0.689  12.662  22.430  0.00  0.00    +0.035 HD
ATOM     43  H   UNL     1       0.499  14.385  22.661  0.00  0.00    +0.035 HD
BRANCH  41  44
ATOM     44  C   UNL     1      -1.318  13.275  22.556  0.00  0.00    +0.134 A 
ATOM     45  N   UNL     1      -2.294  14.161  22.587  0.00  0.00    -0.135 NA
ATOM     46  N   UNL     1      -3.423  13.540  23.060  0.00  0.00    -0.138 NA
ATOM     47  C   UNL     1      -3.117  12.287  23.303  0.00  0.00    +0.120 A 
ATOM     48  N   UNL     1      -1.810  12.072  22.994  0.00  0.00    -0.320 N 
ATOM     49  H   UNL     1      -3.786  11.529  23.690  0.00  0.00    +0.105 HD
BRANCH  48  50
ATOM     50  C   UNL     1      -1.118  10.815  23.103  0.00  0.00    +0.014 C 
ATOM     51  H   UNL     1      -0.362  10.911  23.891  0.00  0.00    +0.046 HD
ATOM     52  H   UNL     1      -0.633  10.575  22.151  0.00  0.00    +0.046 HD
ATOM     53  H   UNL     1      -1.836  10.031  23.354  0.00  0.00    +0.046 HD
ENDBRANCH  48  50
ENDBRANCH  41  44
ENDBRANCH  35  41
ENDBRANCH   1  35
TORSDOF 7
ENDMDL
MODEL 12
REMARK VINA RESULT:    -7.588      5.729      9.942
REMARK INTER + INTRA:         -10.662
REMARK INTER:                 -10.266
REMARK INTRA:                  -0.396
REMARK UNBOUND:                -0.413
REMARK  Name = 
REMARK  7 active torsions:
REMARK  status: ('A' for Active; 'I' for Inactive)
REMARK    1  A    between atoms: C_1  and  C_2
REMARK    2  A    between atoms: C_2  and  C_3
REMARK    3  A    between atoms: C_2  and  C_10
REMARK    4  A    between atoms: C_3  and  C_4
REMARK    5  A    between atoms: N_8  and  C_9
REMARK    6  A    between atoms: C_14  and  N_16
REMARK    7  A    between atoms: C_24  and  C_28
REMARK                            x       y       z     vdW  Elec       q    Type
REMARK                         _______ _______ _______ _____ _____    ______ ____
ROOT
ATOM      1  C   UNL     1       2.751   5.182  18.631  0.00  0.00    -0.042 A 
ATOM      2  C   UNL     1       2.243   4.398  19.676  0.00  0.00    -0.058 A 
ATOM      3  C   UNL     1       1.622   4.997  20.773  0.00  0.00    -0.060 A 
ATOM      4  C   UNL     1       1.497   6.385  20.832  0.00  0.00    -0.040 A 
ATOM      5  C   UNL     1       1.987   7.187  19.798  0.00  0.00    +0.035 A 
ATOM      6  C   UNL     1       2.619   6.582  18.706  0.00  0.00    -0.037 A 
ATOM      7  H   UNL     1       2.314   3.314  19.647  0.00  0.00    +0.062 HD
ATOM      8  H   UNL     1       1.221   4.381  21.574  0.00  0.00    +0.062 HD
ATOM      9  H   UNL     1       1.002   6.825  21.695  0.00  0.00    +0.064 HD
ATOM     10  H   UNL     1       3.022   7.187  17.897  0.00  0.00    +0.064 HD
ENDROOT
BRANCH   5  11
ATOM     11  N   UNL     1       1.824   8.579  19.937  0.00  0.00    -0.269 N 
ATOM     12  C   UNL     1       0.655   9.269  20.249  0.00  0.00    +0.312 C 
ATOM     13  N   UNL     1       0.868  10.654  20.183  0.00  0.00    -0.234 N 
ATOM     14  C   UNL     1       1.256  11.221  18.888  0.00  0.00    +0.057 C 
ATOM     15  C   UNL     1       1.652  12.684  19.024  0.00  0.00    +0.106 C 
ATOM     16  O   UNL     1       0.580  13.463  19.565  0.00  0.00    -0.487 OA
ATOM     17  C   UNL     1       0.035  12.886  20.689  0.00  0.00    +0.161 A 
ATOM     18  C   UNL     1      -0.683  13.741  21.524  0.00  0.00    -0.003 A 
ATOM     19  C   UNL     1      -1.239  13.244  22.708  0.00  0.00    +0.076 A 
ATOM     20  C   UNL     1      -1.022  11.907  23.004  0.00  0.00    +0.042 A 
ATOM     21  N   UNL     1      -0.339  11.056  22.204  0.00  0.00    -0.236 NA
ATOM     22  C   UNL     1       0.148  11.531  21.035  0.00  0.00    +0.171 A 
ATOM     23  O   UNL     1      -0.425   8.753  20.519  0.00  0.00    -0.252 OA
ATOM     24  H   UNL     1       2.658   9.118  20.104  0.00  0.00    +0.156 HD
ATOM     25  H   UNL     1       0.390  11.114  18.218  0.00  0.00    +0.050 HD
ATOM     26  H   UNL     1       2.084  10.648  18.456  0.00  0.00    +0.050 HD
ATOM     27  H   UNL     1       1.894  13.100  18.036  0.00  0.00    +0.071 HD
ATOM     28  H   UNL     1       2.543  12.805  19.657  0.00  0.00    +0.071 HD
ATOM     29  H   UNL     1      -0.800  14.788  21.252  0.00  0.00    +0.066 HD
ATOM     30  H   UNL     1      -1.404  11.454  23.917  0.00  0.00    +0.084 HD
BRANCH  19  31
ATOM     31  C   UNL     1      -1.992  14.112  23.666  0.00  0.00    +0.419 C 
ATOM     32  F   UNL     1      -3.020  13.468  24.280  0.00  0.00    -0.166 F 
ATOM     33  F   UNL     1      -2.539  15.205  23.078  0.00  0.00    -0.166 F 
ATOM     34  F   UNL     1      -1.201  14.579  24.665  0.00  0.00    -0.166 F 
ENDBRANCH  19  31
ENDBRANCH   5  11
BRANCH   1  35
ATOM     35  C   UNL     1       3.421   4.551  17.414  0.00  0.00    -0.012 C 
ATOM     36  H   UNL     1       3.312   5.240  16.563  0.00  0.00    +0.035 HD
BRANCH  35  37
ATOM     37  C   UNL     1       2.691   3.256  17.028  0.00  0.00    -0.058 C 
ATOM     38  H   UNL     1       3.294   2.374  17.273  0.00  0.00    +0.024 HD
ATOM     39  H   UNL     1       1.730   3.158  17.545  0.00  0.00    +0.024 HD
ATOM     40  H   UNL     1       2.496   3.227  15.948  0.00  0.00    +0.024 HD
ENDBRANCH  35  37
BRANCH  35  41
ATOM     41  C   UNL     1       4.932   4.331  17.656  0.00  0.00    +0.014 C 
ATOM     42  H   UNL     1       5.295   5.080  18.371  0.00  0.00    +0.035 HD
ATOM     43  H   UNL     1       5.111   3.359  18.123  0.00  0.00    +0.035 HD
BRANCH  41  44
ATOM     44  C   UNL     1       5.741   4.463  16.411  0.00  0.00    +0.134 A 
ATOM     45  N   UNL     1       5.614   3.735  15.319  0.00  0.00    -0.135 NA
ATOM     46  N   UNL     1       6.555   4.155  14.412  0.00  0.00    -0.138 NA
ATOM     47  C   UNL     1       7.233   5.134  14.964  0.00  0.00    +0.120 A 
ATOM     48  N   UNL     1       6.752   5.368  16.215  0.00  0.00    -0.320 N 
ATOM     49  H   UNL     1       8.050   5.681  14.511  0.00  0.00    +0.105 HD
BRANCH  48  50
ATOM     50  C   UNL     1       7.225   6.383  17.119  0.00  0.00    +0.014 C 
ATOM     51  H   UNL     1       6.676   6.279  18.063  0.00  0.00    +0.046 HD
ATOM     52  H   UNL     1       7.045   7.374  16.692  0.00  0.00    +0.046 HD
ATOM     53  H   UNL     1       8.297   6.245  17.282  0.00  0.00    +0.046 HD
ENDBRANCH  48  50
ENDBRANCH  41  44
ENDBRANCH  35  41
ENDBRANCH   1  35
TORSDOF 7
ENDMDL
MODEL 13
REMARK VINA RESULT:    -7.560      3.136      4.397
REMARK INTER + INTRA:         -10.624
REMARK INTER:                  -9.867
REMARK INTRA:                  -0.757
REMARK UNBOUND:                -0.413
REMARK  Name = 
REMARK  7 active torsions:
REMARK  status: ('A' for Active; 'I' for Inactive)
REMARK    1  A    between atoms: C_1  and  C_2
REMARK    2  A    between atoms: C_2  and  C_3
REMARK    3  A    between atoms: C_2  and  C_10
REMARK    4  A    between atoms: C_3  and  C_4
REMARK    5  A    between atoms: N_8  and  C_9
REMARK    6  A    between atoms: C_14  and  N_16
REMARK    7  A    between atoms: C_24  and  C_28
REMARK                            x       y       z     vdW  Elec       q    Type
REMARK                         _______ _______ _______ _____ _____    ______ ____
ROOT
ATOM      1  C   UNL     1      -0.761  11.587  18.772  0.00  0.00    -0.042 A 
ATOM      2  C   UNL     1      -0.009  12.768  18.847  0.00  0.00    -0.058 A 
ATOM      3  C   UNL     1       1.353  12.761  18.545  0.00  0.00    -0.060 A 
ATOM      4  C   UNL     1       1.975  11.574  18.158  0.00  0.00    -0.040 A 
ATOM      5  C   UNL     1       1.245  10.386  18.067  0.00  0.00    +0.035 A 
ATOM      6  C   UNL     1      -0.118  10.397  18.382  0.00  0.00    -0.037 A 
ATOM      7  H   UNL     1      -0.474  13.708  19.131  0.00  0.00    +0.062 HD
ATOM      8  H   UNL     1       1.926  13.683  18.595  0.00  0.00    +0.062 HD
ATOM      9  H   UNL     1       3.037  11.598  17.921  0.00  0.00    +0.064 HD
ATOM     10  H   UNL     1      -0.703   9.481  18.334  0.00  0.00    +0.064 HD
ENDROOT
BRANCH   5  11
ATOM     11  N   UNL     1       1.949   9.232  17.672  0.00  0.00    -0.269 N 
ATOM     12  C   UNL     1       2.393   8.190  18.482  0.00  0.00    +0.312 C 
ATOM     13  N   UNL     1       3.157   7.279  17.738  0.00  0.00    -0.234 N 
ATOM     14  C   UNL     1       4.392   7.771  17.121  0.00  0.00    +0.057 C 
ATOM     15  C   UNL     1       4.992   6.733  16.184  0.00  0.00    +0.106 C 
ATOM     16  O   UNL     1       5.278   5.514  16.877  0.00  0.00    -0.487 OA
ATOM     17  C   UNL     1       4.214   5.086  17.637  0.00  0.00    +0.161 A 
ATOM     18  C   UNL     1       4.217   3.736  17.983  0.00  0.00    -0.003 A 
ATOM     19  C   UNL     1       3.152   3.210  18.723  0.00  0.00    +0.076 A 
ATOM     20  C   UNL     1       2.120   4.072  19.060  0.00  0.00    +0.042 A 
ATOM     21  N   UNL     1       2.101   5.388  18.746  0.00  0.00    -0.236 NA
ATOM     22  C   UNL     1       3.160   5.901  18.078  0.00  0.00    +0.171 A 
ATOM     23  O   UNL     1       2.177   8.083  19.685  0.00  0.00    -0.252 OA
ATOM     24  H   UNL     1       1.897   8.981  16.698  0.00  0.00    +0.156 HD
ATOM     25  H   UNL     1       5.089   8.004  17.940  0.00  0.00    +0.050 HD
ATOM     26  H   UNL     1       4.198   8.701  16.575  0.00  0.00    +0.050 HD
ATOM     27  H   UNL     1       5.939   7.106  15.770  0.00  0.00    +0.071 HD
ATOM     28  H   UNL     1       4.325   6.520  15.337  0.00  0.00    +0.071 HD
ATOM     29  H   UNL     1       5.043   3.100  17.670  0.00  0.00    +0.066 HD
ATOM     30  H   UNL     1       1.248   3.731  19.615  0.00  0.00    +0.084 HD
BRANCH  19  31
ATOM     31  C   UNL     1       3.075   1.764  19.100  0.00  0.00    +0.419 C 
ATOM     32  F   UNL     1       3.591   0.934  18.155  0.00  0.00    -0.166 F 
ATOM     33  F   UNL     1       1.805   1.337  19.314  0.00  0.00    -0.166 F 
ATOM     34  F   UNL     1       3.759   1.494  20.241  0.00  0.00    -0.166 F 
ENDBRANCH  19  31
ENDBRANCH   5  11
BRANCH   1  35
ATOM     35  C   UNL     1      -2.255  11.572  19.084  0.00  0.00    -0.012 C 
ATOM     36  H   UNL     1      -2.483  10.648  19.637  0.00  0.00    +0.035 HD
BRANCH  35  37
ATOM     37  C   UNL     1      -3.061  11.513  17.778  0.00  0.00    -0.058 C 
ATOM     38  H   UNL     1      -4.015  12.044  17.877  0.00  0.00    +0.024 HD
ATOM     39  H   UNL     1      -2.515  11.961  16.940  0.00  0.00    +0.024 HD
ATOM     40  H   UNL     1      -3.293  10.474  17.510  0.00  0.00    +0.024 HD
ENDBRANCH  35  37
BRANCH  35  41
ATOM     41  C   UNL     1      -2.655  12.769  19.975  0.00  0.00    +0.014 C 
ATOM     42  H   UNL     1      -1.949  13.593  19.810  0.00  0.00    +0.035 HD
ATOM     43  H   UNL     1      -3.637  13.154  19.688  0.00  0.00    +0.035 HD
BRANCH  41  44
ATOM     44  C   UNL     1      -2.635  12.439  21.429  0.00  0.00    +0.134 A 
ATOM     45  N   UNL     1      -1.642  11.873  22.086  0.00  0.00    -0.135 NA
ATOM     46  N   UNL     1      -2.026  11.723  23.395  0.00  0.00    -0.138 NA
ATOM     47  C   UNL     1      -3.240  12.206  23.514  0.00  0.00    +0.120 A 
ATOM     48  N   UNL     1      -3.661  12.673  22.309  0.00  0.00    -0.320 N 
ATOM     49  H   UNL     1      -3.831  12.234  24.421  0.00  0.00    +0.105 HD
BRANCH  48  50
ATOM     50  C   UNL     1      -4.931  13.298  22.048  0.00  0.00    +0.014 C 
ATOM     51  H   UNL     1      -4.783  14.385  22.056  0.00  0.00    +0.046 HD
ATOM     52  H   UNL     1      -5.650  13.016  22.824  0.00  0.00    +0.046 HD
ATOM     53  H   UNL     1      -5.298  12.969  21.073  0.00  0.00    +0.046 HD
ENDBRANCH  48  50
ENDBRANCH  41  44
ENDBRANCH  35  41
ENDBRANCH   1  35
TORSDOF 7
ENDMDL
MODEL 14
REMARK VINA RESULT:    -7.518      2.714      3.870
REMARK INTER + INTRA:         -10.567
REMARK INTER:                  -9.705
REMARK INTRA:                  -0.862
REMARK UNBOUND:                -0.413
REMARK  Name = 
REMARK  7 active torsions:
REMARK  status: ('A' for Active; 'I' for Inactive)
REMARK    1  A    between atoms: C_1  and  C_2
REMARK    2  A    between atoms: C_2  and  C_3
REMARK    3  A    between atoms: C_2  and  C_10
REMARK    4  A    between atoms: C_3  and  C_4
REMARK    5  A    between atoms: N_8  and  C_9
REMARK    6  A    between atoms: C_14  and  N_16
REMARK    7  A    between atoms: C_24  and  C_28
REMARK                            x       y       z     vdW  Elec       q    Type
REMARK                         _______ _______ _______ _____ _____    ______ ____
ROOT
ATOM      1  C   UNL     1       0.027  12.167  18.894  0.00  0.00    -0.042 A 
ATOM      2  C   UNL     1       0.893  13.257  18.729  0.00  0.00    -0.058 A 
ATOM      3  C   UNL     1       2.179  13.069  18.222  0.00  0.00    -0.060 A 
ATOM      4  C   UNL     1       2.610  11.790  17.870  0.00  0.00    -0.040 A 
ATOM      5  C   UNL     1       1.762  10.689  18.018  0.00  0.00    +0.035 A 
ATOM      6  C   UNL     1       0.477  10.882  18.537  0.00  0.00    -0.037 A 
ATOM      7  H   UNL     1       0.575  14.265  18.981  0.00  0.00    +0.062 HD
ATOM      8  H   UNL     1       2.840  13.921  18.087  0.00  0.00    +0.062 HD
ATOM      9  H   UNL     1       3.616  11.673  17.471  0.00  0.00    +0.064 HD
ATOM     10  H   UNL     1      -0.194  10.037  18.675  0.00  0.00    +0.064 HD
ENDROOT
BRANCH   5  11
ATOM     11  N   UNL     1       2.276   9.433  17.642  0.00  0.00    -0.269 N 
ATOM     12  C   UNL     1       2.494   8.326  18.459  0.00  0.00    +0.312 C 
ATOM     13  N   UNL     1       3.125   7.300  17.741  0.00  0.00    -0.234 N 
ATOM     14  C   UNL     1       4.455   7.575  17.189  0.00  0.00    +0.057 C 
ATOM     15  C   UNL     1       4.913   6.453  16.268  0.00  0.00    +0.106 C 
ATOM     16  O   UNL     1       4.950   5.200  16.958  0.00  0.00    -0.487 OA
ATOM     17  C   UNL     1       3.793   4.958  17.661  0.00  0.00    +0.161 A 
ATOM     18  C   UNL     1       3.547   3.626  17.990  0.00  0.00    -0.003 A 
ATOM     19  C   UNL     1       2.372   3.288  18.672  0.00  0.00    +0.076 A 
ATOM     20  C   UNL     1       1.489   4.315  18.970  0.00  0.00    +0.042 A 
ATOM     21  N   UNL     1       1.712   5.615  18.672  0.00  0.00    -0.236 NA
ATOM     22  C   UNL     1       2.874   5.941  18.062  0.00  0.00    +0.171 A 
ATOM     23  O   UNL     1       2.204   8.253  19.649  0.00  0.00    -0.252 OA
ATOM     24  H   UNL     1       2.230   9.199  16.663  0.00  0.00    +0.156 HD
ATOM     25  H   UNL     1       5.142   7.680  18.043  0.00  0.00    +0.050 HD
ATOM     26  H   UNL     1       4.451   8.527  16.646  0.00  0.00    +0.050 HD
ATOM     27  H   UNL     1       5.929   6.658  15.905  0.00  0.00    +0.071 HD
ATOM     28  H   UNL     1       4.262   6.362  15.388  0.00  0.00    +0.071 HD
ATOM     29  H   UNL     1       4.266   2.859  17.708  0.00  0.00    +0.066 HD
ATOM     30  H   UNL     1       0.545   4.127  19.479  0.00  0.00    +0.084 HD
BRANCH  19  31
ATOM     31  C   UNL     1       2.029   1.876  19.026  0.00  0.00    +0.419 C 
ATOM     32  F   UNL     1       0.852   1.458  18.489  0.00  0.00    -0.166 F 
ATOM     33  F   UNL     1       1.918   1.674  20.363  0.00  0.00    -0.166 F 
ATOM     34  F   UNL     1       2.966   0.996  18.590  0.00  0.00    -0.166 F 
ENDBRANCH  19  31
ENDBRANCH   5  11
BRANCH   1  35
ATOM     35  C   UNL     1      -1.390  12.348  19.432  0.00  0.00    -0.012 C 
ATOM     36  H   UNL     1      -1.862  13.181  18.890  0.00  0.00    +0.035 HD
BRANCH  35  37
ATOM     37  C   UNL     1      -1.339  12.758  20.912  0.00  0.00    -0.058 C 
ATOM     38  H   UNL     1      -0.372  12.503  21.360  0.00  0.00    +0.024 HD
ATOM     39  H   UNL     1      -1.494  13.835  21.043  0.00  0.00    +0.024 HD
ATOM     40  H   UNL     1      -2.114  12.235  21.488  0.00  0.00    +0.024 HD
ENDBRANCH  35  37
BRANCH  35  41
ATOM     41  C   UNL     1      -2.246  11.083  19.197  0.00  0.00    +0.014 C 
ATOM     42  H   UNL     1      -1.598  10.269  18.847  0.00  0.00    +0.035 HD
ATOM     43  H   UNL     1      -2.686  10.733  20.135  0.00  0.00    +0.035 HD
BRANCH  41  44
ATOM     44  C   UNL     1      -3.310  11.288  18.173  0.00  0.00    +0.134 A 
ATOM     45  N   UNL     1      -4.434  11.956  18.341  0.00  0.00    -0.135 NA
ATOM     46  N   UNL     1      -5.147  11.896  17.170  0.00  0.00    -0.138 NA
ATOM     47  C   UNL     1      -4.443  11.199  16.309  0.00  0.00    +0.120 A 
ATOM     48  N   UNL     1      -3.279  10.804  16.890  0.00  0.00    -0.320 N 
ATOM     49  H   UNL     1      -4.729  10.964  15.292  0.00  0.00    +0.105 HD
BRANCH  48  50
ATOM     50  C   UNL     1      -2.239  10.042  16.252  0.00  0.00    +0.014 C 
ATOM     51  H   UNL     1      -1.943   9.234  16.932  0.00  0.00    +0.046 HD
ATOM     52  H   UNL     1      -1.379  10.688  16.047  0.00  0.00    +0.046 HD
ATOM     53  H   UNL     1      -2.619   9.632  15.313  0.00  0.00    +0.046 HD
ENDBRANCH  48  50
ENDBRANCH  41  44
ENDBRANCH  35  41
ENDBRANCH   1  35
TORSDOF 7
ENDMDL
MODEL 15
REMARK VINA RESULT:    -7.512      3.048      4.586
REMARK INTER + INTRA:         -10.559
REMARK INTER:                  -9.605
REMARK INTRA:                  -0.955
REMARK UNBOUND:                -0.413
REMARK  Name = 
REMARK  7 active torsions:
REMARK  status: ('A' for Active; 'I' for Inactive)
REMARK    1  A    between atoms: C_1  and  C_2
REMARK    2  A    between atoms: C_2  and  C_3
REMARK    3  A    between atoms: C_2  and  C_10
REMARK    4  A    between atoms: C_3  and  C_4
REMARK    5  A    between atoms: N_8  and  C_9
REMARK    6  A    between atoms: C_14  and  N_16
REMARK    7  A    between atoms: C_24  and  C_28
REMARK                            x       y       z     vdW  Elec       q    Type
REMARK                         _______ _______ _______ _____ _____    ______ ____
ROOT
ATOM      1  C   UNL     1       0.012  12.169  19.206  0.00  0.00    -0.042 A 
ATOM      2  C   UNL     1      -1.332  11.987  18.852  0.00  0.00    -0.058 A 
ATOM      3  C   UNL     1      -1.731  10.852  18.144  0.00  0.00    -0.060 A 
ATOM      4  C   UNL     1      -0.791   9.885  17.790  0.00  0.00    -0.040 A 
ATOM      5  C   UNL     1       0.554  10.039  18.140  0.00  0.00    +0.035 A 
ATOM      6  C   UNL     1       0.950  11.184  18.840  0.00  0.00    -0.037 A 
ATOM      7  H   UNL     1      -2.086  12.719  19.129  0.00  0.00    +0.062 HD
ATOM      8  H   UNL     1      -2.777  10.715  17.883  0.00  0.00    +0.062 HD
ATOM      9  H   UNL     1      -1.130   9.007  17.245  0.00  0.00    +0.064 HD
ATOM     10  H   UNL     1       1.993  11.333  19.108  0.00  0.00    +0.064 HD
ENDROOT
BRANCH   5  11
ATOM     11  N   UNL     1       1.438   9.018  17.742  0.00  0.00    -0.269 N 
ATOM     12  C   UNL     1       1.979   8.007  18.532  0.00  0.00    +0.312 C 
ATOM     13  N   UNL     1       2.907   7.253  17.800  0.00  0.00    -0.234 N 
ATOM     14  C   UNL     1       4.092   7.945  17.286  0.00  0.00    +0.057 C 
ATOM     15  C   UNL     1       4.888   7.053  16.345  0.00  0.00    +0.106 C 
ATOM     16  O   UNL     1       5.305   5.851  17.000  0.00  0.00    -0.487 OA
ATOM     17  C   UNL     1       4.271   5.238  17.670  0.00  0.00    +0.161 A 
ATOM     18  C   UNL     1       4.447   3.885  17.956  0.00  0.00    -0.003 A 
ATOM     19  C   UNL     1       3.428   3.176  18.601  0.00  0.00    +0.076 A 
ATOM     20  C   UNL     1       2.265   3.867  18.908  0.00  0.00    +0.042 A 
ATOM     21  N   UNL     1       2.076   5.182  18.652  0.00  0.00    -0.236 NA
ATOM     22  C   UNL     1       3.087   5.873  18.077  0.00  0.00    +0.171 A 
ATOM     23  O   UNL     1       1.711   7.807  19.713  0.00  0.00    -0.252 OA
ATOM     24  H   UNL     1       1.479   8.815  16.756  0.00  0.00    +0.156 HD
ATOM     25  H   UNL     1       4.701   8.230  18.158  0.00  0.00    +0.050 HD
ATOM     26  H   UNL     1       3.799   8.867  16.770  0.00  0.00    +0.050 HD
ATOM     27  H   UNL     1       5.794   7.576  16.011  0.00  0.00    +0.071 HD
ATOM     28  H   UNL     1       4.309   6.793  15.448  0.00  0.00    +0.071 HD
ATOM     29  H   UNL     1       5.373   3.389  17.669  0.00  0.00    +0.066 HD
ATOM     30  H   UNL     1       1.420   3.378  19.390  0.00  0.00    +0.084 HD
BRANCH  19  31
ATOM     31  C   UNL     1       3.536   1.717  18.908  0.00  0.00    +0.419 C 
ATOM     32  F   UNL     1       4.463   1.435  19.861  0.00  0.00    -0.166 F 
ATOM     33  F   UNL     1       3.878   0.970  17.828  0.00  0.00    -0.166 F 
ATOM     34  F   UNL     1       2.367   1.201  19.366  0.00  0.00    -0.166 F 
ENDBRANCH  19  31
ENDBRANCH   5  11
BRANCH   1  35
ATOM     35  C   UNL     1       0.471  13.394  19.992  0.00  0.00    -0.012 C 
ATOM     36  H   UNL     1      -0.315  14.161  19.928  0.00  0.00    +0.035 HD
BRANCH  35  37
ATOM     37  C   UNL     1       1.725  13.994  19.339  0.00  0.00    -0.058 C 
ATOM     38  H   UNL     1       2.019  13.425  18.450  0.00  0.00    +0.024 HD
ATOM     39  H   UNL     1       1.569  15.035  19.033  0.00  0.00    +0.024 HD
ATOM     40  H   UNL     1       2.574  13.973  20.035  0.00  0.00    +0.024 HD
ENDBRANCH  35  37
BRANCH  35  41
ATOM     41  C   UNL     1       0.684  13.056  21.485  0.00  0.00    +0.014 C 
ATOM     42  H   UNL     1       1.283  12.140  21.566  0.00  0.00    +0.035 HD
ATOM     43  H   UNL     1       1.264  13.839  21.980  0.00  0.00    +0.035 HD
BRANCH  41  44
ATOM     44  C   UNL     1      -0.597  12.825  22.212  0.00  0.00    +0.134 A 
ATOM     45  N   UNL     1      -1.492  13.742  22.523  0.00  0.00    -0.135 NA
ATOM     46  N   UNL     1      -2.514  13.129  23.205  0.00  0.00    -0.138 NA
ATOM     47  C   UNL     1      -2.227  11.851  23.291  0.00  0.00    +0.120 A 
ATOM     48  N   UNL     1      -1.038  11.612  22.676  0.00  0.00    -0.320 N 
ATOM     49  H   UNL     1      -2.829  11.093  23.774  0.00  0.00    +0.105 HD
BRANCH  48  50
ATOM     50  C   UNL     1      -0.406  10.326  22.544  0.00  0.00    +0.014 C 
ATOM     51  H   UNL     1      -1.186   9.557  22.597  0.00  0.00    +0.046 HD
ATOM     52  H   UNL     1       0.314  10.182  23.356  0.00  0.00    +0.046 HD
ATOM     53  H   UNL     1       0.113  10.280  21.583  0.00  0.00    +0.046 HD
ENDBRANCH  48  50
ENDBRANCH  41  44
ENDBRANCH  35  41
ENDBRANCH   1  35
TORSDOF 7
ENDMDL
MODEL 16
REMARK VINA RESULT:    -7.457      5.288      9.535
REMARK INTER + INTRA:         -10.485
REMARK INTER:                 -10.153
REMARK INTRA:                  -0.332
REMARK UNBOUND:                -0.413
REMARK  Name = 
REMARK  7 active torsions:
REMARK  status: ('A' for Active; 'I' for Inactive)
REMARK    1  A    between atoms: C_1  and  C_2
REMARK    2  A    between atoms: C_2  and  C_3
REMARK    3  A    between atoms: C_2  and  C_10
REMARK    4  A    between atoms: C_3  and  C_4
REMARK    5  A    between atoms: N_8  and  C_9
REMARK    6  A    between atoms: C_14  and  N_16
REMARK    7  A    between atoms: C_24  and  C_28
REMARK                            x       y       z     vdW  Elec       q    Type
REMARK                         _______ _______ _______ _____ _____    ______ ____
ROOT
ATOM      1  C   UNL     1       4.213   5.737  18.493  0.00  0.00    -0.042 A 
ATOM      2  C   UNL     1       4.326   6.321  17.223  0.00  0.00    -0.058 A 
ATOM      3  C   UNL     1       3.557   7.435  16.884  0.00  0.00    -0.060 A 
ATOM      4  C   UNL     1       2.672   7.980  17.813  0.00  0.00    -0.040 A 
ATOM      5  C   UNL     1       2.548   7.422  19.089  0.00  0.00    +0.035 A 
ATOM      6  C   UNL     1       3.313   6.298  19.419  0.00  0.00    -0.037 A 
ATOM      7  H   UNL     1       5.020   5.924  16.487  0.00  0.00    +0.062 HD
ATOM      8  H   UNL     1       3.660   7.888  15.901  0.00  0.00    +0.062 HD
ATOM      9  H   UNL     1       2.090   8.853  17.526  0.00  0.00    +0.064 HD
ATOM     10  H   UNL     1       3.221   5.837  20.400  0.00  0.00    +0.064 HD
ENDROOT
BRANCH   5  11
ATOM     11  N   UNL     1       1.629   8.031  19.966  0.00  0.00    -0.269 N 
ATOM     12  C   UNL     1       1.243   9.368  19.996  0.00  0.00    +0.312 C 
ATOM     13  N   UNL     1       0.397   9.613  21.086  0.00  0.00    -0.234 N 
ATOM     14  C   UNL     1       0.938   9.391  22.431  0.00  0.00    +0.057 C 
ATOM     15  C   UNL     1      -0.152   9.493  23.488  0.00  0.00    +0.106 C 
ATOM     16  O   UNL     1      -0.788  10.775  23.453  0.00  0.00    -0.487 OA
ATOM     17  C   UNL     1      -1.158  11.137  22.179  0.00  0.00    +0.161 A 
ATOM     18  C   UNL     1      -2.145  12.118  22.087  0.00  0.00    -0.003 A 
ATOM     19  C   UNL     1      -2.608  12.517  20.828  0.00  0.00    +0.076 A 
ATOM     20  C   UNL     1      -2.063  11.888  19.719  0.00  0.00    +0.042 A 
ATOM     21  N   UNL     1      -1.097  10.944  19.783  0.00  0.00    -0.236 NA
ATOM     22  C   UNL     1      -0.617  10.602  21.000  0.00  0.00    +0.171 A 
ATOM     23  O   UNL     1       1.606  10.231  19.201  0.00  0.00    -0.252 OA
ATOM     24  H   UNL     1       0.979   7.421  20.435  0.00  0.00    +0.156 HD
ATOM     25  H   UNL     1       1.712  10.156  22.595  0.00  0.00    +0.050 HD
ATOM     26  H   UNL     1       1.423   8.410  22.487  0.00  0.00    +0.050 HD
ATOM     27  H   UNL     1       0.285   9.371  24.488  0.00  0.00    +0.071 HD
ATOM     28  H   UNL     1      -0.912   8.709  23.363  0.00  0.00    +0.071 HD
ATOM     29  H   UNL     1      -2.553  12.559  22.994  0.00  0.00    +0.066 HD
ATOM     30  H   UNL     1      -2.388  12.130  18.708  0.00  0.00    +0.084 HD
BRANCH  19  31
ATOM     31  C   UNL     1      -3.687  13.538  20.658  0.00  0.00    +0.419 C 
ATOM     32  F   UNL     1      -4.511  13.278  19.609  0.00  0.00    -0.166 F 
ATOM     33  F   UNL     1      -3.208  14.790  20.450  0.00  0.00    -0.166 F 
ATOM     34  F   UNL     1      -4.492  13.620  21.748  0.00  0.00    -0.166 F 
ENDBRANCH  19  31
ENDBRANCH   5  11
BRANCH   1  35
ATOM     35  C   UNL     1       5.052   4.528  18.893  0.00  0.00    -0.012 C 
ATOM     36  H   UNL     1       5.289   4.609  19.964  0.00  0.00    +0.035 HD
BRANCH  35  37
ATOM     37  C   UNL     1       6.393   4.551  18.143  0.00  0.00    -0.058 C 
ATOM     38  H   UNL     1       6.240   4.546  17.058  0.00  0.00    +0.024 HD
ATOM     39  H   UNL     1       6.986   5.439  18.393  0.00  0.00    +0.024 HD
ATOM     40  H   UNL     1       6.994   3.666  18.392  0.00  0.00    +0.024 HD
ENDBRANCH  35  37
BRANCH  35  41
ATOM     41  C   UNL     1       4.276   3.209  18.677  0.00  0.00    +0.014 C 
ATOM     42  H   UNL     1       3.788   3.234  17.695  0.00  0.00    +0.035 HD
ATOM     43  H   UNL     1       4.961   2.357  18.651  0.00  0.00    +0.035 HD
BRANCH  41  44
ATOM     44  C   UNL     1       3.218   2.988  19.704  0.00  0.00    +0.134 A 
ATOM     45  N   UNL     1       3.412   2.645  20.962  0.00  0.00    -0.135 NA
ATOM     46  N   UNL     1       2.186   2.524  21.568  0.00  0.00    -0.138 NA
ATOM     47  C   UNL     1       1.269   2.801  20.671  0.00  0.00    +0.120 A 
ATOM     48  N   UNL     1       1.868   3.106  19.490  0.00  0.00    -0.320 N 
ATOM     49  H   UNL     1       0.198   2.792  20.830  0.00  0.00    +0.105 HD
BRANCH  48  50
ATOM     50  C   UNL     1       1.190   3.487  18.279  0.00  0.00    +0.014 C 
ATOM     51  H   UNL     1       1.240   4.579  18.191  0.00  0.00    +0.046 HD
ATOM     52  H   UNL     1       0.145   3.166  18.322  0.00  0.00    +0.046 HD
ATOM     53  H   UNL     1       1.683   3.012  17.428  0.00  0.00    +0.046 HD
ENDBRANCH  48  50
ENDBRANCH  41  44
ENDBRANCH  35  41
ENDBRANCH   1  35
TORSDOF 7
ENDMDL
MODEL 17
REMARK VINA RESULT:    -7.391      3.807      5.471
REMARK INTER + INTRA:         -10.396
REMARK INTER:                  -9.526
REMARK INTRA:                  -0.869
REMARK UNBOUND:                -0.413
REMARK  Name = 
REMARK  7 active torsions:
REMARK  status: ('A' for Active; 'I' for Inactive)
REMARK    1  A    between atoms: C_1  and  C_2
REMARK    2  A    between atoms: C_2  and  C_3
REMARK    3  A    between atoms: C_2  and  C_10
REMARK    4  A    between atoms: C_3  and  C_4
REMARK    5  A    between atoms: N_8  and  C_9
REMARK    6  A    between atoms: C_14  and  N_16
REMARK    7  A    between atoms: C_24  and  C_28
REMARK                            x       y       z     vdW  Elec       q    Type
REMARK                         _______ _______ _______ _____ _____    ______ ____
ROOT
ATOM      1  C   UNL     1       0.530  12.539  18.915  0.00  0.00    -0.042 A 
ATOM      2  C   UNL     1      -0.847  12.288  18.990  0.00  0.00    -0.058 A 
ATOM      3  C   UNL     1      -1.357  11.032  18.658  0.00  0.00    -0.060 A 
ATOM      4  C   UNL     1      -0.494  10.013  18.254  0.00  0.00    -0.040 A 
ATOM      5  C   UNL     1       0.884  10.237  18.180  0.00  0.00    +0.035 A 
ATOM      6  C   UNL     1       1.388  11.501  18.504  0.00  0.00    -0.037 A 
ATOM      7  H   UNL     1      -1.538  13.060  19.316  0.00  0.00    +0.062 HD
ATOM      8  H   UNL     1      -2.425  10.843  18.729  0.00  0.00    +0.062 HD
ATOM      9  H   UNL     1      -0.917   9.042  18.007  0.00  0.00    +0.064 HD
ATOM     10  H   UNL     1       2.455  11.703  18.438  0.00  0.00    +0.064 HD
ENDROOT
BRANCH   5  11
ATOM     11  N   UNL     1       1.684   9.157  17.761  0.00  0.00    -0.269 N 
ATOM     12  C   UNL     1       2.188   8.120  18.541  0.00  0.00    +0.312 C 
ATOM     13  N   UNL     1       3.037   7.300  17.784  0.00  0.00    -0.234 N 
ATOM     14  C   UNL     1       4.244   7.909  17.217  0.00  0.00    +0.057 C 
ATOM     15  C   UNL     1       4.943   6.958  16.257  0.00  0.00    +0.106 C 
ATOM     16  O   UNL     1       5.306   5.737  16.911  0.00  0.00    -0.487 OA
ATOM     17  C   UNL     1       4.261   5.200  17.626  0.00  0.00    +0.161 A 
ATOM     18  C   UNL     1       4.361   3.841  17.922  0.00  0.00    -0.003 A 
ATOM     19  C   UNL     1       3.323   3.206  18.614  0.00  0.00    +0.076 A 
ATOM     20  C   UNL     1       2.221   3.974  18.956  0.00  0.00    +0.042 A 
ATOM     21  N   UNL     1       2.108   5.296  18.691  0.00  0.00    -0.236 NA
ATOM     22  C   UNL     1       3.138   5.914  18.071  0.00  0.00    +0.171 A 
ATOM     23  O   UNL     1       1.954   7.950  19.734  0.00  0.00    -0.252 OA
ATOM     24  H   UNL     1       1.674   8.942  16.776  0.00  0.00    +0.156 HD
ATOM     25  H   UNL     1       4.903   8.162  18.062  0.00  0.00    +0.050 HD
ATOM     26  H   UNL     1       3.992   8.843  16.702  0.00  0.00    +0.050 HD
ATOM     27  H   UNL     1       5.868   7.417  15.882  0.00  0.00    +0.071 HD
ATOM     28  H   UNL     1       4.314   6.728  15.386  0.00  0.00    +0.071 HD
ATOM     29  H   UNL     1       5.241   3.283  17.606  0.00  0.00    +0.066 HD
ATOM     30  H   UNL     1       1.365   3.546  19.475  0.00  0.00    +0.084 HD
BRANCH  19  31
ATOM     31  C   UNL     1       3.349   1.746  18.933  0.00  0.00    +0.419 C 
ATOM     32  F   UNL     1       4.193   1.433  19.952  0.00  0.00    -0.166 F 
ATOM     33  F   UNL     1       3.736   0.978  17.884  0.00  0.00    -0.166 F 
ATOM     34  F   UNL     1       2.130   1.281  19.309  0.00  0.00    -0.166 F 
ENDBRANCH  19  31
ENDBRANCH   5  11
BRANCH   1  35
ATOM     35  C   UNL     1       1.114  13.899  19.287  0.00  0.00    -0.012 C 
ATOM     36  H   UNL     1       1.320  13.903  20.368  0.00  0.00    +0.035 HD
BRANCH  35  37
ATOM     37  C   UNL     1       0.075  15.001  19.033  0.00  0.00    -0.058 C 
ATOM     38  H   UNL     1      -0.354  14.917  18.027  0.00  0.00    +0.024 HD
ATOM     39  H   UNL     1      -0.751  14.959  19.752  0.00  0.00    +0.024 HD
ATOM     40  H   UNL     1       0.535  15.995  19.109  0.00  0.00    +0.024 HD
ENDBRANCH  35  37
BRANCH  35  41
ATOM     41  C   UNL     1       2.447  14.159  18.549  0.00  0.00    +0.014 C 
ATOM     42  H   UNL     1       2.756  13.243  18.030  0.00  0.00    +0.035 HD
ATOM     43  H   UNL     1       2.317  14.915  17.770  0.00  0.00    +0.035 HD
BRANCH  41  44
ATOM     44  C   UNL     1       3.550  14.553  19.471  0.00  0.00    +0.134 A 
ATOM     45  N   UNL     1       3.466  14.668  20.781  0.00  0.00    -0.135 NA
ATOM     46  N   UNL     1       4.690  15.068  21.256  0.00  0.00    -0.138 NA
ATOM     47  C   UNL     1       5.499  15.182  20.228  0.00  0.00    +0.120 A 
ATOM     48  N   UNL     1       4.831  14.861  19.089  0.00  0.00    -0.320 N 
ATOM     49  H   UNL     1       6.538  15.484  20.264  0.00  0.00    +0.105 HD
BRANCH  48  50
ATOM     50  C   UNL     1       5.391  14.844  17.764  0.00  0.00    +0.014 C 
ATOM     51  H   UNL     1       4.855  14.088  17.177  0.00  0.00    +0.046 HD
ATOM     52  H   UNL     1       6.455  14.589  17.814  0.00  0.00    +0.046 HD
ATOM     53  H   UNL     1       5.274  15.832  17.313  0.00  0.00    +0.046 HD
ENDBRANCH  48  50
ENDBRANCH  41  44
ENDBRANCH  35  41
ENDBRANCH   1  35
TORSDOF 7
ENDMDL
MODEL 18
REMARK VINA RESULT:    -7.372      4.677      9.306
REMARK INTER + INTRA:         -10.371
REMARK INTER:                  -9.854
REMARK INTRA:                  -0.517
REMARK UNBOUND:                -0.413
REMARK  Name = 
REMARK  7 active torsions:
REMARK  status: ('A' for Active; 'I' for Inactive)
REMARK    1  A    between atoms: C_1  and  C_2
REMARK    2  A    between atoms: C_2  and  C_3
REMARK    3  A    between atoms: C_2  and  C_10
REMARK    4  A    between atoms: C_3  and  C_4
REMARK    5  A    between atoms: N_8  and  C_9
REMARK    6  A    between atoms: C_14  and  N_16
REMARK    7  A    between atoms: C_24  and  C_28
REMARK                            x       y       z     vdW  Elec       q    Type
REMARK                         _______ _______ _______ _____ _____    ______ ____
ROOT
ATOM      1  C   UNL     1       4.280   4.626  16.872  0.00  0.00    -0.042 A 
ATOM      2  C   UNL     1       3.602   3.401  16.794  0.00  0.00    -0.058 A 
ATOM      3  C   UNL     1       2.379   3.227  17.443  0.00  0.00    -0.060 A 
ATOM      4  C   UNL     1       1.819   4.275  18.170  0.00  0.00    -0.040 A 
ATOM      5  C   UNL     1       2.471   5.509  18.255  0.00  0.00    +0.035 A 
ATOM      6  C   UNL     1       3.703   5.676  17.612  0.00  0.00    -0.037 A 
ATOM      7  H   UNL     1       4.010   2.574  16.221  0.00  0.00    +0.062 HD
ATOM      8  H   UNL     1       1.856   2.277  17.368  0.00  0.00    +0.062 HD
ATOM      9  H   UNL     1       0.861   4.114  18.660  0.00  0.00    +0.064 HD
ATOM     10  H   UNL     1       4.235   6.621  17.678  0.00  0.00    +0.064 HD
ENDROOT
BRANCH   5  11
ATOM     11  N   UNL     1       1.839   6.514  19.012  0.00  0.00    -0.269 N 
ATOM     12  C   UNL     1       2.137   7.875  19.034  0.00  0.00    +0.312 C 
ATOM     13  N   UNL     1       1.363   8.533  20.000  0.00  0.00    -0.234 N 
ATOM     14  C   UNL     1       1.535   8.131  21.399  0.00  0.00    +0.057 C 
ATOM     15  C   UNL     1       0.488   8.779  22.293  0.00  0.00    +0.106 C 
ATOM     16  O   UNL     1       0.551  10.207  22.213  0.00  0.00    -0.487 OA
ATOM     17  C   UNL     1       0.583  10.654  20.912  0.00  0.00    +0.161 A 
ATOM     18  C   UNL     1       0.207  11.982  20.715  0.00  0.00    -0.003 A 
ATOM     19  C   UNL     1       0.176  12.506  19.418  0.00  0.00    +0.076 A 
ATOM     20  C   UNL     1       0.507  11.652  18.376  0.00  0.00    +0.042 A 
ATOM     21  N   UNL     1       0.887  10.365  18.544  0.00  0.00    -0.236 NA
ATOM     22  C   UNL     1       0.967   9.882  19.805  0.00  0.00    +0.171 A 
ATOM     23  O   UNL     1       2.975   8.430  18.331  0.00  0.00    -0.252 OA
ATOM     24  H   UNL     1       0.917   6.306  19.361  0.00  0.00    +0.156 HD
ATOM     25  H   UNL     1       2.548   8.441  21.700  0.00  0.00    +0.050 HD
ATOM     26  H   UNL     1       1.481   7.040  21.490  0.00  0.00    +0.050 HD
ATOM     27  H   UNL     1       0.665   8.501  23.341  0.00  0.00    +0.071 HD
ATOM     28  H   UNL     1      -0.527   8.447  22.032  0.00  0.00    +0.071 HD
ATOM     29  H   UNL     1      -0.066  12.598  21.570  0.00  0.00    +0.066 HD
ATOM     30  H   UNL     1       0.484  11.981  17.338  0.00  0.00    +0.084 HD
BRANCH  19  31
ATOM     31  C   UNL     1      -0.251  13.910  19.131  0.00  0.00    +0.419 C 
ATOM     32  F   UNL     1      -1.344  14.295  19.841  0.00  0.00    -0.166 F 
ATOM     33  F   UNL     1      -0.565  14.115  17.827  0.00  0.00    -0.166 F 
ATOM     34  F   UNL     1       0.720  14.812  19.429  0.00  0.00    -0.166 F 
ENDBRANCH  19  31
ENDBRANCH   5  11
BRANCH   1  35
ATOM     35  C   UNL     1       5.611   4.848  16.160  0.00  0.00    -0.012 C 
ATOM     36  H   UNL     1       5.609   5.860  15.729  0.00  0.00    +0.035 HD
BRANCH  35  37
ATOM     37  C   UNL     1       5.745   3.869  14.984  0.00  0.00    -0.058 C 
ATOM     38  H   UNL     1       6.600   3.198  15.124  0.00  0.00    +0.024 HD
ATOM     39  H   UNL     1       4.849   3.249  14.864  0.00  0.00    +0.024 HD
ATOM     40  H   UNL     1       5.906   4.411  14.043  0.00  0.00    +0.024 HD
ENDBRANCH  35  37
BRANCH  35  41
ATOM     41  C   UNL     1       6.798   4.756  17.147  0.00  0.00    +0.014 C 
ATOM     42  H   UNL     1       6.468   4.248  18.061  0.00  0.00    +0.035 HD
ATOM     43  H   UNL     1       7.598   4.137  16.732  0.00  0.00    +0.035 HD
BRANCH  41  44
ATOM     44  C   UNL     1       7.329   6.093  17.537  0.00  0.00    +0.134 A 
ATOM     45  N   UNL     1       7.307   7.186  16.799  0.00  0.00    -0.135 NA
ATOM     46  N   UNL     1       7.909   8.194  17.509  0.00  0.00    -0.138 NA
ATOM     47  C   UNL     1       8.281   7.701  18.667  0.00  0.00    +0.120 A 
ATOM     48  N   UNL     1       7.931   6.389  18.733  0.00  0.00    -0.320 N 
ATOM     49  H   UNL     1       8.789   8.239  19.457  0.00  0.00    +0.105 HD
BRANCH  48  50
ATOM     50  C   UNL     1       8.151   5.517  19.857  0.00  0.00    +0.014 C 
ATOM     51  H   UNL     1       8.814   4.706  19.533  0.00  0.00    +0.046 HD
ATOM     52  H   UNL     1       7.197   5.103  20.197  0.00  0.00    +0.046 HD
ATOM     53  H   UNL     1       8.611   6.087  20.667  0.00  0.00    +0.046 HD
ENDBRANCH  48  50
ENDBRANCH  41  44
ENDBRANCH  35  41
ENDBRANCH   1  35
TORSDOF 7
ENDMDL
MODEL 19
REMARK VINA RESULT:    -7.353      3.535      4.944
REMARK INTER + INTRA:         -10.344
REMARK INTER:                  -9.993
REMARK INTRA:                  -0.351
REMARK UNBOUND:                -0.413
REMARK  Name = 
REMARK  7 active torsions:
REMARK  status: ('A' for Active; 'I' for Inactive)
REMARK    1  A    between atoms: C_1  and  C_2
REMARK    2  A    between atoms: C_2  and  C_3
REMARK    3  A    between atoms: C_2  and  C_10
REMARK    4  A    between atoms: C_3  and  C_4
REMARK    5  A    between atoms: N_8  and  C_9
REMARK    6  A    between atoms: C_14  and  N_16
REMARK    7  A    between atoms: C_24  and  C_28
REMARK                            x       y       z     vdW  Elec       q    Type
REMARK                         _______ _______ _______ _____ _____    ______ ____
ROOT
ATOM      1  C   UNL     1      -0.421  11.200  21.091  0.00  0.00    -0.042 A 
ATOM      2  C   UNL     1      -0.923  12.200  20.245  0.00  0.00    -0.058 A 
ATOM      3  C   UNL     1      -0.663  12.163  18.874  0.00  0.00    -0.060 A 
ATOM      4  C   UNL     1       0.096  11.125  18.335  0.00  0.00    -0.040 A 
ATOM      5  C   UNL     1       0.600  10.112  19.157  0.00  0.00    +0.035 A 
ATOM      6  C   UNL     1       0.346  10.160  20.532  0.00  0.00    -0.037 A 
ATOM      7  H   UNL     1      -1.530  13.010  20.638  0.00  0.00    +0.062 HD
ATOM      8  H   UNL     1      -1.065  12.936  18.225  0.00  0.00    +0.062 HD
ATOM      9  H   UNL     1       0.278  11.118  17.263  0.00  0.00    +0.064 HD
ATOM     10  H   UNL     1       0.741   9.392  21.193  0.00  0.00    +0.064 HD
ENDROOT
BRANCH   5  11
ATOM     11  N   UNL     1       1.359   9.104  18.534  0.00  0.00    -0.269 N 
ATOM     12  C   UNL     1       2.019   8.039  19.143  0.00  0.00    +0.312 C 
ATOM     13  N   UNL     1       2.762   7.315  18.199  0.00  0.00    -0.234 N 
ATOM     14  C   UNL     1       3.839   8.019  17.497  0.00  0.00    +0.057 C 
ATOM     15  C   UNL     1       4.407   7.171  16.367  0.00  0.00    +0.106 C 
ATOM     16  O   UNL     1       4.913   5.926  16.859  0.00  0.00    -0.487 OA
ATOM     17  C   UNL     1       4.018   5.291  17.688  0.00  0.00    +0.161 A 
ATOM     18  C   UNL     1       4.212   3.921  17.859  0.00  0.00    -0.003 A 
ATOM     19  C   UNL     1       3.323   3.191  18.656  0.00  0.00    +0.076 A 
ATOM     20  C   UNL     1       2.264   3.881  19.227  0.00  0.00    +0.042 A 
ATOM     21  N   UNL     1       2.063   5.211  19.086  0.00  0.00    -0.236 NA
ATOM     22  C   UNL     1       2.957   5.919  18.359  0.00  0.00    +0.171 A 
ATOM     23  O   UNL     1       1.987   7.775  20.341  0.00  0.00    -0.252 OA
ATOM     24  H   UNL     1       1.197   8.958  17.550  0.00  0.00    +0.156 HD
ATOM     25  H   UNL     1       4.617   8.242  18.243  0.00  0.00    +0.050 HD
ATOM     26  H   UNL     1       3.474   8.973  17.101  0.00  0.00    +0.050 HD
ATOM     27  H   UNL     1       5.242   7.699  15.887  0.00  0.00    +0.071 HD
ATOM     28  H   UNL     1       3.653   6.973  15.592  0.00  0.00    +0.071 HD
ATOM     29  H   UNL     1       5.048   3.429  17.365  0.00  0.00    +0.066 HD
ATOM     30  H   UNL     1       1.519   3.377  19.842  0.00  0.00    +0.084 HD
BRANCH  19  31
ATOM     31  C   UNL     1       3.451   1.714  18.854  0.00  0.00    +0.419 C 
ATOM     32  F   UNL     1       3.827   1.052  17.728  0.00  0.00    -0.166 F 
ATOM     33  F   UNL     1       2.296   1.129  19.260  0.00  0.00    -0.166 F 
ATOM     34  F   UNL     1       4.380   1.402  19.793  0.00  0.00    -0.166 F 
ENDBRANCH  19  31
ENDBRANCH   5  11
BRANCH   1  35
ATOM     35  C   UNL     1      -0.703  11.209  22.591  0.00  0.00    -0.012 C 
ATOM     36  H   UNL     1      -0.034  11.943  23.064  0.00  0.00    +0.035 HD
BRANCH  35  37
ATOM     37  C   UNL     1      -0.355   9.841  23.196  0.00  0.00    -0.058 C 
ATOM     38  H   UNL     1       0.235   9.238  22.497  0.00  0.00    +0.024 HD
ATOM     39  H   UNL     1       0.222   9.939  24.123  0.00  0.00    +0.024 HD
ATOM     40  H   UNL     1      -1.266   9.274  23.427  0.00  0.00    +0.024 HD
ENDBRANCH  35  37
BRANCH  35  41
ATOM     41  C   UNL     1      -2.159  11.635  22.885  0.00  0.00    +0.014 C 
ATOM     42  H   UNL     1      -2.706  11.729  21.939  0.00  0.00    +0.035 HD
ATOM     43  H   UNL     1      -2.680  10.862  23.458  0.00  0.00    +0.035 HD
BRANCH  41  44
ATOM     44  C   UNL     1      -2.245  12.945  23.591  0.00  0.00    +0.134 A 
ATOM     45  N   UNL     1      -1.314  13.879  23.618  0.00  0.00    -0.135 NA
ATOM     46  N   UNL     1      -1.772  14.919  24.388  0.00  0.00    -0.138 NA
ATOM     47  C   UNL     1      -2.974  14.603  24.811  0.00  0.00    +0.120 A 
ATOM     48  N   UNL     1      -3.316  13.379  24.330  0.00  0.00    -0.320 N 
ATOM     49  H   UNL     1      -3.607  15.210  25.446  0.00  0.00    +0.105 HD
BRANCH  48  50
ATOM     50  C   UNL     1      -4.568  12.708  24.559  0.00  0.00    +0.014 C 
ATOM     51  H   UNL     1      -5.341  13.223  23.975  0.00  0.00    +0.046 HD
ATOM     52  H   UNL     1      -4.821  12.746  25.623  0.00  0.00    +0.046 HD
ATOM     53  H   UNL     1      -4.479  11.666  24.242  0.00  0.00    +0.046 HD
ENDBRANCH  48  50
ENDBRANCH  41  44
ENDBRANCH  35  41
ENDBRANCH   1  35
TORSDOF 7
ENDMDL
MODEL 20
REMARK VINA RESULT:    -7.315      3.462      4.933
REMARK INTER + INTRA:         -10.294
REMARK INTER:                  -9.447
REMARK INTRA:                  -0.847
REMARK UNBOUND:                -0.413
REMARK  Name = 
REMARK  7 active torsions:
REMARK  status: ('A' for Active; 'I' for Inactive)
REMARK    1  A    between atoms: C_1  and  C_2
REMARK    2  A    between atoms: C_2  and  C_3
REMARK    3  A    between atoms: C_2  and  C_10
REMARK    4  A    between atoms: C_3  and  C_4
REMARK    5  A    between atoms: N_8  and  C_9
REMARK    6  A    between atoms: C_14  and  N_16
REMARK    7  A    between atoms: C_24  and  C_28
REMARK                            x       y       z     vdW  Elec       q    Type
REMARK                         _______ _______ _______ _____ _____    ______ ____
ROOT
ATOM      1  C   UNL     1      -1.680  12.071  19.365  0.00  0.00    -0.042 A 
ATOM      2  C   UNL     1      -0.963  13.265  19.194  0.00  0.00    -0.058 A 
ATOM      3  C   UNL     1       0.371  13.236  18.786  0.00  0.00    -0.060 A 
ATOM      4  C   UNL     1       1.000  12.017  18.539  0.00  0.00    -0.040 A 
ATOM      5  C   UNL     1       0.303  10.814  18.694  0.00  0.00    +0.035 A 
ATOM      6  C   UNL     1      -1.031  10.848  19.114  0.00  0.00    -0.037 A 
ATOM      7  H   UNL     1      -1.435  14.228  19.365  0.00  0.00    +0.062 HD
ATOM      8  H   UNL     1       0.916  14.166  18.646  0.00  0.00    +0.062 HD
ATOM      9  H   UNL     1       2.039  12.024  18.216  0.00  0.00    +0.064 HD
ATOM     10  H   UNL     1      -1.587   9.924  19.256  0.00  0.00    +0.064 HD
ENDROOT
BRANCH   5  11
ATOM     11  N   UNL     1       1.012   9.627  18.427  0.00  0.00    -0.269 N 
ATOM     12  C   UNL     1       1.599   8.763  19.349  0.00  0.00    +0.312 C 
ATOM     13  N   UNL     1       2.314   7.752  18.691  0.00  0.00    -0.234 N 
ATOM     14  C   UNL     1       3.442   8.156  17.847  0.00  0.00    +0.057 C 
ATOM     15  C   UNL     1       3.978   6.980  17.043  0.00  0.00    +0.106 C 
ATOM     16  O   UNL     1       4.403   5.917  17.902  0.00  0.00    -0.487 OA
ATOM     17  C   UNL     1       3.457   5.607  18.853  0.00  0.00    +0.161 A 
ATOM     18  C   UNL     1       3.568   4.344  19.432  0.00  0.00    -0.003 A 
ATOM     19  C   UNL     1       2.625   3.934  20.381  0.00  0.00    +0.076 A 
ATOM     20  C   UNL     1       1.598   4.816  20.684  0.00  0.00    +0.042 A 
ATOM     21  N   UNL     1       1.478   6.051  20.144  0.00  0.00    -0.236 NA
ATOM     22  C   UNL     1       2.424   6.460  19.268  0.00  0.00    +0.171 A 
ATOM     23  O   UNL     1       1.531   8.874  20.569  0.00  0.00    -0.252 OA
ATOM     24  H   UNL     1       0.858   9.200  17.528  0.00  0.00    +0.156 HD
ATOM     25  H   UNL     1       4.219   8.554  18.517  0.00  0.00    +0.050 HD
ATOM     26  H   UNL     1       3.140   8.964  17.171  0.00  0.00    +0.050 HD
ATOM     27  H   UNL     1       4.850   7.295  16.455  0.00  0.00    +0.071 HD
ATOM     28  H   UNL     1       3.227   6.597  16.337  0.00  0.00    +0.071 HD
ATOM     29  H   UNL     1       4.382   3.684  19.137  0.00  0.00    +0.066 HD
ATOM     30  H   UNL     1       0.815   4.560  21.395  0.00  0.00    +0.084 HD
BRANCH  19  31
ATOM     31  C   UNL     1       2.663   2.581  21.017  0.00  0.00    +0.419 C 
ATOM     32  F   UNL     1       1.992   1.635  20.308  0.00  0.00    -0.166 F 
ATOM     33  F   UNL     1       2.123   2.562  22.262  0.00  0.00    -0.166 F 
ATOM     34  F   UNL     1       3.930   2.113  21.150  0.00  0.00    -0.166 F 
ENDBRANCH  19  31
ENDBRANCH   5  11
BRANCH   1  35
ATOM     35  C   UNL     1      -3.144  12.076  19.796  0.00  0.00    -0.012 C 
ATOM     36  H   UNL     1      -3.315  11.205  20.448  0.00  0.00    +0.035 HD
BRANCH  35  37
ATOM     37  C   UNL     1      -4.050  11.892  18.570  0.00  0.00    -0.058 C 
ATOM     38  H   UNL     1      -3.473  11.574  17.695  0.00  0.00    +0.024 HD
ATOM     39  H   UNL     1      -4.830  11.142  18.746  0.00  0.00    +0.024 HD
ATOM     40  H   UNL     1      -4.546  12.836  18.308  0.00  0.00    +0.024 HD
ENDBRANCH  35  37
BRANCH  35  41
ATOM     41  C   UNL     1      -3.488  13.348  20.603  0.00  0.00    +0.014 C 
ATOM     42  H   UNL     1      -2.602  13.994  20.652  0.00  0.00    +0.035 HD
ATOM     43  H   UNL     1      -4.259  13.933  20.094  0.00  0.00    +0.035 HD
BRANCH  41  44
ATOM     44  C   UNL     1      -3.908  13.048  22.002  0.00  0.00    +0.134 A 
ATOM     45  N   UNL     1      -5.147  12.997  22.449  0.00  0.00    -0.135 NA
ATOM     46  N   UNL     1      -5.107  12.711  23.791  0.00  0.00    -0.138 NA
ATOM     47  C   UNL     1      -3.846  12.586  24.135  0.00  0.00    +0.120 A 
ATOM     48  N   UNL     1      -3.058  12.781  23.045  0.00  0.00    -0.320 N 
ATOM     49  H   UNL     1      -3.474  12.365  25.127  0.00  0.00    +0.105 HD
BRANCH  48  50
ATOM     50  C   UNL     1      -1.622  12.700  23.023  0.00  0.00    +0.014 C 
ATOM     51  H   UNL     1      -1.338  11.649  23.162  0.00  0.00    +0.046 HD
ATOM     52  H   UNL     1      -1.203  13.307  23.832  0.00  0.00    +0.046 HD
ATOM     53  H   UNL     1      -1.257  13.071  22.062  0.00  0.00    +0.046 HD
ENDBRANCH  48  50
ENDBRANCH  41  44
ENDBRANCH  35  41
ENDBRANCH   1  35
TORSDOF 7
ENDMDL
MODEL 21
REMARK VINA RESULT:    -7.282      4.322      8.908
REMARK INTER + INTRA:         -10.249
REMARK INTER:                  -9.906
REMARK INTRA:                  -0.343
REMARK UNBOUND:                -0.413
REMARK  Name = 
REMARK  7 active torsions:
REMARK  status: ('A' for Active; 'I' for Inactive)
REMARK    1  A    between atoms: C_1  and  C_2
REMARK    2  A    between atoms: C_2  and  C_3
REMARK    3  A    between atoms: C_2  and  C_10
REMARK    4  A    between atoms: C_3  and  C_4
REMARK    5  A    between atoms: N_8  and  C_9
REMARK    6  A    between atoms: C_14  and  N_16
REMARK    7  A    between atoms: C_24  and  C_28
REMARK                            x       y       z     vdW  Elec       q    Type
REMARK                         _______ _______ _______ _____ _____    ______ ____
ROOT
ATOM      1  C   UNL     1       3.911   3.733  19.469  0.00  0.00    -0.042 A 
ATOM      2  C   UNL     1       3.607   2.597  20.233  0.00  0.00    -0.058 A 
ATOM      3  C   UNL     1       2.656   2.663  21.252  0.00  0.00    -0.060 A 
ATOM      4  C   UNL     1       1.996   3.863  21.513  0.00  0.00    -0.040 A 
ATOM      5  C   UNL     1       2.275   5.007  20.759  0.00  0.00    +0.035 A 
ATOM      6  C   UNL     1       3.238   4.937  19.746  0.00  0.00    -0.037 A 
ATOM      7  H   UNL     1       4.097   1.646  20.039  0.00  0.00    +0.062 HD
ATOM      8  H   UNL     1       2.419   1.775  21.832  0.00  0.00    +0.062 HD
ATOM      9  H   UNL     1       1.254   3.885  22.309  0.00  0.00    +0.064 HD
ATOM     10  H   UNL     1       3.483   5.819  19.158  0.00  0.00    +0.064 HD
ENDROOT
BRANCH   5  11
ATOM     11  N   UNL     1       1.567   6.178  21.090  0.00  0.00    -0.269 N 
ATOM     12  C   UNL     1       1.680   7.434  20.500  0.00  0.00    +0.312 C 
ATOM     13  N   UNL     1       0.892   8.372  21.182  0.00  0.00    -0.234 N 
ATOM     14  C   UNL     1       1.210   8.633  22.589  0.00  0.00    +0.057 C 
ATOM     15  C   UNL     1       0.148   9.506  23.242  0.00  0.00    +0.106 C 
ATOM     16  O   UNL     1       0.014  10.756  22.560  0.00  0.00    -0.487 OA
ATOM     17  C   UNL     1      -0.101  10.596  21.198  0.00  0.00    +0.161 A 
ATOM     18  C   UNL     1      -0.664  11.667  20.505  0.00  0.00    -0.003 A 
ATOM     19  C   UNL     1      -0.852  11.572  19.121  0.00  0.00    +0.076 A 
ATOM     20  C   UNL     1      -0.480  10.386  18.506  0.00  0.00    +0.042 A 
ATOM     21  N   UNL     1       0.079   9.340  19.156  0.00  0.00    -0.236 NA
ATOM     22  C   UNL     1       0.308   9.460  20.483  0.00  0.00    +0.171 A 
ATOM     23  O   UNL     1       2.388   7.704  19.535  0.00  0.00    -0.252 OA
ATOM     24  H   UNL     1       0.707   6.057  21.601  0.00  0.00    +0.156 HD
ATOM     25  H   UNL     1       2.190   9.135  22.609  0.00  0.00    +0.050 HD
ATOM     26  H   UNL     1       1.309   7.690  23.137  0.00  0.00    +0.050 HD
ATOM     27  H   UNL     1       0.431   9.726  24.280  0.00  0.00    +0.071 HD
ATOM     28  H   UNL     1      -0.829   9.002  23.268  0.00  0.00    +0.071 HD
ATOM     29  H   UNL     1      -0.959  12.565  21.045  0.00  0.00    +0.066 HD
ATOM     30  H   UNL     1      -0.616  10.229  17.437  0.00  0.00    +0.084 HD
BRANCH  19  31
ATOM     31  C   UNL     1      -1.480  12.668  18.321  0.00  0.00    +0.419 C 
ATOM     32  F   UNL     1      -2.325  12.213  17.358  0.00  0.00    -0.166 F 
ATOM     33  F   UNL     1      -0.573  13.446  17.679  0.00  0.00    -0.166 F 
ATOM     34  F   UNL     1      -2.217  13.508  19.091  0.00  0.00    -0.166 F 
ENDBRANCH  19  31
ENDBRANCH   5  11
BRANCH   1  35
ATOM     35  C   UNL     1       4.936   3.683  18.340  0.00  0.00    -0.012 C 
ATOM     36  H   UNL     1       5.356   2.666  18.298  0.00  0.00    +0.035 HD
BRANCH  35  37
ATOM     37  C   UNL     1       6.106   4.628  18.653  0.00  0.00    -0.058 C 
ATOM     38  H   UNL     1       6.636   4.315  19.560  0.00  0.00    +0.024 HD
ATOM     39  H   UNL     1       6.834   4.663  17.835  0.00  0.00    +0.024 HD
ATOM     40  H   UNL     1       5.744   5.651  18.824  0.00  0.00    +0.024 HD
ENDBRANCH  35  37
BRANCH  35  41
ATOM     41  C   UNL     1       4.281   3.983  16.973  0.00  0.00    +0.014 C 
ATOM     42  H   UNL     1       3.683   3.116  16.662  0.00  0.00    +0.035 HD
ATOM     43  H   UNL     1       3.579   4.817  17.055  0.00  0.00    +0.035 HD
BRANCH  41  44
ATOM     44  C   UNL     1       5.280   4.253  15.901  0.00  0.00    +0.134 A 
ATOM     45  N   UNL     1       6.003   3.353  15.264  0.00  0.00    -0.135 NA
ATOM     46  N   UNL     1       6.812   4.008  14.369  0.00  0.00    -0.138 NA
ATOM     47  C   UNL     1       6.563   5.293  14.471  0.00  0.00    +0.120 A 
ATOM     48  N   UNL     1       5.604   5.494  15.414  0.00  0.00    -0.320 N 
ATOM     49  H   UNL     1       7.039   6.083  13.905  0.00  0.00    +0.105 HD
BRANCH  48  50
ATOM     50  C   UNL     1       5.050   6.769  15.789  0.00  0.00    +0.014 C 
ATOM     51  H   UNL     1       4.991   7.392  14.888  0.00  0.00    +0.046 HD
ATOM     52  H   UNL     1       5.696   7.249  16.530  0.00  0.00    +0.046 HD
ATOM     53  H   UNL     1       4.056   6.616  16.215  0.00  0.00    +0.046 HD
ENDBRANCH  48  50
ENDBRANCH  41  44
ENDBRANCH  35  41
ENDBRANCH   1  35
TORSDOF 7
ENDMDL
MODEL 22
REMARK VINA RESULT:    -7.182      6.144     10.291
REMARK INTER + INTRA:         -10.114
REMARK INTER:                  -9.528
REMARK INTRA:                  -0.586
REMARK UNBOUND:                -0.413
REMARK  Name = 
REMARK  7 active torsions:
REMARK  status: ('A' for Active; 'I' for Inactive)
REMARK    1  A    between atoms: C_1  and  C_2
REMARK    2  A    between atoms: C_2  and  C_3
REMARK    3  A    between atoms: C_2  and  C_10
REMARK    4  A    between atoms: C_3  and  C_4
REMARK    5  A    between atoms: N_8  and  C_9
REMARK    6  A    between atoms: C_14  and  N_16
REMARK    7  A    between atoms: C_24  and  C_28
REMARK                            x       y       z     vdW  Elec       q    Type
REMARK                         _______ _______ _______ _____ _____    ______ ____
ROOT
ATOM      1  C   UNL     1       2.352   7.057  19.477  0.00  0.00    -0.042 A 
ATOM      2  C   UNL     1       2.795   7.043  18.146  0.00  0.00    -0.058 A 
ATOM      3  C   UNL     1       2.637   8.167  17.336  0.00  0.00    -0.060 A 
ATOM      4  C   UNL     1       2.040   9.318  17.848  0.00  0.00    -0.040 A 
ATOM      5  C   UNL     1       1.598   9.360  19.174  0.00  0.00    +0.035 A 
ATOM      6  C   UNL     1       1.749   8.226  19.979  0.00  0.00    -0.037 A 
ATOM      7  H   UNL     1       3.277   6.163  17.728  0.00  0.00    +0.062 HD
ATOM      8  H   UNL     1       2.993   8.151  16.309  0.00  0.00    +0.062 HD
ATOM      9  H   UNL     1       1.936  10.183  17.196  0.00  0.00    +0.064 HD
ATOM     10  H   UNL     1       1.399   8.230  21.008  0.00  0.00    +0.064 HD
ENDROOT
BRANCH   5  11
ATOM     11  N   UNL     1       1.004  10.559  19.611  0.00  0.00    -0.269 N 
ATOM     12  C   UNL     1      -0.289  10.739  20.095  0.00  0.00    +0.312 C 
ATOM     13  N   UNL     1      -0.547  12.099  20.319  0.00  0.00    -0.234 N 
ATOM     14  C   UNL     1      -0.493  13.001  19.165  0.00  0.00    +0.057 C 
ATOM     15  C   UNL     1      -0.585  14.457  19.599  0.00  0.00    +0.106 C 
ATOM     16  O   UNL     1      -1.794  14.707  20.323  0.00  0.00    -0.487 OA
ATOM     17  C   UNL     1      -2.009  13.776  21.313  0.00  0.00    +0.161 A 
ATOM     18  C   UNL     1      -2.882  14.159  22.330  0.00  0.00    -0.003 A 
ATOM     19  C   UNL     1      -3.127  13.286  23.396  0.00  0.00    +0.076 A 
ATOM     20  C   UNL     1      -2.458  12.071  23.393  0.00  0.00    +0.042 A 
ATOM     21  N   UNL     1      -1.617  11.673  22.412  0.00  0.00    -0.236 NA
ATOM     22  C   UNL     1      -1.427  12.499  21.358  0.00  0.00    +0.171 A 
ATOM     23  O   UNL     1      -1.110   9.845  20.278  0.00  0.00    -0.252 OA
ATOM     24  H   UNL     1       1.629  11.307  19.867  0.00  0.00    +0.156 HD
ATOM     25  H   UNL     1      -1.338  12.737  18.511  0.00  0.00    +0.050 HD
ATOM     26  H   UNL     1       0.430  12.837  18.598  0.00  0.00    +0.050 HD
ATOM     27  H   UNL     1      -0.590  15.111  18.716  0.00  0.00    +0.071 HD
ATOM     28  H   UNL     1       0.275  14.749  20.219  0.00  0.00    +0.071 HD
ATOM     29  H   UNL     1      -3.360  15.136  22.291  0.00  0.00    +0.066 HD
ATOM     30  H   UNL     1      -2.580  11.350  24.199  0.00  0.00    +0.084 HD
BRANCH  19  31
ATOM     31  C   UNL     1      -4.025  13.646  24.536  0.00  0.00    +0.419 C 
ATOM     32  F   UNL     1      -5.147  14.309  24.149  0.00  0.00    -0.166 F 
ATOM     33  F   UNL     1      -3.424  14.442  25.456  0.00  0.00    -0.166 F 
ATOM     34  F   UNL     1      -4.458  12.552  25.213  0.00  0.00    -0.166 F 
ENDBRANCH  19  31
ENDBRANCH   5  11
BRANCH   1  35
ATOM     35  C   UNL     1       2.526   5.846  20.388  0.00  0.00    -0.012 C 
ATOM     36  H   UNL     1       2.703   6.206  21.413  0.00  0.00    +0.035 HD
BRANCH  35  37
ATOM     37  C   UNL     1       3.779   5.058  19.977  0.00  0.00    -0.058 C 
ATOM     38  H   UNL     1       3.745   4.785  18.917  0.00  0.00    +0.024 HD
ATOM     39  H   UNL     1       4.697   5.633  20.145  0.00  0.00    +0.024 HD
ATOM     40  H   UNL     1       3.858   4.125  20.552  0.00  0.00    +0.024 HD
ENDBRANCH  35  37
BRANCH  35  41
ATOM     41  C   UNL     1       1.253   4.969  20.406  0.00  0.00    +0.014 C 
ATOM     42  H   UNL     1       0.989   4.739  21.446  0.00  0.00    +0.035 HD
ATOM     43  H   UNL     1       0.401   5.516  19.994  0.00  0.00    +0.035 HD
BRANCH  41  44
ATOM     44  C   UNL     1       1.433   3.676  19.687  0.00  0.00    +0.134 A 
ATOM     45  N   UNL     1       1.328   3.486  18.387  0.00  0.00    -0.135 NA
ATOM     46  N   UNL     1       1.546   2.155  18.129  0.00  0.00    -0.138 NA
ATOM     47  C   UNL     1       1.786   1.561  19.274  0.00  0.00    +0.120 A 
ATOM     48  N   UNL     1       1.735   2.475  20.279  0.00  0.00    -0.320 N 
ATOM     49  H   UNL     1       1.994   0.508  19.415  0.00  0.00    +0.105 HD
BRANCH  48  50
ATOM     50  C   UNL     1       1.970   2.205  21.672  0.00  0.00    +0.014 C 
ATOM     51  H   UNL     1       1.308   1.384  21.975  0.00  0.00    +0.046 HD
ATOM     52  H   UNL     1       1.749   3.098  22.266  0.00  0.00    +0.046 HD
ATOM     53  H   UNL     1       3.016   1.923  21.811  0.00  0.00    +0.046 HD
ENDBRANCH  48  50
ENDBRANCH  41  44
ENDBRANCH  35  41
ENDBRANCH   1  35
TORSDOF 7
ENDMDL
MODEL 23
REMARK VINA RESULT:    -7.151      4.526      9.315
REMARK INTER + INTRA:         -10.072
REMARK INTER:                  -9.600
REMARK INTRA:                  -0.472
REMARK UNBOUND:                -0.413
REMARK  Name = 
REMARK  7 active torsions:
REMARK  status: ('A' for Active; 'I' for Inactive)
REMARK    1  A    between atoms: C_1  and  C_2
REMARK    2  A    between atoms: C_2  and  C_3
REMARK    3  A    between atoms: C_2  and  C_10
REMARK    4  A    between atoms: C_3  and  C_4
REMARK    5  A    between atoms: N_8  and  C_9
REMARK    6  A    between atoms: C_14  and  N_16
REMARK    7  A    between atoms: C_24  and  C_28
REMARK                            x       y       z     vdW  Elec       q    Type
REMARK                         _______ _______ _______ _____ _____    ______ ____
ROOT
ATOM      1  C   UNL     1       4.699   4.154  17.057  0.00  0.00    -0.042 A 
ATOM      2  C   UNL     1       3.976   2.964  16.892  0.00  0.00    -0.058 A 
ATOM      3  C   UNL     1       2.688   2.839  17.415  0.00  0.00    -0.060 A 
ATOM      4  C   UNL     1       2.108   3.905  18.102  0.00  0.00    -0.040 A 
ATOM      5  C   UNL     1       2.805   5.105  18.271  0.00  0.00    +0.035 A 
ATOM      6  C   UNL     1       4.101   5.221  17.755  0.00  0.00    -0.037 A 
ATOM      7  H   UNL     1       4.400   2.125  16.348  0.00  0.00    +0.062 HD
ATOM      8  H   UNL     1       2.132   1.917  17.273  0.00  0.00    +0.062 HD
ATOM      9  H   UNL     1       1.100   3.783  18.493  0.00  0.00    +0.064 HD
ATOM     10  H   UNL     1       4.667   6.139  17.889  0.00  0.00    +0.064 HD
ENDROOT
BRANCH   5  11
ATOM     11  N   UNL     1       2.149   6.130  18.980  0.00  0.00    -0.269 N 
ATOM     12  C   UNL     1       2.383   7.500  18.902  0.00  0.00    +0.312 C 
ATOM     13  N   UNL     1       1.607   8.187  19.847  0.00  0.00    -0.234 N 
ATOM     14  C   UNL     1       1.838   7.888  21.263  0.00  0.00    +0.057 C 
ATOM     15  C   UNL     1       0.787   8.548  22.145  0.00  0.00    +0.106 C 
ATOM     16  O   UNL     1       0.781   9.968  21.968  0.00  0.00    -0.487 OA
ATOM     17  C   UNL     1       0.756  10.327  20.640  0.00  0.00    +0.161 A 
ATOM     18  C   UNL     1       0.312  11.621  20.368  0.00  0.00    -0.003 A 
ATOM     19  C   UNL     1       0.220  12.054  19.040  0.00  0.00    +0.076 A 
ATOM     20  C   UNL     1       0.560  11.148  18.047  0.00  0.00    +0.042 A 
ATOM     21  N   UNL     1       1.005   9.893  18.288  0.00  0.00    -0.236 NA
ATOM     22  C   UNL     1       1.143   9.500  19.575  0.00  0.00    +0.171 A 
ATOM     23  O   UNL     1       3.174   8.044  18.138  0.00  0.00    -0.252 OA
ATOM     24  H   UNL     1       1.248   5.904  19.371  0.00  0.00    +0.156 HD
ATOM     25  H   UNL     1       2.843   8.263  21.511  0.00  0.00    +0.050 HD
ATOM     26  H   UNL     1       1.838   6.805  21.427  0.00  0.00    +0.050 HD
ATOM     27  H   UNL     1       1.007   8.349  23.202  0.00  0.00    +0.071 HD
ATOM     28  H   UNL     1      -0.218   8.154  21.939  0.00  0.00    +0.071 HD
ATOM     29  H   UNL     1       0.035  12.280  21.188  0.00  0.00    +0.066 HD
ATOM     30  H   UNL     1       0.492  11.405  16.991  0.00  0.00    +0.084 HD
BRANCH  19  31
ATOM     31  C   UNL     1      -0.280  13.416  18.675  0.00  0.00    +0.419 C 
ATOM     32  F   UNL     1       0.679  14.376  18.745  0.00  0.00    -0.166 F 
ATOM     33  F   UNL     1      -1.291  13.844  19.471  0.00  0.00    -0.166 F 
ATOM     34  F   UNL     1      -0.757  13.463  17.405  0.00  0.00    -0.166 F 
ENDBRANCH  19  31
ENDBRANCH   5  11
BRANCH   1  35
ATOM     35  C   UNL     1       6.103   4.321  16.483  0.00  0.00    -0.012 C 
ATOM     36  H   UNL     1       6.457   3.336  16.144  0.00  0.00    +0.035 HD
BRANCH  35  37
ATOM     37  C   UNL     1       7.068   4.780  17.586  0.00  0.00    -0.058 C 
ATOM     38  H   UNL     1       6.972   5.855  17.774  0.00  0.00    +0.024 HD
ATOM     39  H   UNL     1       6.886   4.257  18.533  0.00  0.00    +0.024 HD
ATOM     40  H   UNL     1       8.110   4.592  17.295  0.00  0.00    +0.024 HD
ENDBRANCH  35  37
BRANCH  35  41
ATOM     41  C   UNL     1       6.102   5.270  15.263  0.00  0.00    +0.014 C 
ATOM     42  H   UNL     1       5.170   5.850  15.259  0.00  0.00    +0.035 HD
ATOM     43  H   UNL     1       6.911   6.001  15.341  0.00  0.00    +0.035 HD
BRANCH  41  44
ATOM     44  C   UNL     1       6.189   4.542  13.966  0.00  0.00    +0.134 A 
ATOM     45  N   UNL     1       5.337   3.640  13.519  0.00  0.00    -0.135 NA
ATOM     46  N   UNL     1       5.782   3.196  12.299  0.00  0.00    -0.138 NA
ATOM     47  C   UNL     1       6.892   3.840  12.021  0.00  0.00    +0.120 A 
ATOM     48  N   UNL     1       7.182   4.700  13.033  0.00  0.00    -0.320 N 
ATOM     49  H   UNL     1       7.495   3.716  11.131  0.00  0.00    +0.105 HD
BRANCH  48  50
ATOM     50  C   UNL     1       8.308   5.595  13.076  0.00  0.00    +0.014 C 
ATOM     51  H   UNL     1       7.958   6.595  12.794  0.00  0.00    +0.046 HD
ATOM     52  H   UNL     1       9.076   5.259  12.373  0.00  0.00    +0.046 HD
ATOM     53  H   UNL     1       8.719   5.605  14.089  0.00  0.00    +0.046 HD
ENDBRANCH  48  50
ENDBRANCH  41  44
ENDBRANCH  35  41
ENDBRANCH   1  35
TORSDOF 7
ENDMDL
MODEL 24
REMARK VINA RESULT:    -7.138      5.237      9.949
REMARK INTER + INTRA:         -10.055
REMARK INTER:                  -9.502
REMARK INTRA:                  -0.552
REMARK UNBOUND:                -0.413
REMARK  Name = 
REMARK  7 active torsions:
REMARK  status: ('A' for Active; 'I' for Inactive)
REMARK    1  A    between atoms: C_1  and  C_2
REMARK    2  A    between atoms: C_2  and  C_3
REMARK    3  A    between atoms: C_2  and  C_10
REMARK    4  A    between atoms: C_3  and  C_4
REMARK    5  A    between atoms: N_8  and  C_9
REMARK    6  A    between atoms: C_14  and  N_16
REMARK    7  A    between atoms: C_24  and  C_28
REMARK                            x       y       z     vdW  Elec       q    Type
REMARK                         _______ _______ _______ _____ _____    ______ ____
ROOT
ATOM      1  C   UNL     1       4.485   5.686  16.612  0.00  0.00    -0.042 A 
ATOM      2  C   UNL     1       3.942   4.658  17.397  0.00  0.00    -0.058 A 
ATOM      3  C   UNL     1       3.066   4.954  18.443  0.00  0.00    -0.060 A 
ATOM      4  C   UNL     1       2.721   6.277  18.710  0.00  0.00    -0.040 A 
ATOM      5  C   UNL     1       3.242   7.319  17.936  0.00  0.00    +0.035 A 
ATOM      6  C   UNL     1       4.128   7.018  16.896  0.00  0.00    -0.037 A 
ATOM      7  H   UNL     1       4.183   3.618  17.198  0.00  0.00    +0.062 HD
ATOM      8  H   UNL     1       2.642   4.150  19.039  0.00  0.00    +0.062 HD
ATOM      9  H   UNL     1       2.031   6.479  19.527  0.00  0.00    +0.064 HD
ATOM     10  H   UNL     1       4.558   7.812  16.291  0.00  0.00    +0.064 HD
ENDROOT
BRANCH   5  11
ATOM     11  N   UNL     1       2.845   8.626  18.275  0.00  0.00    -0.269 N 
ATOM     12  C   UNL     1       1.612   9.228  18.035  0.00  0.00    +0.312 C 
ATOM     13  N   UNL     1       1.640  10.577  18.416  0.00  0.00    -0.234 N 
ATOM     14  C   UNL     1       2.584  11.460  17.725  0.00  0.00    +0.057 C 
ATOM     15  C   UNL     1       2.645  12.829  18.387  0.00  0.00    +0.106 C 
ATOM     16  O   UNL     1       1.358  13.454  18.404  0.00  0.00    -0.487 OA
ATOM     17  C   UNL     1       0.376  12.610  18.870  0.00  0.00    +0.161 A 
ATOM     18  C   UNL     1      -0.785  13.225  19.336  0.00  0.00    -0.003 A 
ATOM     19  C   UNL     1      -1.818  12.442  19.862  0.00  0.00    +0.076 A 
ATOM     20  C   UNL     1      -1.618  11.071  19.913  0.00  0.00    +0.042 A 
ATOM     21  N   UNL     1      -0.506  10.451  19.457  0.00  0.00    -0.236 NA
ATOM     22  C   UNL     1       0.465  11.210  18.900  0.00  0.00    +0.171 A 
ATOM     23  O   UNL     1       0.637   8.676  17.534  0.00  0.00    -0.252 OA
ATOM     24  H   UNL     1       3.377   9.089  18.994  0.00  0.00    +0.156 HD
ATOM     25  H   UNL     1       2.238  11.548  16.684  0.00  0.00    +0.050 HD
ATOM     26  H   UNL     1       3.582  11.009  17.706  0.00  0.00    +0.050 HD
ATOM     27  H   UNL     1       3.322  13.487  17.825  0.00  0.00    +0.071 HD
ATOM     28  H   UNL     1       3.029  12.764  19.415  0.00  0.00    +0.071 HD
ATOM     29  H   UNL     1      -0.876  14.309  19.293  0.00  0.00    +0.066 HD
ATOM     30  H   UNL     1      -2.367  10.399  20.330  0.00  0.00    +0.084 HD
BRANCH  19  31
ATOM     31  C   UNL     1      -3.076  13.037  20.410  0.00  0.00    +0.419 C 
ATOM     32  F   UNL     1      -3.055  14.396  20.449  0.00  0.00    -0.166 F 
ATOM     33  F   UNL     1      -3.348  12.636  21.677  0.00  0.00    -0.166 F 
ATOM     34  F   UNL     1      -4.165  12.707  19.669  0.00  0.00    -0.166 F 
ENDBRANCH  19  31
ENDBRANCH   5  11
BRANCH   1  35
ATOM     35  C   UNL     1       5.432   5.388  15.453  0.00  0.00    -0.012 C 
ATOM     36  H   UNL     1       5.005   5.822  14.537  0.00  0.00    +0.035 HD
BRANCH  35  37
ATOM     37  C   UNL     1       5.518   3.872  15.223  0.00  0.00    -0.058 C 
ATOM     38  H   UNL     1       4.639   3.504  14.682  0.00  0.00    +0.024 HD
ATOM     39  H   UNL     1       6.407   3.595  14.645  0.00  0.00    +0.024 HD
ATOM     40  H   UNL     1       5.560   3.335  16.181  0.00  0.00    +0.024 HD
ENDBRANCH  35  37
BRANCH  35  41
ATOM     41  C   UNL     1       6.818   6.033  15.682  0.00  0.00    +0.014 C 
ATOM     42  H   UNL     1       7.549   5.564  15.011  0.00  0.00    +0.035 HD
ATOM     43  H   UNL     1       6.801   7.093  15.413  0.00  0.00    +0.035 HD
BRANCH  41  44
ATOM     44  C   UNL     1       7.310   5.863  17.079  0.00  0.00    +0.134 A 
ATOM     45  N   UNL     1       7.490   4.718  17.708  0.00  0.00    -0.135 NA
ATOM     46  N   UNL     1       7.934   4.992  18.978  0.00  0.00    -0.138 NA
ATOM     47  C   UNL     1       8.022   6.296  19.097  0.00  0.00    +0.120 A 
ATOM     48  N   UNL     1       7.650   6.884  17.929  0.00  0.00    -0.320 N 
ATOM     49  H   UNL     1       8.339   6.837  19.980  0.00  0.00    +0.105 HD
BRANCH  48  50
ATOM     50  C   UNL     1       7.640   8.299  17.668  0.00  0.00    +0.014 C 
ATOM     51  H   UNL     1       7.126   8.795  18.501  0.00  0.00    +0.046 HD
ATOM     52  H   UNL     1       7.108   8.500  16.733  0.00  0.00    +0.046 HD
ATOM     53  H   UNL     1       8.669   8.655  17.586  0.00  0.00    +0.046 HD
ENDBRANCH  48  50
ENDBRANCH  41  44
ENDBRANCH  35  41
ENDBRANCH   1  35
TORSDOF 7
ENDMDL
MODEL 25
REMARK VINA RESULT:    -7.055      1.541      2.212
REMARK INTER + INTRA:          -9.943
REMARK INTER:                  -8.996
REMARK INTRA:                  -0.946
REMARK UNBOUND:                -0.413
REMARK  Name = 
REMARK  7 active torsions:
REMARK  status: ('A' for Active; 'I' for Inactive)
REMARK    1  A    between atoms: C_1  and  C_2
REMARK    2  A    between atoms: C_2  and  C_3
REMARK    3  A    between atoms: C_2  and  C_10
REMARK    4  A    between atoms: C_3  and  C_4
REMARK    5  A    between atoms: N_8  and  C_9
REMARK    6  A    between atoms: C_14  and  N_16
REMARK    7  A    between atoms: C_24  and  C_28
REMARK                            x       y       z     vdW  Elec       q    Type
REMARK                         _______ _______ _______ _____ _____    ______ ____
ROOT
ATOM      1  C   UNL     1      -0.787  12.465  19.751  0.00  0.00    -0.042 A 
ATOM      2  C   UNL     1       0.103  13.520  19.505  0.00  0.00    -0.058 A 
ATOM      3  C   UNL     1       1.465  13.270  19.326  0.00  0.00    -0.060 A 
ATOM      4  C   UNL     1       1.948  11.964  19.385  0.00  0.00    -0.040 A 
ATOM      5  C   UNL     1       1.078  10.894  19.620  0.00  0.00    +0.035 A 
ATOM      6  C   UNL     1      -0.284  11.152  19.810  0.00  0.00    -0.037 A 
ATOM      7  H   UNL     1      -0.251  14.545  19.439  0.00  0.00    +0.062 HD
ATOM      8  H   UNL     1       2.146  14.093  19.125  0.00  0.00    +0.062 HD
ATOM      9  H   UNL     1       3.012  11.797  19.236  0.00  0.00    +0.064 HD
ATOM     10  H   UNL     1      -0.976  10.337  20.010  0.00  0.00    +0.064 HD
ENDROOT
BRANCH   5  11
ATOM     11  N   UNL     1       1.648   9.608  19.668  0.00  0.00    -0.269 N 
ATOM     12  C   UNL     1       1.856   8.731  18.606  0.00  0.00    +0.312 C 
ATOM     13  N   UNL     1       2.340   7.500  19.070  0.00  0.00    -0.234 N 
ATOM     14  C   UNL     1       1.482   6.730  19.976  0.00  0.00    +0.057 C 
ATOM     15  C   UNL     1       2.224   5.533  20.554  0.00  0.00    +0.106 C 
ATOM     16  O   UNL     1       2.695   4.666  19.517  0.00  0.00    -0.487 OA
ATOM     17  C   UNL     1       3.354   5.354  18.524  0.00  0.00    +0.161 A 
ATOM     18  C   UNL     1       4.210   4.597  17.725  0.00  0.00    -0.003 A 
ATOM     19  C   UNL     1       4.949   5.224  16.716  0.00  0.00    +0.076 A 
ATOM     20  C   UNL     1       4.803   6.596  16.577  0.00  0.00    +0.042 A 
ATOM     21  N   UNL     1       3.970   7.349  17.332  0.00  0.00    -0.236 NA
ATOM     22  C   UNL     1       3.219   6.727  18.269  0.00  0.00    +0.171 A 
ATOM     23  O   UNL     1       1.627   8.978  17.426  0.00  0.00    -0.252 OA
ATOM     24  H   UNL     1       2.211   9.392  20.475  0.00  0.00    +0.156 HD
ATOM     25  H   UNL     1       0.610   6.400  19.390  0.00  0.00    +0.050 HD
ATOM     26  H   UNL     1       1.115   7.370  20.786  0.00  0.00    +0.050 HD
ATOM     27  H   UNL     1       1.548   4.946  21.191  0.00  0.00    +0.071 HD
ATOM     28  H   UNL     1       3.073   5.846  21.177  0.00  0.00    +0.071 HD
ATOM     29  H   UNL     1       4.303   3.526  17.897  0.00  0.00    +0.066 HD
ATOM     30  H   UNL     1       5.361   7.158  15.830  0.00  0.00    +0.084 HD
BRANCH  19  31
ATOM     31  C   UNL     1       5.910   4.480  15.845  0.00  0.00    +0.419 C 
ATOM     32  F   UNL     1       5.841   4.841  14.537  0.00  0.00    -0.166 F 
ATOM     33  F   UNL     1       5.720   3.137  15.868  0.00  0.00    -0.166 F 
ATOM     34  F   UNL     1       7.200   4.682  16.216  0.00  0.00    -0.166 F 
ENDBRANCH  19  31
ENDBRANCH   5  11
BRANCH   1  35
ATOM     35  C   UNL     1      -2.282  12.710  19.935  0.00  0.00    -0.012 C 
ATOM     36  H   UNL     1      -2.596  13.486  19.220  0.00  0.00    +0.035 HD
BRANCH  35  37
ATOM     37  C   UNL     1      -2.551  13.272  21.339  0.00  0.00    -0.058 C 
ATOM     38  H   UNL     1      -1.626  13.336  21.923  0.00  0.00    +0.024 HD
ATOM     39  H   UNL     1      -2.993  14.274  21.302  0.00  0.00    +0.024 HD
ATOM     40  H   UNL     1      -3.242  12.622  21.893  0.00  0.00    +0.024 HD
ENDBRANCH  35  37
BRANCH  35  41
ATOM     41  C   UNL     1      -3.101  11.433  19.639  0.00  0.00    +0.014 C 
ATOM     42  H   UNL     1      -2.433  10.563  19.665  0.00  0.00    +0.035 HD
ATOM     43  H   UNL     1      -3.846  11.262  20.421  0.00  0.00    +0.035 HD
BRANCH  41  44
ATOM     44  C   UNL     1      -3.756  11.464  18.301  0.00  0.00    +0.134 A 
ATOM     45  N   UNL     1      -4.869  12.101  17.992  0.00  0.00    -0.135 NA
ATOM     46  N   UNL     1      -5.145  11.864  16.669  0.00  0.00    -0.138 NA
ATOM     47  C   UNL     1      -4.193  11.095  16.193  0.00  0.00    +0.120 A 
ATOM     48  N   UNL     1      -3.295  10.825  17.178  0.00  0.00    -0.320 N 
ATOM     49  H   UNL     1      -4.119  10.723  15.180  0.00  0.00    +0.105 HD
BRANCH  48  50
ATOM     50  C   UNL     1      -2.102  10.034  17.032  0.00  0.00    +0.014 C 
ATOM     51  H   UNL     1      -1.705   9.830  18.034  0.00  0.00    +0.046 HD
ATOM     52  H   UNL     1      -1.361  10.585  16.444  0.00  0.00    +0.046 HD
ATOM     53  H   UNL     1      -2.352   9.101  16.521  0.00  0.00    +0.046 HD
ENDBRANCH  48  50
ENDBRANCH  41  44
ENDBRANCH  35  41
ENDBRANCH   1  35
TORSDOF 7
ENDMDL
MODEL 26
REMARK VINA RESULT:    -7.021      1.961      2.762
REMARK INTER + INTRA:          -9.897
REMARK INTER:                  -9.116
REMARK INTRA:                  -0.781
REMARK UNBOUND:                -0.413
REMARK  Name = 
REMARK  7 active torsions:
REMARK  status: ('A' for Active; 'I' for Inactive)
REMARK    1  A    between atoms: C_1  and  C_2
REMARK    2  A    between atoms: C_2  and  C_3
REMARK    3  A    between atoms: C_2  and  C_10
REMARK    4  A    between atoms: C_3  and  C_4
REMARK    5  A    between atoms: N_8  and  C_9
REMARK    6  A    between atoms: C_14  and  N_16
REMARK    7  A    between atoms: C_24  and  C_28
REMARK                            x       y       z     vdW  Elec       q    Type
REMARK                         _______ _______ _______ _____ _____    ______ ____
ROOT
ATOM      1  C   UNL     1       0.375   9.747  19.481  0.00  0.00    -0.042 A 
ATOM      2  C   UNL     1      -0.156   9.226  20.670  0.00  0.00    -0.058 A 
ATOM      3  C   UNL     1       0.457   8.144  21.303  0.00  0.00    -0.060 A 
ATOM      4  C   UNL     1       1.609   7.577  20.759  0.00  0.00    -0.040 A 
ATOM      5  C   UNL     1       2.162   8.086  19.580  0.00  0.00    +0.035 A 
ATOM      6  C   UNL     1       1.537   9.163  18.943  0.00  0.00    -0.037 A 
ATOM      7  H   UNL     1      -1.044   9.659  21.122  0.00  0.00    +0.062 HD
ATOM      8  H   UNL     1       0.045   7.753  22.230  0.00  0.00    +0.062 HD
ATOM      9  H   UNL     1       2.070   6.739  21.278  0.00  0.00    +0.064 HD
ATOM     10  H   UNL     1       1.941   9.565  18.016  0.00  0.00    +0.064 HD
ENDROOT
BRANCH   5  11
ATOM     11  N   UNL     1       3.323   7.454  19.096  0.00  0.00    -0.269 N 
ATOM     12  C   UNL     1       3.402   6.398  18.192  0.00  0.00    +0.312 C 
ATOM     13  N   UNL     1       4.729   5.970  18.047  0.00  0.00    -0.234 N 
ATOM     14  C   UNL     1       5.408   5.444  19.235  0.00  0.00    +0.057 C 
ATOM     15  C   UNL     1       6.890   5.222  18.971  0.00  0.00    +0.106 C 
ATOM     16  O   UNL     1       7.091   4.313  17.884  0.00  0.00    -0.487 OA
ATOM     17  C   UNL     1       6.333   4.640  16.784  0.00  0.00    +0.161 A 
ATOM     18  C   UNL     1       6.765   4.113  15.568  0.00  0.00    -0.003 A 
ATOM     19  C   UNL     1       6.072   4.427  14.394  0.00  0.00    +0.076 A 
ATOM     20  C   UNL     1       4.984   5.280  14.503  0.00  0.00    +0.042 A 
ATOM     21  N   UNL     1       4.539   5.793  15.673  0.00  0.00    -0.236 NA
ATOM     22  C   UNL     1       5.181   5.441  16.810  0.00  0.00    +0.171 A 
ATOM     23  O   UNL     1       2.448   5.884  17.615  0.00  0.00    -0.252 OA
ATOM     24  H   UNL     1       4.186   7.968  19.179  0.00  0.00    +0.156 HD
ATOM     25  H   UNL     1       4.914   4.496  19.494  0.00  0.00    +0.050 HD
ATOM     26  H   UNL     1       5.277   6.129  20.081  0.00  0.00    +0.050 HD
ATOM     27  H   UNL     1       7.367   4.785  19.858  0.00  0.00    +0.071 HD
ATOM     28  H   UNL     1       7.408   6.167  18.752  0.00  0.00    +0.071 HD
ATOM     29  H   UNL     1       7.641   3.468  15.540  0.00  0.00    +0.066 HD
ATOM     30  H   UNL     1       4.409   5.588  13.631  0.00  0.00    +0.084 HD
BRANCH  19  31
ATOM     31  C   UNL     1       6.500   3.925  13.051  0.00  0.00    +0.419 C 
ATOM     32  F   UNL     1       6.879   2.620  13.062  0.00  0.00    -0.166 F 
ATOM     33  F   UNL     1       7.551   4.611  12.536  0.00  0.00    -0.166 F 
ATOM     34  F   UNL     1       5.506   4.014  12.130  0.00  0.00    -0.166 F 
ENDBRANCH  19  31
ENDBRANCH   5  11
BRANCH   1  35
ATOM     35  C   UNL     1      -0.268  10.939  18.776  0.00  0.00    -0.012 C 
ATOM     36  H   UNL     1      -0.105  10.829  17.693  0.00  0.00    +0.035 HD
BRANCH  35  37
ATOM     37  C   UNL     1       0.435  12.237  19.198  0.00  0.00    -0.058 C 
ATOM     38  H   UNL     1       0.047  13.097  18.640  0.00  0.00    +0.024 HD
ATOM     39  H   UNL     1       0.305  12.445  20.266  0.00  0.00    +0.024 HD
ATOM     40  H   UNL     1       1.514  12.179  18.998  0.00  0.00    +0.024 HD
ENDBRANCH  35  37
BRANCH  35  41
ATOM     41  C   UNL     1      -1.793  10.982  19.024  0.00  0.00    +0.014 C 
ATOM     42  H   UNL     1      -2.083  10.119  19.637  0.00  0.00    +0.035 HD
ATOM     43  H   UNL     1      -2.065  11.868  19.605  0.00  0.00    +0.035 HD
BRANCH  41  44
ATOM     44  C   UNL     1      -2.584  10.929  17.762  0.00  0.00    +0.134 A 
ATOM     45  N   UNL     1      -2.167  10.467  16.600  0.00  0.00    -0.135 NA
ATOM     46  N   UNL     1      -3.186  10.611  15.691  0.00  0.00    -0.138 NA
ATOM     47  C   UNL     1      -4.206  11.152  16.316  0.00  0.00    +0.120 A 
ATOM     48  N   UNL     1      -3.878  11.361  17.619  0.00  0.00    -0.320 N 
ATOM     49  H   UNL     1      -5.164  11.400  15.879  0.00  0.00    +0.105 HD
BRANCH  48  50
ATOM     50  C   UNL     1      -4.747  11.915  18.624  0.00  0.00    +0.014 C 
ATOM     51  H   UNL     1      -5.768  11.922  18.223  0.00  0.00    +0.046 HD
ATOM     52  H   UNL     1      -4.434  12.936  18.862  0.00  0.00    +0.046 HD
ATOM     53  H   UNL     1      -4.693  11.297  19.524  0.00  0.00    +0.046 HD
ENDBRANCH  48  50
ENDBRANCH  41  44
ENDBRANCH  35  41
ENDBRANCH   1  35
TORSDOF 7
ENDMDL
MODEL 27
REMARK VINA RESULT:    -6.927      6.132     10.317
REMARK INTER + INTRA:          -9.769
REMARK INTER:                  -9.250
REMARK INTRA:                  -0.519
REMARK UNBOUND:                -0.413
REMARK  Name = 
REMARK  7 active torsions:
REMARK  status: ('A' for Active; 'I' for Inactive)
REMARK    1  A    between atoms: C_1  and  C_2
REMARK    2  A    between atoms: C_2  and  C_3
REMARK    3  A    between atoms: C_2  and  C_10
REMARK    4  A    between atoms: C_3  and  C_4
REMARK    5  A    between atoms: N_8  and  C_9
REMARK    6  A    between atoms: C_14  and  N_16
REMARK    7  A    between atoms: C_24  and  C_28
REMARK                            x       y       z     vdW  Elec       q    Type
REMARK                         _______ _______ _______ _____ _____    ______ ____
ROOT
ATOM      1  C   UNL     1       2.300   6.622  19.153  0.00  0.00    -0.042 A 
ATOM      2  C   UNL     1       2.488   6.852  17.783  0.00  0.00    -0.058 A 
ATOM      3  C   UNL     1       2.346   8.136  17.254  0.00  0.00    -0.060 A 
ATOM      4  C   UNL     1       2.020   9.202  18.091  0.00  0.00    -0.040 A 
ATOM      5  C   UNL     1       1.837   9.000  19.462  0.00  0.00    +0.035 A 
ATOM      6  C   UNL     1       1.970   7.709  19.985  0.00  0.00    -0.037 A 
ATOM      7  H   UNL     1       2.758   6.040  17.113  0.00  0.00    +0.062 HD
ATOM      8  H   UNL     1       2.504   8.306  16.192  0.00  0.00    +0.062 HD
ATOM      9  H   UNL     1       1.922  10.194  17.654  0.00  0.00    +0.064 HD
ATOM     10  H   UNL     1       1.816   7.525  21.045  0.00  0.00    +0.064 HD
ENDROOT
BRANCH   5  11
ATOM     11  N   UNL     1       1.507  10.129  20.235  0.00  0.00    -0.269 N 
ATOM     12  C   UNL     1       0.245  10.686  20.431  0.00  0.00    +0.312 C 
ATOM     13  N   UNL     1       0.339  11.873  21.171  0.00  0.00    -0.234 N 
ATOM     14  C   UNL     1       1.105  12.979  20.588  0.00  0.00    +0.057 C 
ATOM     15  C   UNL     1       1.291  14.109  21.590  0.00  0.00    +0.106 C 
ATOM     16  O   UNL     1       0.030  14.611  22.044  0.00  0.00    -0.487 OA
ATOM     17  C   UNL     1      -0.821  13.603  22.434  0.00  0.00    +0.161 A 
ATOM     18  C   UNL     1      -1.864  13.980  23.280  0.00  0.00    -0.003 A 
ATOM     19  C   UNL     1      -2.753  13.009  23.754  0.00  0.00    +0.076 A 
ATOM     20  C   UNL     1      -2.532  11.696  23.367  0.00  0.00    +0.042 A 
ATOM     21  N   UNL     1      -1.536  11.309  22.539  0.00  0.00    -0.236 NA
ATOM     22  C   UNL     1      -0.713  12.260  22.041  0.00  0.00    +0.171 A 
ATOM     23  O   UNL     1      -0.808  10.228  19.998  0.00  0.00    -0.252 OA
ATOM     24  H   UNL     1       2.175  10.409  20.936  0.00  0.00    +0.156 HD
ATOM     25  H   UNL     1       0.545  13.329  19.708  0.00  0.00    +0.050 HD
ATOM     26  H   UNL     1       2.081  12.622  20.241  0.00  0.00    +0.050 HD
ATOM     27  H   UNL     1       1.826  14.944  21.118  0.00  0.00    +0.071 HD
ATOM     28  H   UNL     1       1.885  13.787  22.457  0.00  0.00    +0.071 HD
ATOM     29  H   UNL     1      -1.973  15.023  23.569  0.00  0.00    +0.066 HD
ATOM     30  H   UNL     1      -3.168  10.883  23.714  0.00  0.00    +0.084 HD
BRANCH  19  31
ATOM     31  C   UNL     1      -3.873  13.338  24.691  0.00  0.00    +0.419 C 
ATOM     32  F   UNL     1      -4.458  12.238  25.234  0.00  0.00    -0.166 F 
ATOM     33  F   UNL     1      -4.874  14.035  24.099  0.00  0.00    -0.166 F 
ATOM     34  F   UNL     1      -3.458  14.092  25.740  0.00  0.00    -0.166 F 
ENDBRANCH  19  31
ENDBRANCH   5  11
BRANCH   1  35
ATOM     35  C   UNL     1       2.464   5.231  19.758  0.00  0.00    -0.012 C 
ATOM     36  H   UNL     1       2.010   4.500  19.072  0.00  0.00    +0.035 HD
BRANCH  35  37
ATOM     37  C   UNL     1       1.685   5.139  21.078  0.00  0.00    -0.058 C 
ATOM     38  H   UNL     1       1.082   6.039  21.245  0.00  0.00    +0.024 HD
ATOM     39  H   UNL     1       1.009   4.277  21.095  0.00  0.00    +0.024 HD
ATOM     40  H   UNL     1       2.371   5.044  21.930  0.00  0.00    +0.024 HD
ENDBRANCH  35  37
BRANCH  35  41
ATOM     41  C   UNL     1       3.957   4.863  19.923  0.00  0.00    +0.014 C 
ATOM     42  H   UNL     1       4.495   5.722  20.343  0.00  0.00    +0.035 HD
ATOM     43  H   UNL     1       4.077   4.051  20.646  0.00  0.00    +0.035 HD
BRANCH  41  44
ATOM     44  C   UNL     1       4.609   4.504  18.632  0.00  0.00    +0.134 A 
ATOM     45  N   UNL     1       4.062   3.822  17.646  0.00  0.00    -0.135 NA
ATOM     46  N   UNL     1       4.994   3.689  16.647  0.00  0.00    -0.138 NA
ATOM     47  C   UNL     1       6.089   4.297  17.040  0.00  0.00    +0.120 A 
ATOM     48  N   UNL     1       5.893   4.831  18.275  0.00  0.00    -0.320 N 
ATOM     49  H   UNL     1       7.014   4.371  16.482  0.00  0.00    +0.105 HD
BRANCH  48  50
ATOM     50  C   UNL     1       6.857   5.593  19.023  0.00  0.00    +0.014 C 
ATOM     51  H   UNL     1       6.629   5.475  20.090  0.00  0.00    +0.046 HD
ATOM     52  H   UNL     1       6.791   6.650  18.744  0.00  0.00    +0.046 HD
ATOM     53  H   UNL     1       7.859   5.219  18.801  0.00  0.00    +0.046 HD
ENDBRANCH  48  50
ENDBRANCH  41  44
ENDBRANCH  35  41
ENDBRANCH   1  35
TORSDOF 7
ENDMDL
MODEL 28
REMARK VINA RESULT:    -6.760      5.355      9.864
REMARK INTER + INTRA:          -9.544
REMARK INTER:                  -9.854
REMARK INTRA:                   0.310
REMARK UNBOUND:                -0.413
REMARK  Name = 
REMARK  7 active torsions:
REMARK  status: ('A' for Active; 'I' for Inactive)
REMARK    1  A    between atoms: C_1  and  C_2
REMARK    2  A    between atoms: C_2  and  C_3
REMARK    3  A    between atoms: C_2  and  C_10
REMARK    4  A    between atoms: C_3  and  C_4
REMARK    5  A    between atoms: N_8  and  C_9
REMARK    6  A    between atoms: C_14  and  N_16
REMARK    7  A    between atoms: C_24  and  C_28
REMARK                            x       y       z     vdW  Elec       q    Type
REMARK                         _______ _______ _______ _____ _____    ______ ____
ROOT
ATOM      1  C   UNL     1       3.357   5.549  17.682  0.00  0.00    -0.042 A 
ATOM      2  C   UNL     1       4.076   6.427  16.858  0.00  0.00    -0.058 A 
ATOM      3  C   UNL     1       3.918   7.808  16.987  0.00  0.00    -0.060 A 
ATOM      4  C   UNL     1       3.047   8.324  17.944  0.00  0.00    -0.040 A 
ATOM      5  C   UNL     1       2.326   7.469  18.784  0.00  0.00    +0.035 A 
ATOM      6  C   UNL     1       2.479   6.086  18.643  0.00  0.00    -0.037 A 
ATOM      7  H   UNL     1       4.773   6.050  16.114  0.00  0.00    +0.062 HD
ATOM      8  H   UNL     1       4.487   8.481  16.351  0.00  0.00    +0.062 HD
ATOM      9  H   UNL     1       2.948   9.404  18.028  0.00  0.00    +0.064 HD
ATOM     10  H   UNL     1       1.917   5.402  19.275  0.00  0.00    +0.064 HD
ENDROOT
BRANCH   5  11
ATOM     11  N   UNL     1       1.465   8.072  19.721  0.00  0.00    -0.269 N 
ATOM     12  C   UNL     1       1.129   9.419  19.822  0.00  0.00    +0.312 C 
ATOM     13  N   UNL     1       0.335   9.646  20.955  0.00  0.00    -0.234 N 
ATOM     14  C   UNL     1       0.921   9.350  22.266  0.00  0.00    +0.057 C 
ATOM     15  C   UNL     1      -0.122   9.445  23.371  0.00  0.00    +0.106 C 
ATOM     16  O   UNL     1      -0.712  10.748  23.414  0.00  0.00    -0.487 OA
ATOM     17  C   UNL     1      -1.120  11.175  22.171  0.00  0.00    +0.161 A 
ATOM     18  C   UNL     1      -2.074  12.192  22.160  0.00  0.00    -0.003 A 
ATOM     19  C   UNL     1      -2.571  12.660  20.938  0.00  0.00    +0.076 A 
ATOM     20  C   UNL     1      -2.094  12.060  19.783  0.00  0.00    +0.042 A 
ATOM     21  N   UNL     1      -1.160  11.081  19.769  0.00  0.00    -0.236 NA
ATOM     22  C   UNL     1      -0.645  10.673  20.950  0.00  0.00    +0.171 A 
ATOM     23  O   UNL     1       1.490  10.301  19.049  0.00  0.00    -0.252 OA
ATOM     24  H   UNL     1       0.813   7.465  20.192  0.00  0.00    +0.156 HD
ATOM     25  H   UNL     1       1.728  10.081  22.430  0.00  0.00    +0.050 HD
ATOM     26  H   UNL     1       1.373   8.352  22.262  0.00  0.00    +0.050 HD
ATOM     27  H   UNL     1       0.349   9.265  24.346  0.00  0.00    +0.071 HD
ATOM     28  H   UNL     1      -0.914   8.693  23.245  0.00  0.00    +0.071 HD
ATOM     29  H   UNL     1      -2.430  12.609  23.101  0.00  0.00    +0.066 HD
ATOM     30  H   UNL     1      -2.450  12.354  18.797  0.00  0.00    +0.084 HD
BRANCH  19  31
ATOM     31  C   UNL     1      -3.619  13.723  20.854  0.00  0.00    +0.419 C 
ATOM     32  F   UNL     1      -3.125  14.938  20.496  0.00  0.00    -0.166 F 
ATOM     33  F   UNL     1      -4.273  13.921  22.026  0.00  0.00    -0.166 F 
ATOM     34  F   UNL     1      -4.576  13.429  19.937  0.00  0.00    -0.166 F 
ENDBRANCH  19  31
ENDBRANCH   5  11
BRANCH   1  35
ATOM     35  C   UNL     1       3.523   4.036  17.571  0.00  0.00    -0.012 C 
ATOM     36  H   UNL     1       3.803   3.794  16.535  0.00  0.00    +0.035 HD
BRANCH  35  37
ATOM     37  C   UNL     1       2.178   3.343  17.837  0.00  0.00    -0.058 C 
ATOM     38  H   UNL     1       2.235   2.695  18.719  0.00  0.00    +0.024 HD
ATOM     39  H   UNL     1       1.371   4.065  18.004  0.00  0.00    +0.024 HD
ATOM     40  H   UNL     1       1.892   2.710  16.986  0.00  0.00    +0.024 HD
ENDBRANCH  35  37
BRANCH  35  41
ATOM     41  C   UNL     1       4.648   3.525  18.499  0.00  0.00    +0.014 C 
ATOM     42  H   UNL     1       4.264   3.450  19.524  0.00  0.00    +0.035 HD
ATOM     43  H   UNL     1       4.951   2.512  18.217  0.00  0.00    +0.035 HD
BRANCH  41  44
ATOM     44  C   UNL     1       5.832   4.429  18.522  0.00  0.00    +0.134 A 
ATOM     45  N   UNL     1       6.216   5.185  19.532  0.00  0.00    -0.135 NA
ATOM     46  N   UNL     1       7.336   5.879  19.147  0.00  0.00    -0.138 NA
ATOM     47  C   UNL     1       7.619   5.528  17.914  0.00  0.00    +0.120 A 
ATOM     48  N   UNL     1       6.709   4.615  17.483  0.00  0.00    -0.320 N 
ATOM     49  H   UNL     1       8.443   5.899  17.318  0.00  0.00    +0.105 HD
BRANCH  48  50
ATOM     50  C   UNL     1       6.704   3.980  16.192  0.00  0.00    +0.014 C 
ATOM     51  H   UNL     1       7.727   3.647  15.974  0.00  0.00    +0.046 HD
ATOM     52  H   UNL     1       6.376   4.692  15.429  0.00  0.00    +0.046 HD
ATOM     53  H   UNL     1       6.021   3.128  16.215  0.00  0.00    +0.046 HD
ENDBRANCH  48  50
ENDBRANCH  41  44
ENDBRANCH  35  41
ENDBRANCH   1  35
TORSDOF 7
ENDMDL
MODEL 29
REMARK VINA RESULT:    -6.751      2.224      3.409
REMARK INTER + INTRA:          -9.532
REMARK INTER:                  -9.843
REMARK INTRA:                   0.311
REMARK UNBOUND:                -0.413
REMARK  Name = 
REMARK  7 active torsions:
REMARK  status: ('A' for Active; 'I' for Inactive)
REMARK    1  A    between atoms: C_1  and  C_2
REMARK    2  A    between atoms: C_2  and  C_3
REMARK    3  A    between atoms: C_2  and  C_10
REMARK    4  A    between atoms: C_3  and  C_4
REMARK    5  A    between atoms: N_8  and  C_9
REMARK    6  A    between atoms: C_14  and  N_16
REMARK    7  A    between atoms: C_24  and  C_28
REMARK                            x       y       z     vdW  Elec       q    Type
REMARK                         _______ _______ _______ _____ _____    ______ ____
ROOT
ATOM      1  C   UNL     1      -0.644  11.622  20.920  0.00  0.00    -0.042 A 
ATOM      2  C   UNL     1      -1.242  11.871  19.676  0.00  0.00    -0.058 A 
ATOM      3  C   UNL     1      -0.996  11.029  18.591  0.00  0.00    -0.060 A 
ATOM      4  C   UNL     1      -0.155   9.927  18.739  0.00  0.00    -0.040 A 
ATOM      5  C   UNL     1       0.446   9.652  19.972  0.00  0.00    +0.035 A 
ATOM      6  C   UNL     1       0.204  10.506  21.054  0.00  0.00    -0.037 A 
ATOM      7  H   UNL     1      -1.913  12.715  19.539  0.00  0.00    +0.062 HD
ATOM      8  H   UNL     1      -1.472  11.224  17.634  0.00  0.00    +0.062 HD
ATOM      9  H   UNL     1       0.014   9.284  17.879  0.00  0.00    +0.064 HD
ATOM     10  H   UNL     1       0.673  10.321  22.017  0.00  0.00    +0.064 HD
ENDROOT
BRANCH   5  11
ATOM     11  N   UNL     1       1.283   8.522  20.036  0.00  0.00    -0.269 N 
ATOM     12  C   UNL     1       1.755   7.754  18.974  0.00  0.00    +0.312 C 
ATOM     13  N   UNL     1       2.468   6.643  19.448  0.00  0.00    -0.234 N 
ATOM     14  C   UNL     1       1.742   5.669  20.269  0.00  0.00    +0.057 C 
ATOM     15  C   UNL     1       2.690   4.645  20.877  0.00  0.00    +0.106 C 
ATOM     16  O   UNL     1       3.413   3.943  19.860  0.00  0.00    -0.487 OA
ATOM     17  C   UNL     1       3.971   4.796  18.936  0.00  0.00    +0.161 A 
ATOM     18  C   UNL     1       5.028   4.277  18.189  0.00  0.00    -0.003 A 
ATOM     19  C   UNL     1       5.676   5.090  17.253  0.00  0.00    +0.076 A 
ATOM     20  C   UNL     1       5.238   6.400  17.132  0.00  0.00    +0.042 A 
ATOM     21  N   UNL     1       4.208   6.921  17.836  0.00  0.00    -0.236 NA
ATOM     22  C   UNL     1       3.551   6.114  18.700  0.00  0.00    +0.171 A 
ATOM     23  O   UNL     1       1.560   7.988  17.786  0.00  0.00    -0.252 OA
ATOM     24  H   UNL     1       1.823   8.406  20.879  0.00  0.00    +0.156 HD
ATOM     25  H   UNL     1       1.009   5.178  19.612  0.00  0.00    +0.050 HD
ATOM     26  H   UNL     1       1.186   6.181  21.063  0.00  0.00    +0.050 HD
ATOM     27  H   UNL     1       2.120   3.900  21.448  0.00  0.00    +0.071 HD
ATOM     28  H   UNL     1       3.403   5.114  21.569  0.00  0.00    +0.071 HD
ATOM     29  H   UNL     1       5.344   3.248  18.344  0.00  0.00    +0.066 HD
ATOM     30  H   UNL     1       5.708   7.099  16.441  0.00  0.00    +0.084 HD
BRANCH  19  31
ATOM     31  C   UNL     1       6.838   4.610  16.442  0.00  0.00    +0.419 C 
ATOM     32  F   UNL     1       7.304   5.540  15.567  0.00  0.00    -0.166 F 
ATOM     33  F   UNL     1       6.550   3.513  15.697  0.00  0.00    -0.166 F 
ATOM     34  F   UNL     1       7.899   4.269  17.218  0.00  0.00    -0.166 F 
ENDBRANCH  19  31
ENDBRANCH   5  11
BRANCH   1  35
ATOM     35  C   UNL     1      -0.908  12.518  22.126  0.00  0.00    -0.012 C 
ATOM     36  H   UNL     1      -0.705  11.939  23.039  0.00  0.00    +0.035 HD
BRANCH  35  37
ATOM     37  C   UNL     1      -2.394  12.907  22.173  0.00  0.00    -0.058 C 
ATOM     38  H   UNL     1      -2.597  13.591  23.004  0.00  0.00    +0.024 HD
ATOM     39  H   UNL     1      -2.718  13.398  21.249  0.00  0.00    +0.024 HD
ATOM     40  H   UNL     1      -3.024  12.019  22.320  0.00  0.00    +0.024 HD
ENDBRANCH  35  37
BRANCH  35  41
ATOM     41  C   UNL     1       0.027  13.749  22.127  0.00  0.00    +0.014 C 
ATOM     42  H   UNL     1      -0.435  14.552  22.715  0.00  0.00    +0.035 HD
ATOM     43  H   UNL     1       0.972  13.516  22.627  0.00  0.00    +0.035 HD
BRANCH  41  44
ATOM     44  C   UNL     1       0.286  14.278  20.758  0.00  0.00    +0.134 A 
ATOM     45  N   UNL     1      -0.547  14.996  20.030  0.00  0.00    -0.135 NA
ATOM     46  N   UNL     1       0.059  15.267  18.828  0.00  0.00    -0.138 NA
ATOM     47  C   UNL     1       1.250  14.717  18.849  0.00  0.00    +0.120 A 
ATOM     48  N   UNL     1       1.440  14.093  20.041  0.00  0.00    -0.320 N 
ATOM     49  H   UNL     1       1.979  14.744  18.049  0.00  0.00    +0.105 HD
BRANCH  48  50
ATOM     50  C   UNL     1       2.635  13.398  20.444  0.00  0.00    +0.014 C 
ATOM     51  H   UNL     1       3.342  13.424  19.606  0.00  0.00    +0.046 HD
ATOM     52  H   UNL     1       2.394  12.360  20.693  0.00  0.00    +0.046 HD
ATOM     53  H   UNL     1       3.060  13.895  21.319  0.00  0.00    +0.046 HD
ENDBRANCH  48  50
ENDBRANCH  41  44
ENDBRANCH  35  41
ENDBRANCH   1  35
TORSDOF 7
ENDMDL
MODEL 30
REMARK VINA RESULT:    -6.720      4.943      9.240
REMARK INTER + INTRA:          -9.490
REMARK INTER:                  -9.296
REMARK INTRA:                  -0.194
REMARK UNBOUND:                -0.413
REMARK  Name = 
REMARK  7 active torsions:
REMARK  status: ('A' for Active; 'I' for Inactive)
REMARK    1  A    between atoms: C_1  and  C_2
REMARK    2  A    between atoms: C_2  and  C_3
REMARK    3  A    between atoms: C_2  and  C_10
REMARK    4  A    between atoms: C_3  and  C_4
REMARK    5  A    between atoms: N_8  and  C_9
REMARK    6  A    between atoms: C_14  and  N_16
REMARK    7  A    between atoms: C_24  and  C_28
REMARK                            x       y       z     vdW  Elec       q    Type
REMARK                         _______ _______ _______ _____ _____    ______ ____
ROOT
ATOM      1  C   UNL     1       4.200   4.562  17.192  0.00  0.00    -0.042 A 
ATOM      2  C   UNL     1       5.021   4.662  16.059  0.00  0.00    -0.058 A 
ATOM      3  C   UNL     1       5.330   5.910  15.517  0.00  0.00    -0.060 A 
ATOM      4  C   UNL     1       4.828   7.070  16.105  0.00  0.00    -0.040 A 
ATOM      5  C   UNL     1       4.014   6.996  17.240  0.00  0.00    +0.035 A 
ATOM      6  C   UNL     1       3.698   5.742  17.773  0.00  0.00    -0.037 A 
ATOM      7  H   UNL     1       5.437   3.774  15.592  0.00  0.00    +0.062 HD
ATOM      8  H   UNL     1       5.976   5.978  14.646  0.00  0.00    +0.062 HD
ATOM      9  H   UNL     1       5.090   8.030  15.666  0.00  0.00    +0.064 HD
ATOM     10  H   UNL     1       3.055   5.660  18.645  0.00  0.00    +0.064 HD
ENDROOT
BRANCH   5  11
ATOM     11  N   UNL     1       3.546   8.214  17.770  0.00  0.00    -0.269 N 
ATOM     12  C   UNL     1       2.249   8.523  18.170  0.00  0.00    +0.312 C 
ATOM     13  N   UNL     1       2.153   9.874  18.534  0.00  0.00    -0.234 N 
ATOM     14  C   UNL     1       2.433  10.878  17.503  0.00  0.00    +0.057 C 
ATOM     15  C   UNL     1       2.495  12.277  18.098  0.00  0.00    +0.106 C 
ATOM     16  O   UNL     1       1.268  12.617  18.751  0.00  0.00    -0.487 OA
ATOM     17  C   UNL     1       0.840  11.625  19.603  0.00  0.00    +0.161 A 
ATOM     18  C   UNL     1      -0.065  12.018  20.588  0.00  0.00    -0.003 A 
ATOM     19  C   UNL     1      -0.522  11.079  21.520  0.00  0.00    +0.076 A 
ATOM     20  C   UNL     1      -0.022   9.789  21.425  0.00  0.00    +0.042 A 
ATOM     21  N   UNL     1       0.847   9.383  20.472  0.00  0.00    -0.236 NA
ATOM     22  C   UNL     1       1.241  10.282  19.541  0.00  0.00    +0.171 A 
ATOM     23  O   UNL     1       1.303   7.741  18.181  0.00  0.00    -0.252 OA
ATOM     24  H   UNL     1       4.238   8.834  18.160  0.00  0.00    +0.156 HD
ATOM     25  H   UNL     1       1.625  10.808  16.759  0.00  0.00    +0.050 HD
ATOM     26  H   UNL     1       3.375  10.645  16.993  0.00  0.00    +0.050 HD
ATOM     27  H   UNL     1       2.659  13.015  17.302  0.00  0.00    +0.071 HD
ATOM     28  H   UNL     1       3.324  12.376  18.813  0.00  0.00    +0.071 HD
ATOM     29  H   UNL     1      -0.404  13.051  20.628  0.00  0.00    +0.066 HD
ATOM     30  H   UNL     1      -0.313   9.010  22.128  0.00  0.00    +0.084 HD
BRANCH  19  31
ATOM     31  C   UNL     1      -1.466  11.439  22.623  0.00  0.00    +0.419 C 
ATOM     32  F   UNL     1      -2.683  11.848  22.176  0.00  0.00    -0.166 F 
ATOM     33  F   UNL     1      -1.006  12.441  23.413  0.00  0.00    -0.166 F 
ATOM     34  F   UNL     1      -1.711  10.391  23.451  0.00  0.00    -0.166 F 
ENDBRANCH  19  31
ENDBRANCH   5  11
BRANCH   1  35
ATOM     35  C   UNL     1       3.859   3.210  17.812  0.00  0.00    -0.012 C 
ATOM     36  H   UNL     1       4.407   2.429  17.264  0.00  0.00    +0.035 HD
BRANCH  35  37
ATOM     37  C   UNL     1       2.364   2.911  17.625  0.00  0.00    -0.058 C 
ATOM     38  H   UNL     1       2.206   1.885  17.272  0.00  0.00    +0.024 HD
ATOM     39  H   UNL     1       1.802   3.033  18.558  0.00  0.00    +0.024 HD
ATOM     40  H   UNL     1       1.923   3.584  16.877  0.00  0.00    +0.024 HD
ENDBRANCH  35  37
BRANCH  35  41
ATOM     41  C   UNL     1       4.296   3.146  19.293  0.00  0.00    +0.014 C 
ATOM     42  H   UNL     1       4.954   2.280  19.438  0.00  0.00    +0.035 HD
ATOM     43  H   UNL     1       4.891   4.023  19.559  0.00  0.00    +0.035 HD
BRANCH  41  44
ATOM     44  C   UNL     1       3.144   3.001  20.229  0.00  0.00    +0.134 A 
ATOM     45  N   UNL     1       2.662   1.869  20.702  0.00  0.00    -0.135 NA
ATOM     46  N   UNL     1       1.594   2.163  21.512  0.00  0.00    -0.138 NA
ATOM     47  C   UNL     1       1.449   3.468  21.524  0.00  0.00    +0.120 A 
ATOM     48  N   UNL     1       2.404   4.036  20.740  0.00  0.00    -0.320 N 
ATOM     49  H   UNL     1       0.693   4.021  22.066  0.00  0.00    +0.105 HD
BRANCH  48  50
ATOM     50  C   UNL     1       2.581   5.448  20.525  0.00  0.00    +0.014 C 
ATOM     51  H   UNL     1       1.723   5.969  20.967  0.00  0.00    +0.046 HD
ATOM     52  H   UNL     1       2.629   5.656  19.451  0.00  0.00    +0.046 HD
ATOM     53  H   UNL     1       3.511   5.768  21.001  0.00  0.00    +0.046 HD
ENDBRANCH  48  50
ENDBRANCH  41  44
ENDBRANCH  35  41
ENDBRANCH   1  35
TORSDOF 7
ENDMDL
MODEL 31
REMARK VINA RESULT:    -6.688      5.558      9.734
REMARK INTER + INTRA:          -9.446
REMARK INTER:                  -9.736
REMARK INTRA:                   0.290
REMARK UNBOUND:                -0.413
REMARK  Name = 
REMARK  7 active torsions:
REMARK  status: ('A' for Active; 'I' for Inactive)
REMARK    1  A    between atoms: C_1  and  C_2
REMARK    2  A    between atoms: C_2  and  C_3
REMARK    3  A    between atoms: C_2  and  C_10
REMARK    4  A    between atoms: C_3  and  C_4
REMARK    5  A    between atoms: N_8  and  C_9
REMARK    6  A    between atoms: C_14  and  N_16
REMARK    7  A    between atoms: C_24  and  C_28
REMARK                            x       y       z     vdW  Elec       q    Type
REMARK                         _______ _______ _______ _____ _____    ______ ____
ROOT
ATOM      1  C   UNL     1       3.655   6.031  18.917  0.00  0.00    -0.042 A 
ATOM      2  C   UNL     1       3.332   5.176  19.981  0.00  0.00    -0.058 A 
ATOM      3  C   UNL     1       2.343   5.532  20.899  0.00  0.00    -0.060 A 
ATOM      4  C   UNL     1       1.663   6.741  20.760  0.00  0.00    -0.040 A 
ATOM      5  C   UNL     1       1.961   7.606  19.702  0.00  0.00    +0.035 A 
ATOM      6  C   UNL     1       2.961   7.249  18.791  0.00  0.00    -0.037 A 
ATOM      7  H   UNL     1       3.836   4.222  20.103  0.00  0.00    +0.062 HD
ATOM      8  H   UNL     1       2.092   4.859  21.715  0.00  0.00    +0.062 HD
ATOM      9  H   UNL     1       0.892   6.990  21.485  0.00  0.00    +0.064 HD
ATOM     10  H   UNL     1       3.221   7.913  17.969  0.00  0.00    +0.064 HD
ENDROOT
BRANCH   5  11
ATOM     11  N   UNL     1       1.231   8.808  19.635  0.00  0.00    -0.269 N 
ATOM     12  C   UNL     1       0.137   9.181  20.411  0.00  0.00    +0.312 C 
ATOM     13  N   UNL     1      -0.388  10.403  19.968  0.00  0.00    -0.234 N 
ATOM     14  C   UNL     1      -0.913  10.463  18.601  0.00  0.00    +0.057 C 
ATOM     15  C   UNL     1      -1.249  11.892  18.200  0.00  0.00    +0.106 C 
ATOM     16  O   UNL     1      -2.212  12.465  19.089  0.00  0.00    -0.487 OA
ATOM     17  C   UNL     1      -1.877  12.280  20.410  0.00  0.00    +0.161 A 
ATOM     18  C   UNL     1      -2.480  13.148  21.319  0.00  0.00    -0.003 A 
ATOM     19  C   UNL     1      -2.165  13.053  22.679  0.00  0.00    +0.076 A 
ATOM     20  C   UNL     1      -1.234  12.096  23.054  0.00  0.00    +0.042 A 
ATOM     21  N   UNL     1      -0.645  11.235  22.192  0.00  0.00    -0.236 NA
ATOM     22  C   UNL     1      -0.996  11.297  20.887  0.00  0.00    +0.171 A 
ATOM     23  O   UNL     1      -0.331   8.529  21.339  0.00  0.00    -0.252 OA
ATOM     24  H   UNL     1       1.686   9.590  19.192  0.00  0.00    +0.156 HD
ATOM     25  H   UNL     1      -1.814   9.831  18.575  0.00  0.00    +0.050 HD
ATOM     26  H   UNL     1      -0.188  10.037  17.898  0.00  0.00    +0.050 HD
ATOM     27  H   UNL     1      -1.683  11.906  17.192  0.00  0.00    +0.071 HD
ATOM     28  H   UNL     1      -0.352  12.527  18.181  0.00  0.00    +0.071 HD
ATOM     29  H   UNL     1      -3.186  13.897  20.964  0.00  0.00    +0.066 HD
ATOM     30  H   UNL     1      -0.922  11.977  24.090  0.00  0.00    +0.084 HD
BRANCH  19  31
ATOM     31  C   UNL     1      -2.749  13.973  23.704  0.00  0.00    +0.419 C 
ATOM     32  F   UNL     1      -3.705  13.386  24.471  0.00  0.00    -0.166 F 
ATOM     33  F   UNL     1      -3.332  15.072  23.162  0.00  0.00    -0.166 F 
ATOM     34  F   UNL     1      -1.812  14.435  24.572  0.00  0.00    -0.166 F 
ENDBRANCH  19  31
ENDBRANCH   5  11
BRANCH   1  35
ATOM     35  C   UNL     1       4.722   5.659  17.892  0.00  0.00    -0.012 C 
ATOM     36  H   UNL     1       5.542   5.146  18.417  0.00  0.00    +0.035 HD
BRANCH  35  37
ATOM     37  C   UNL     1       5.322   6.932  17.276  0.00  0.00    -0.058 C 
ATOM     38  H   UNL     1       6.323   7.130  17.674  0.00  0.00    +0.024 HD
ATOM     39  H   UNL     1       5.404   6.859  16.185  0.00  0.00    +0.024 HD
ATOM     40  H   UNL     1       4.700   7.807  17.508  0.00  0.00    +0.024 HD
ENDBRANCH  35  37
BRANCH  35  41
ATOM     41  C   UNL     1       4.162   4.690  16.825  0.00  0.00    +0.014 C 
ATOM     42  H   UNL     1       3.349   5.185  16.280  0.00  0.00    +0.035 HD
ATOM     43  H   UNL     1       4.925   4.455  16.078  0.00  0.00    +0.035 HD
BRANCH  41  44
ATOM     44  C   UNL     1       3.615   3.436  17.415  0.00  0.00    +0.134 A 
ATOM     45  N   UNL     1       4.314   2.389  17.807  0.00  0.00    -0.135 NA
ATOM     46  N   UNL     1       3.439   1.439  18.273  0.00  0.00    -0.138 NA
ATOM     47  C   UNL     1       2.225   1.926  18.163  0.00  0.00    +0.120 A 
ATOM     48  N   UNL     1       2.286   3.178  17.638  0.00  0.00    -0.320 N 
ATOM     49  H   UNL     1       1.308   1.422  18.440  0.00  0.00    +0.105 HD
BRANCH  48  50
ATOM     50  C   UNL     1       1.160   4.040  17.391  0.00  0.00    +0.014 C 
ATOM     51  H   UNL     1       0.259   3.536  17.761  0.00  0.00    +0.046 HD
ATOM     52  H   UNL     1       1.065   4.228  16.317  0.00  0.00    +0.046 HD
ATOM     53  H   UNL     1       1.312   4.987  17.916  0.00  0.00    +0.046 HD
ENDBRANCH  48  50
ENDBRANCH  41  44
ENDBRANCH  35  41
ENDBRANCH   1  35
TORSDOF 7
ENDMDL
MODEL 32
REMARK VINA RESULT:    -6.685      5.256      9.973
REMARK INTER + INTRA:          -9.442
REMARK INTER:                  -9.030
REMARK INTRA:                  -0.413
REMARK UNBOUND:                -0.413
REMARK  Name = 
REMARK  7 active torsions:
REMARK  status: ('A' for Active; 'I' for Inactive)
REMARK    1  A    between atoms: C_1  and  C_2
REMARK    2  A    between atoms: C_2  and  C_3
REMARK    3  A    between atoms: C_2  and  C_10
REMARK    4  A    between atoms: C_3  and  C_4
REMARK    5  A    between atoms: N_8  and  C_9
REMARK    6  A    between atoms: C_14  and  N_16
REMARK    7  A    between atoms: C_24  and  C_28
REMARK                            x       y       z     vdW  Elec       q    Type
REMARK                         _______ _______ _______ _____ _____    ______ ____
ROOT
ATOM      1  C   UNL     1       4.687   5.300  17.085  0.00  0.00    -0.042 A 
ATOM      2  C   UNL     1       3.709   4.325  17.326  0.00  0.00    -0.058 A 
ATOM      3  C   UNL     1       2.472   4.681  17.866  0.00  0.00    -0.060 A 
ATOM      4  C   UNL     1       2.199   6.015  18.163  0.00  0.00    -0.040 A 
ATOM      5  C   UNL     1       3.155   7.007  17.924  0.00  0.00    +0.035 A 
ATOM      6  C   UNL     1       4.397   6.643  17.393  0.00  0.00    -0.037 A 
ATOM      7  H   UNL     1       3.891   3.281  17.088  0.00  0.00    +0.062 HD
ATOM      8  H   UNL     1       1.716   3.920  18.039  0.00  0.00    +0.062 HD
ATOM      9  H   UNL     1       1.224   6.266  18.577  0.00  0.00    +0.064 HD
ATOM     10  H   UNL     1       5.162   7.395  17.213  0.00  0.00    +0.064 HD
ENDROOT
BRANCH   5  11
ATOM     11  N   UNL     1       2.801   8.329  18.255  0.00  0.00    -0.269 N 
ATOM     12  C   UNL     1       1.584   8.965  18.024  0.00  0.00    +0.312 C 
ATOM     13  N   UNL     1       1.656  10.316  18.393  0.00  0.00    -0.234 N 
ATOM     14  C   UNL     1       2.618  11.165  17.684  0.00  0.00    +0.057 C 
ATOM     15  C   UNL     1       2.727  12.537  18.334  0.00  0.00    +0.106 C 
ATOM     16  O   UNL     1       1.459  13.199  18.360  0.00  0.00    -0.487 OA
ATOM     17  C   UNL     1       0.458  12.389  18.844  0.00  0.00    +0.161 A 
ATOM     18  C   UNL     1      -0.679  13.042  19.317  0.00  0.00    -0.003 A 
ATOM     19  C   UNL     1      -1.729  12.294  19.862  0.00  0.00    +0.076 A 
ATOM     20  C   UNL     1      -1.569  10.918  19.923  0.00  0.00    +0.042 A 
ATOM     21  N   UNL     1      -0.481  10.262  19.459  0.00  0.00    -0.236 NA
ATOM     22  C   UNL     1       0.506  10.987  18.884  0.00  0.00    +0.171 A 
ATOM     23  O   UNL     1       0.587   8.438  17.539  0.00  0.00    -0.252 OA
ATOM     24  H   UNL     1       3.355   8.781  18.965  0.00  0.00    +0.156 HD
ATOM     25  H   UNL     1       2.262  11.255  16.646  0.00  0.00    +0.050 HD
ATOM     26  H   UNL     1       3.602  10.684  17.658  0.00  0.00    +0.050 HD
ATOM     27  H   UNL     1       3.416  13.169  17.759  0.00  0.00    +0.071 HD
ATOM     28  H   UNL     1       3.120  12.469  19.358  0.00  0.00    +0.071 HD
ATOM     29  H   UNL     1      -0.739  14.127  19.265  0.00  0.00    +0.066 HD
ATOM     30  H   UNL     1      -2.332  10.272  20.353  0.00  0.00    +0.084 HD
BRANCH  19  31
ATOM     31  C   UNL     1      -2.963  12.931  20.418  0.00  0.00    +0.419 C 
ATOM     32  F   UNL     1      -4.080  12.662  19.694  0.00  0.00    -0.166 F 
ATOM     33  F   UNL     1      -2.881  14.284  20.482  0.00  0.00    -0.166 F 
ATOM     34  F   UNL     1      -3.232  12.512  21.681  0.00  0.00    -0.166 F 
ENDBRANCH  19  31
ENDBRANCH   5  11
BRANCH   1  35
ATOM     35  C   UNL     1       6.042   4.939  16.483  0.00  0.00    -0.012 C 
ATOM     36  H   UNL     1       6.046   3.860  16.263  0.00  0.00    +0.035 HD
BRANCH  35  37
ATOM     37  C   UNL     1       7.154   5.182  17.513  0.00  0.00    -0.058 C 
ATOM     38  H   UNL     1       6.890   4.757  18.488  0.00  0.00    +0.024 HD
ATOM     39  H   UNL     1       8.106   4.736  17.201  0.00  0.00    +0.024 HD
ATOM     40  H   UNL     1       7.320   6.257  17.660  0.00  0.00    +0.024 HD
ENDBRANCH  35  37
BRANCH  35  41
ATOM     41  C   UNL     1       6.286   5.694  15.156  0.00  0.00    +0.014 C 
ATOM     42  H   UNL     1       5.483   6.426  15.005  0.00  0.00    +0.035 HD
ATOM     43  H   UNL     1       7.213   6.271  15.205  0.00  0.00    +0.035 HD
BRANCH  41  44
ATOM     44  C   UNL     1       6.304   4.789  13.972  0.00  0.00    +0.134 A 
ATOM     45  N   UNL     1       5.426   3.844  13.700  0.00  0.00    -0.135 NA
ATOM     46  N   UNL     1       5.807   3.227  12.534  0.00  0.00    -0.138 NA
ATOM     47  C   UNL     1       6.904   3.812  12.114  0.00  0.00    +0.120 A 
ATOM     48  N   UNL     1       7.249   4.802  12.978  0.00  0.00    -0.320 N 
ATOM     49  H   UNL     1       7.462   3.557  11.222  0.00  0.00    +0.105 HD
BRANCH  48  50
ATOM     50  C   UNL     1       8.380   5.681  12.839  0.00  0.00    +0.014 C 
ATOM     51  H   UNL     1       8.655   5.716  11.778  0.00  0.00    +0.046 HD
ATOM     52  H   UNL     1       9.221   5.300  13.428  0.00  0.00    +0.046 HD
ATOM     53  H   UNL     1       8.106   6.676  13.197  0.00  0.00    +0.046 HD
ENDBRANCH  48  50
ENDBRANCH  41  44
ENDBRANCH  35  41
ENDBRANCH   1  35
TORSDOF 7
ENDMDL
MODEL 33
REMARK VINA RESULT:    -6.655      3.204      4.317
REMARK INTER + INTRA:          -9.401
REMARK INTER:                  -8.772
REMARK INTRA:                  -0.630
REMARK UNBOUND:                -0.413
REMARK  Name = 
REMARK  7 active torsions:
REMARK  status: ('A' for Active; 'I' for Inactive)
REMARK    1  A    between atoms: C_1  and  C_2
REMARK    2  A    between atoms: C_2  and  C_3
REMARK    3  A    between atoms: C_2  and  C_10
REMARK    4  A    between atoms: C_3  and  C_4
REMARK    5  A    between atoms: N_8  and  C_9
REMARK    6  A    between atoms: C_14  and  N_16
REMARK    7  A    between atoms: C_24  and  C_28
REMARK                            x       y       z     vdW  Elec       q    Type
REMARK                         _______ _______ _______ _____ _____    ______ ____
ROOT
ATOM      1  C   UNL     1      -0.939  12.987  20.092  0.00  0.00    -0.042 A 
ATOM      2  C   UNL     1      -0.178  13.910  19.361  0.00  0.00    -0.058 A 
ATOM      3  C   UNL     1       1.054  13.540  18.820  0.00  0.00    -0.060 A 
ATOM      4  C   UNL     1       1.533  12.243  18.998  0.00  0.00    -0.040 A 
ATOM      5  C   UNL     1       0.788  11.302  19.715  0.00  0.00    +0.035 A 
ATOM      6  C   UNL     1      -0.441  11.681  20.265  0.00  0.00    -0.037 A 
ATOM      7  H   UNL     1      -0.536  14.922  19.196  0.00  0.00    +0.062 HD
ATOM      8  H   UNL     1       1.633  14.259  18.246  0.00  0.00    +0.062 HD
ATOM      9  H   UNL     1       2.493  11.979  18.559  0.00  0.00    +0.064 HD
ATOM     10  H   UNL     1      -1.031  10.971  20.840  0.00  0.00    +0.064 HD
ENDROOT
BRANCH   5  11
ATOM     11  N   UNL     1       1.345  10.016  19.851  0.00  0.00    -0.269 N 
ATOM     12  C   UNL     1       1.502   9.049  18.860  0.00  0.00    +0.312 C 
ATOM     13  N   UNL     1       1.990   7.855  19.410  0.00  0.00    -0.234 N 
ATOM     14  C   UNL     1       1.160   7.177  20.410  0.00  0.00    +0.057 C 
ATOM     15  C   UNL     1       1.911   6.023  21.059  0.00  0.00    +0.106 C 
ATOM     16  O   UNL     1       2.332   5.065  20.083  0.00  0.00    -0.487 OA
ATOM     17  C   UNL     1       2.960   5.656  19.011  0.00  0.00    +0.161 A 
ATOM     18  C   UNL     1       3.776   4.822  18.248  0.00  0.00    -0.003 A 
ATOM     19  C   UNL     1       4.481   5.351  17.162  0.00  0.00    +0.076 A 
ATOM     20  C   UNL     1       4.345   6.708  16.911  0.00  0.00    +0.042 A 
ATOM     21  N   UNL     1       3.550   7.534  17.630  0.00  0.00    -0.236 NA
ATOM     22  C   UNL     1       2.829   7.004  18.644  0.00  0.00    +0.171 A 
ATOM     23  O   UNL     1       1.230   9.198  17.673  0.00  0.00    -0.252 OA
ATOM     24  H   UNL     1       1.937   9.861  20.651  0.00  0.00    +0.156 HD
ATOM     25  H   UNL     1       0.263   6.811  19.888  0.00  0.00    +0.050 HD
ATOM     26  H   UNL     1       0.832   7.889  21.176  0.00  0.00    +0.050 HD
ATOM     27  H   UNL     1       1.255   5.503  21.769  0.00  0.00    +0.071 HD
ATOM     28  H   UNL     1       2.788   6.377  21.621  0.00  0.00    +0.071 HD
ATOM     29  H   UNL     1       3.863   3.769  18.507  0.00  0.00    +0.066 HD
ATOM     30  H   UNL     1       4.879   7.196  16.098  0.00  0.00    +0.084 HD
BRANCH  19  31
ATOM     31  C   UNL     1       5.400   4.522  16.322  0.00  0.00    +0.419 C 
ATOM     32  F   UNL     1       6.698   4.587  16.721  0.00  0.00    -0.166 F 
ATOM     33  F   UNL     1       5.397   4.883  15.014  0.00  0.00    -0.166 F 
ATOM     34  F   UNL     1       5.071   3.205  16.349  0.00  0.00    -0.166 F 
ENDBRANCH  19  31
ENDBRANCH   5  11
BRANCH   1  35
ATOM     35  C   UNL     1      -2.296  13.362  20.682  0.00  0.00    -0.012 C 
ATOM     36  H   UNL     1      -3.081  13.005  19.999  0.00  0.00    +0.035 HD
BRANCH  35  37
ATOM     37  C   UNL     1      -2.432  14.890  20.749  0.00  0.00    -0.058 C 
ATOM     38  H   UNL     1      -2.076  15.277  21.711  0.00  0.00    +0.024 HD
ATOM     39  H   UNL     1      -1.861  15.388  19.957  0.00  0.00    +0.024 HD
ATOM     40  H   UNL     1      -3.483  15.192  20.645  0.00  0.00    +0.024 HD
ENDBRANCH  35  37
BRANCH  35  41
ATOM     41  C   UNL     1      -2.518  12.685  22.054  0.00  0.00    +0.014 C 
ATOM     42  H   UNL     1      -3.548  12.310  22.109  0.00  0.00    +0.035 HD
ATOM     43  H   UNL     1      -1.873  11.808  22.162  0.00  0.00    +0.035 HD
BRANCH  41  44
ATOM     44  C   UNL     1      -2.313  13.619  23.198  0.00  0.00    +0.134 A 
ATOM     45  N   UNL     1      -1.154  14.047  23.656  0.00  0.00    -0.135 NA
ATOM     46  N   UNL     1      -1.395  14.873  24.726  0.00  0.00    -0.138 NA
ATOM     47  C   UNL     1      -2.694  14.939  24.895  0.00  0.00    +0.120 A 
ATOM     48  N   UNL     1      -3.312  14.176  23.955  0.00  0.00    -0.320 N 
ATOM     49  H   UNL     1      -3.211  15.506  25.659  0.00  0.00    +0.105 HD
BRANCH  48  50
ATOM     50  C   UNL     1      -4.735  14.018  23.805  0.00  0.00    +0.014 C 
ATOM     51  H   UNL     1      -5.228  14.756  24.449  0.00  0.00    +0.046 HD
ATOM     52  H   UNL     1      -5.030  13.007  24.105  0.00  0.00    +0.046 HD
ATOM     53  H   UNL     1      -5.005  14.181  22.759  0.00  0.00    +0.046 HD
ENDBRANCH  48  50
ENDBRANCH  41  44
ENDBRANCH  35  41
ENDBRANCH   1  35
TORSDOF 7
ENDMDL
