MODEL 1
REMARK VINA RESULT:    -6.609      0.000      0.000
REMARK INTER + INTRA:          -8.414
REMARK INTER:                  -8.436
REMARK INTRA:                   0.022
REMARK UNBOUND:                -0.260
REMARK  Name = 
REMARK  5 active torsions:
REMARK  status: ('A' for Active; 'I' for Inactive)
REMARK    1  A    between atoms: C_1  and  N_2
REMARK    2  A    between atoms: N_2  and  C_3
REMARK    3  A    between atoms: N_2  and  C_4
REMARK    4  A    between atoms: C_7  and  C_8
REMARK    5  A    between atoms: C_14  and  C_16
REMARK                            x       y       z     vdW  Elec       q    Type
REMARK                         _______ _______ _______ _____ _____    ______ ____
ROOT
ATOM      1  C   UNL     1       1.062   8.297  20.939  0.00  0.00    +0.247 C 
ATOM      2  O   UNL     1       0.676   8.101  22.088  0.00  0.00    -0.270 OA
ATOM      3  N   UNL     1       1.630   7.303  20.147  0.00  0.00    -0.295 N 
ATOM      4  C   UNL     1       1.664   5.939  20.681  0.00  0.00    +0.031 C 
ATOM      5  C   UNL     1       1.888   4.884  19.592  0.00  0.00    +0.031 C 
ATOM      6  N   UNL     1       3.083   5.147  18.782  0.00  0.00    -0.294 N 
ATOM      7  C   UNL     1       3.747   4.061  18.225  0.00  0.00    +0.249 C 
ATOM      8  O   UNL     1       3.393   2.894  18.373  0.00  0.00    -0.270 OA
ATOM      9  C   UNL     1       3.538   6.542  18.717  0.00  0.00    +0.031 C 
ATOM     10  C   UNL     1       2.396   7.550  18.919  0.00  0.00    +0.031 C 
ATOM     11  H   UNL     1       0.732   5.734  21.219  0.00  0.00    +0.048 HD
ATOM     12  H   UNL     1       2.483   5.905  21.410  0.00  0.00    +0.048 HD
ATOM     13  H   UNL     1       1.039   4.880  18.899  0.00  0.00    +0.048 HD
ATOM     14  H   UNL     1       1.949   3.889  20.047  0.00  0.00    +0.048 HD
ATOM     15  H   UNL     1       4.035   6.745  17.767  0.00  0.00    +0.048 HD
ATOM     16  H   UNL     1       4.284   6.662  19.511  0.00  0.00    +0.048 HD
ATOM     17  H   UNL     1       2.805   8.564  18.924  0.00  0.00    +0.048 HD
ATOM     18  H   UNL     1       1.688   7.467  18.086  0.00  0.00    +0.048 HD
ENDROOT
BRANCH   7  19
ATOM     19  C   UNL     1       4.978   4.294  17.456  0.00  0.00    +0.072 A 
ATOM     20  C   UNL     1       4.924   4.258  16.060  0.00  0.00    -0.047 A 
ATOM     21  C   UNL     1       6.081   4.515  15.321  0.00  0.00    -0.061 A 
ATOM     22  C   UNL     1       7.279   4.819  15.976  0.00  0.00    -0.059 A 
ATOM     23  C   UNL     1       7.321   4.872  17.370  0.00  0.00    -0.026 A 
ATOM     24  C   UNL     1       6.165   4.617  18.106  0.00  0.00    +0.135 A 
ATOM     25  F   UNL     1       6.226   4.665  19.445  0.00  0.00    -0.205 F 
ATOM     26  H   UNL     1       3.987   4.043  15.553  0.00  0.00    +0.063 HD
ATOM     27  H   UNL     1       6.047   4.489  14.234  0.00  0.00    +0.062 HD
ATOM     28  H   UNL     1       8.176   5.023  15.397  0.00  0.00    +0.062 HD
ATOM     29  H   UNL     1       8.243   5.117  17.888  0.00  0.00    +0.065 HD
ENDBRANCH   7  19
BRANCH   1  33
ATOM     30  C   UNL     1       0.609  12.304  19.366  0.00  0.00    +0.029 A 
ATOM     31  C   UNL     1       1.146  12.051  20.643  0.00  0.00    -0.040 A 
ATOM     32  C   UNL     1       1.286  10.753  21.154  0.00  0.00    -0.048 A 
ATOM     33  C   UNL     1       0.913   9.660  20.380  0.00  0.00    +0.037 A 
ATOM     34  C   UNL     1       0.366   9.866  19.117  0.00  0.00    -0.048 A 
ATOM     35  C   UNL     1       0.232  11.170  18.620  0.00  0.00    -0.040 A 
ATOM     36  H   UNL     1       1.469  12.864  21.287  0.00  0.00    +0.064 HD
ATOM     37  H   UNL     1       1.687  10.605  22.154  0.00  0.00    +0.063 HD
ATOM     38  H   UNL     1       0.032   9.025  18.514  0.00  0.00    +0.063 HD
ATOM     39  H   UNL     1      -0.185  11.272  17.623  0.00  0.00    +0.064 HD
BRANCH  30  40
ATOM     40  N   UNL     1       0.494  13.602  18.852  0.00  0.00    -0.336 N 
BRANCH  40  41
ATOM     41  C   UNL     1       1.708  14.328  18.481  0.00  0.00    +0.000 C 
ATOM     42  H   UNL     1       1.535  14.962  17.604  0.00  0.00    +0.043 HD
ATOM     43  H   UNL     1       2.074  14.938  19.313  0.00  0.00    +0.043 HD
ATOM     44  H   UNL     1       2.523  13.638  18.235  0.00  0.00    +0.043 HD
ENDBRANCH  40  41
BRANCH  40  45
ATOM     45  C   UNL     1      -0.626  14.437  19.288  0.00  0.00    +0.000 C 
ATOM     46  H   UNL     1      -0.337  15.072  20.133  0.00  0.00    +0.043 HD
ATOM     47  H   UNL     1      -1.492  13.827  19.564  0.00  0.00    +0.043 HD
ATOM     48  H   UNL     1      -0.969  15.096  18.482  0.00  0.00    +0.043 HD
ENDBRANCH  40  45
ENDBRANCH  30  40
ENDBRANCH   1  33
TORSDOF 5
ENDMDL
MODEL 2
REMARK VINA RESULT:    -6.475      2.584      8.334
REMARK INTER + INTRA:          -8.250
REMARK INTER:                  -7.885
REMARK INTRA:                  -0.364
REMARK UNBOUND:                -0.260
REMARK  Name = 
REMARK  5 active torsions:
REMARK  status: ('A' for Active; 'I' for Inactive)
REMARK    1  A    between atoms: C_1  and  N_2
REMARK    2  A    between atoms: N_2  and  C_3
REMARK    3  A    between atoms: N_2  and  C_4
REMARK    4  A    between atoms: C_7  and  C_8
REMARK    5  A    between atoms: C_14  and  C_16
REMARK                            x       y       z     vdW  Elec       q    Type
REMARK                         _______ _______ _______ _____ _____    ______ ____
ROOT
ATOM      1  C   UNL     1       2.113   5.481  20.007  0.00  0.00    +0.247 C 
ATOM      2  O   UNL     1       1.539   4.547  20.560  0.00  0.00    -0.270 OA
ATOM      3  N   UNL     1       1.838   6.817  20.287  0.00  0.00    -0.295 N 
ATOM      4  C   UNL     1       0.897   7.110  21.371  0.00  0.00    +0.031 C 
ATOM      5  C   UNL     1       1.006   8.552  21.876  0.00  0.00    +0.031 C 
ATOM      6  N   UNL     1       0.874   9.542  20.802  0.00  0.00    -0.294 N 
ATOM      7  C   UNL     1       0.347  10.788  21.122  0.00  0.00    +0.249 C 
ATOM      8  O   UNL     1      -0.015  11.108  22.252  0.00  0.00    -0.270 OA
ATOM      9  C   UNL     1       1.214   9.090  19.446  0.00  0.00    +0.031 C 
ATOM     10  C   UNL     1       2.241   7.948  19.441  0.00  0.00    +0.031 C 
ATOM     11  H   UNL     1       1.060   6.407  22.196  0.00  0.00    +0.048 HD
ATOM     12  H   UNL     1      -0.110   6.927  20.974  0.00  0.00    +0.048 HD
ATOM     13  H   UNL     1       1.993   8.714  22.326  0.00  0.00    +0.048 HD
ATOM     14  H   UNL     1       0.255   8.731  22.653  0.00  0.00    +0.048 HD
ATOM     15  H   UNL     1       1.592   9.918  18.844  0.00  0.00    +0.048 HD
ATOM     16  H   UNL     1       0.278   8.751  18.988  0.00  0.00    +0.048 HD
ATOM     17  H   UNL     1       2.404   7.613  18.413  0.00  0.00    +0.048 HD
ATOM     18  H   UNL     1       3.193   8.314  19.840  0.00  0.00    +0.048 HD
ENDROOT
BRANCH   7  19
ATOM     19  C   UNL     1       0.153  11.778  20.053  0.00  0.00    +0.072 A 
ATOM     20  C   UNL     1       1.119  12.770  19.861  0.00  0.00    -0.047 A 
ATOM     21  C   UNL     1       0.960  13.692  18.824  0.00  0.00    -0.061 A 
ATOM     22  C   UNL     1      -0.151  13.612  17.978  0.00  0.00    -0.059 A 
ATOM     23  C   UNL     1      -1.102  12.607  18.164  0.00  0.00    -0.026 A 
ATOM     24  C   UNL     1      -0.941  11.687  19.198  0.00  0.00    +0.135 A 
ATOM     25  F   UNL     1      -1.868  10.733  19.366  0.00  0.00    -0.205 F 
ATOM     26  H   UNL     1       1.992  12.816  20.506  0.00  0.00    +0.063 HD
ATOM     27  H   UNL     1       1.708  14.467  18.668  0.00  0.00    +0.062 HD
ATOM     28  H   UNL     1      -0.269  14.328  17.169  0.00  0.00    +0.062 HD
ATOM     29  H   UNL     1      -1.962  12.530  17.506  0.00  0.00    +0.065 HD
ENDBRANCH   7  19
BRANCH   1  33
ATOM     30  C   UNL     1       5.089   4.486  17.026  0.00  0.00    +0.029 A 
ATOM     31  C   UNL     1       3.711   4.294  16.810  0.00  0.00    -0.040 A 
ATOM     32  C   UNL     1       2.748   4.611  17.778  0.00  0.00    -0.048 A 
ATOM     33  C   UNL     1       3.143   5.160  18.994  0.00  0.00    +0.037 A 
ATOM     34  C   UNL     1       4.496   5.354  19.254  0.00  0.00    -0.048 A 
ATOM     35  C   UNL     1       5.447   5.032  18.275  0.00  0.00    -0.040 A 
ATOM     36  H   UNL     1       3.342   3.883  15.874  0.00  0.00    +0.064 HD
ATOM     37  H   UNL     1       1.696   4.428  17.576  0.00  0.00    +0.063 HD
ATOM     38  H   UNL     1       4.825   5.745  20.213  0.00  0.00    +0.063 HD
ATOM     39  H   UNL     1       6.487   5.219  18.524  0.00  0.00    +0.064 HD
BRANCH  30  40
ATOM     40  N   UNL     1       6.045   4.190  16.046  0.00  0.00    -0.336 N 
BRANCH  40  41
ATOM     41  C   UNL     1       7.439   4.563  16.279  0.00  0.00    +0.000 C 
ATOM     42  H   UNL     1       7.782   5.292  15.537  0.00  0.00    +0.043 HD
ATOM     43  H   UNL     1       7.578   4.968  17.287  0.00  0.00    +0.043 HD
ATOM     44  H   UNL     1       8.099   3.690  16.216  0.00  0.00    +0.043 HD
ENDBRANCH  40  41
BRANCH  40  45
ATOM     45  C   UNL     1       5.632   4.164  14.642  0.00  0.00    +0.000 C 
ATOM     46  H   UNL     1       6.385   3.669  14.019  0.00  0.00    +0.043 HD
ATOM     47  H   UNL     1       5.447   5.175  14.265  0.00  0.00    +0.043 HD
ATOM     48  H   UNL     1       4.689   3.621  14.514  0.00  0.00    +0.043 HD
ENDBRANCH  40  45
ENDBRANCH  30  40
ENDBRANCH   1  33
TORSDOF 5
ENDMDL
MODEL 3
REMARK VINA RESULT:    -6.382      2.395      8.267
REMARK INTER + INTRA:          -8.134
REMARK INTER:                  -7.827
REMARK INTRA:                  -0.307
REMARK UNBOUND:                -0.260
REMARK  Name = 
REMARK  5 active torsions:
REMARK  status: ('A' for Active; 'I' for Inactive)
REMARK    1  A    between atoms: C_1  and  N_2
REMARK    2  A    between atoms: N_2  and  C_3
REMARK    3  A    between atoms: N_2  and  C_4
REMARK    4  A    between atoms: C_7  and  C_8
REMARK    5  A    between atoms: C_14  and  C_16
REMARK                            x       y       z     vdW  Elec       q    Type
REMARK                         _______ _______ _______ _____ _____    ______ ____
ROOT
ATOM      1  C   UNL     1       2.446   5.292  19.738  0.00  0.00    +0.247 C 
ATOM      2  O   UNL     1       1.962   4.326  20.324  0.00  0.00    -0.270 OA
ATOM      3  N   UNL     1       2.106   6.609  20.033  0.00  0.00    -0.295 N 
ATOM      4  C   UNL     1       1.212   6.848  21.169  0.00  0.00    +0.031 C 
ATOM      5  C   UNL     1       1.262   8.296  21.667  0.00  0.00    +0.031 C 
ATOM      6  N   UNL     1       1.008   9.272  20.601  0.00  0.00    -0.294 N 
ATOM      7  C   UNL     1       0.426  10.485  20.951  0.00  0.00    +0.249 C 
ATOM      8  O   UNL     1       0.110  10.786  22.100  0.00  0.00    -0.270 OA
ATOM      9  C   UNL     1       1.297   8.837  19.228  0.00  0.00    +0.031 C 
ATOM     10  C   UNL     1       2.390   7.759  19.165  0.00  0.00    +0.031 C 
ATOM     11  H   UNL     1       1.465   6.160  21.984  0.00  0.00    +0.048 HD
ATOM     12  H   UNL     1       0.198   6.602  20.831  0.00  0.00    +0.048 HD
ATOM     13  H   UNL     1       2.261   8.520  22.059  0.00  0.00    +0.048 HD
ATOM     14  H   UNL     1       0.547   8.432  22.485  0.00  0.00    +0.048 HD
ATOM     15  H   UNL     1       1.589   9.684  18.606  0.00  0.00    +0.048 HD
ATOM     16  H   UNL     1       0.359   8.439  18.826  0.00  0.00    +0.048 HD
ATOM     17  H   UNL     1       2.515   7.431  18.129  0.00  0.00    +0.048 HD
ATOM     18  H   UNL     1       3.340   8.185  19.509  0.00  0.00    +0.048 HD
ENDROOT
BRANCH   7  19
ATOM     19  C   UNL     1       0.110  11.457  19.894  0.00  0.00    +0.072 A 
ATOM     20  C   UNL     1      -1.110  11.357  19.220  0.00  0.00    -0.047 A 
ATOM     21  C   UNL     1      -1.433  12.297  18.240  0.00  0.00    -0.061 A 
ATOM     22  C   UNL     1      -0.546  13.338  17.947  0.00  0.00    -0.059 A 
ATOM     23  C   UNL     1       0.663  13.443  18.638  0.00  0.00    -0.026 A 
ATOM     24  C   UNL     1       0.983  12.504  19.616  0.00  0.00    +0.135 A 
ATOM     25  F   UNL     1       2.152  12.616  20.264  0.00  0.00    -0.205 F 
ATOM     26  H   UNL     1      -1.807  10.560  19.466  0.00  0.00    +0.063 HD
ATOM     27  H   UNL     1      -2.382  12.227  17.712  0.00  0.00    +0.062 HD
ATOM     28  H   UNL     1      -0.802  14.071  17.187  0.00  0.00    +0.062 HD
ATOM     29  H   UNL     1       1.354  14.253  18.424  0.00  0.00    +0.065 HD
ENDBRANCH   7  19
BRANCH   1  33
ATOM     30  C   UNL     1       5.307   4.464  16.598  0.00  0.00    +0.029 A 
ATOM     31  C   UNL     1       3.965   4.044  16.526  0.00  0.00    -0.040 A 
ATOM     32  C   UNL     1       3.041   4.307  17.546  0.00  0.00    -0.048 A 
ATOM     33  C   UNL     1       3.434   5.030  18.668  0.00  0.00    +0.037 A 
ATOM     34  C   UNL     1       4.754   5.453  18.785  0.00  0.00    -0.048 A 
ATOM     35  C   UNL     1       5.667   5.182  17.756  0.00  0.00    -0.040 A 
ATOM     36  H   UNL     1       3.597   3.489  15.668  0.00  0.00    +0.064 HD
ATOM     37  H   UNL     1       2.019   3.946  17.458  0.00  0.00    +0.063 HD
ATOM     38  H   UNL     1       5.089   5.984  19.672  0.00  0.00    +0.063 HD
ATOM     39  H   UNL     1       6.680   5.549  17.892  0.00  0.00    +0.064 HD
BRANCH  30  40
ATOM     40  N   UNL     1       6.220   4.219  15.565  0.00  0.00    -0.336 N 
BRANCH  40  41
ATOM     41  C   UNL     1       7.568   4.779  15.662  0.00  0.00    +0.000 C 
ATOM     42  H   UNL     1       7.690   5.354  16.586  0.00  0.00    +0.043 HD
ATOM     43  H   UNL     1       8.328   3.992  15.613  0.00  0.00    +0.043 HD
ATOM     44  H   UNL     1       7.780   5.451  14.822  0.00  0.00    +0.043 HD
ENDBRANCH  40  41
BRANCH  40  45
ATOM     45  C   UNL     1       5.715   4.041  14.203  0.00  0.00    +0.000 C 
ATOM     46  H   UNL     1       5.186   3.087  14.101  0.00  0.00    +0.043 HD
ATOM     47  H   UNL     1       6.526   4.094  13.469  0.00  0.00    +0.043 HD
ATOM     48  H   UNL     1       5.013   4.837  13.931  0.00  0.00    +0.043 HD
ENDBRANCH  40  45
ENDBRANCH  30  40
ENDBRANCH   1  33
TORSDOF 5
ENDMDL
MODEL 4
REMARK VINA RESULT:    -6.281      0.691      0.693
REMARK INTER + INTRA:          -8.009
REMARK INTER:                  -8.484
REMARK INTRA:                   0.475
REMARK UNBOUND:                -0.260
REMARK  Name = 
REMARK  5 active torsions:
REMARK  status: ('A' for Active; 'I' for Inactive)
REMARK    1  A    between atoms: C_1  and  N_2
REMARK    2  A    between atoms: N_2  and  C_3
REMARK    3  A    between atoms: N_2  and  C_4
REMARK    4  A    between atoms: C_7  and  C_8
REMARK    5  A    between atoms: C_14  and  C_16
REMARK                            x       y       z     vdW  Elec       q    Type
REMARK                         _______ _______ _______ _____ _____    ______ ____
ROOT
ATOM      1  C   UNL     1       1.367   7.870  20.608  0.00  0.00    +0.247 C 
ATOM      2  O   UNL     1       1.009   7.599  21.751  0.00  0.00    -0.270 OA
ATOM      3  N   UNL     1       1.905   6.929  19.735  0.00  0.00    -0.295 N 
ATOM      4  C   UNL     1       1.941   5.531  20.173  0.00  0.00    +0.031 C 
ATOM      5  C   UNL     1       2.127   4.551  19.009  0.00  0.00    +0.031 C 
ATOM      6  N   UNL     1       3.303   4.861  18.188  0.00  0.00    -0.294 N 
ATOM      7  C   UNL     1       3.943   3.811  17.540  0.00  0.00    +0.249 C 
ATOM      8  O   UNL     1       3.583   2.639  17.617  0.00  0.00    -0.270 OA
ATOM      9  C   UNL     1       3.769   6.254  18.207  0.00  0.00    +0.031 C 
ATOM     10  C   UNL     1       2.642   7.253  18.507  0.00  0.00    +0.031 C 
ATOM     11  H   UNL     1       1.022   5.296  20.720  0.00  0.00    +0.048 HD
ATOM     12  H   UNL     1       2.778   5.441  20.876  0.00  0.00    +0.048 HD
ATOM     13  H   UNL     1       1.261   4.601  18.340  0.00  0.00    +0.048 HD
ATOM     14  H   UNL     1       2.191   3.527  19.393  0.00  0.00    +0.048 HD
ATOM     15  H   UNL     1       4.243   6.518  17.260  0.00  0.00    +0.048 HD
ATOM     16  H   UNL     1       4.536   6.313  18.987  0.00  0.00    +0.048 HD
ATOM     17  H   UNL     1       3.060   8.262  18.571  0.00  0.00    +0.048 HD
ATOM     18  H   UNL     1       1.912   7.234  17.689  0.00  0.00    +0.048 HD
ENDROOT
BRANCH   7  19
ATOM     19  C   UNL     1       5.155   4.088  16.757  0.00  0.00    +0.072 A 
ATOM     20  C   UNL     1       5.080   4.078  15.361  0.00  0.00    -0.047 A 
ATOM     21  C   UNL     1       6.219   4.376  14.610  0.00  0.00    -0.061 A 
ATOM     22  C   UNL     1       7.420   4.694  15.251  0.00  0.00    -0.059 A 
ATOM     23  C   UNL     1       7.483   4.720  16.646  0.00  0.00    -0.026 A 
ATOM     24  C   UNL     1       6.346   4.424  17.394  0.00  0.00    +0.135 A 
ATOM     25  F   UNL     1       6.427   4.446  18.733  0.00  0.00    -0.205 F 
ATOM     26  H   UNL     1       4.140   3.852  14.866  0.00  0.00    +0.063 HD
ATOM     27  H   UNL     1       6.168   4.372  13.523  0.00  0.00    +0.062 HD
ATOM     28  H   UNL     1       8.302   4.930  14.664  0.00  0.00    +0.062 HD
ATOM     29  H   UNL     1       8.408   4.976  17.154  0.00  0.00    +0.065 HD
ENDBRANCH   7  19
BRANCH   1  33
ATOM     30  C   UNL     1       0.886  11.973  19.316  0.00  0.00    +0.029 A 
ATOM     31  C   UNL     1       1.013  11.619  20.673  0.00  0.00    -0.040 A 
ATOM     32  C   UNL     1       1.162  10.290  21.091  0.00  0.00    -0.048 A 
ATOM     33  C   UNL     1       1.216   9.269  20.147  0.00  0.00    +0.037 A 
ATOM     34  C   UNL     1       1.081   9.573  18.796  0.00  0.00    -0.048 A 
ATOM     35  C   UNL     1       0.933  10.909  18.394  0.00  0.00    -0.040 A 
ATOM     36  H   UNL     1       0.994  12.374  21.454  0.00  0.00    +0.064 HD
ATOM     37  H   UNL     1       1.237  10.059  22.151  0.00  0.00    +0.063 HD
ATOM     38  H   UNL     1       1.081   8.785  18.048  0.00  0.00    +0.063 HD
ATOM     39  H   UNL     1       0.849  11.090  17.327  0.00  0.00    +0.064 HD
BRANCH  30  40
ATOM     40  N   UNL     1       0.761  13.306  18.903  0.00  0.00    -0.336 N 
BRANCH  40  41
ATOM     41  C   UNL     1       1.772  14.276  19.323  0.00  0.00    +0.000 C 
ATOM     42  H   UNL     1       2.717  13.778  19.570  0.00  0.00    +0.043 HD
ATOM     43  H   UNL     1       1.943  15.031  18.549  0.00  0.00    +0.043 HD
ATOM     44  H   UNL     1       1.447  14.828  20.213  0.00  0.00    +0.043 HD
ENDBRANCH  40  41
BRANCH  40  45
ATOM     45  C   UNL     1      -0.577  13.854  18.683  0.00  0.00    +0.000 C 
ATOM     46  H   UNL     1      -1.256  13.576  19.497  0.00  0.00    +0.043 HD
ATOM     47  H   UNL     1      -0.991  13.518  17.726  0.00  0.00    +0.043 HD
ATOM     48  H   UNL     1      -0.556  14.948  18.631  0.00  0.00    +0.043 HD
ENDBRANCH  40  45
ENDBRANCH  30  40
ENDBRANCH   1  33
TORSDOF 5
ENDMDL
MODEL 5
REMARK VINA RESULT:    -6.241      2.447      8.315
REMARK INTER + INTRA:          -7.960
REMARK INTER:                  -8.433
REMARK INTRA:                   0.472
REMARK UNBOUND:                -0.260
REMARK  Name = 
REMARK  5 active torsions:
REMARK  status: ('A' for Active; 'I' for Inactive)
REMARK    1  A    between atoms: C_1  and  N_2
REMARK    2  A    between atoms: N_2  and  C_3
REMARK    3  A    between atoms: N_2  and  C_4
REMARK    4  A    between atoms: C_7  and  C_8
REMARK    5  A    between atoms: C_14  and  C_16
REMARK                            x       y       z     vdW  Elec       q    Type
REMARK                         _______ _______ _______ _____ _____    ______ ____
ROOT
ATOM      1  C   UNL     1       2.692   5.309  18.967  0.00  0.00    +0.247 C 
ATOM      2  O   UNL     1       2.286   4.271  19.483  0.00  0.00    -0.270 OA
ATOM      3  N   UNL     1       2.328   6.575  19.415  0.00  0.00    -0.295 N 
ATOM      4  C   UNL     1       1.509   6.664  20.626  0.00  0.00    +0.031 C 
ATOM      5  C   UNL     1       1.543   8.057  21.263  0.00  0.00    +0.031 C 
ATOM      6  N   UNL     1       1.180   9.122  20.320  0.00  0.00    -0.294 N 
ATOM      7  C   UNL     1       0.581  10.269  20.828  0.00  0.00    +0.249 C 
ATOM      8  O   UNL     1       0.337  10.442  22.020  0.00  0.00    -0.270 OA
ATOM      9  C   UNL     1       1.387   8.835  18.894  0.00  0.00    +0.031 C 
ATOM     10  C   UNL     1       2.509   7.816  18.650  0.00  0.00    +0.031 C 
ATOM     11  H   UNL     1       1.843   5.911  21.348  0.00  0.00    +0.048 HD
ATOM     12  H   UNL     1       0.483   6.410  20.334  0.00  0.00    +0.048 HD
ATOM     13  H   UNL     1       2.558   8.283  21.608  0.00  0.00    +0.048 HD
ATOM     14  H   UNL     1       0.883   8.082  22.137  0.00  0.00    +0.048 HD
ATOM     15  H   UNL     1       1.604   9.751  18.342  0.00  0.00    +0.048 HD
ATOM     16  H   UNL     1       0.437   8.440  18.517  0.00  0.00    +0.048 HD
ATOM     17  H   UNL     1       2.572   7.596  17.580  0.00  0.00    +0.048 HD
ATOM     18  H   UNL     1       3.466   8.245  18.971  0.00  0.00    +0.048 HD
ENDROOT
BRANCH   7  19
ATOM     19  C   UNL     1       0.158  11.325  19.898  0.00  0.00    +0.072 A 
ATOM     20  C   UNL     1      -1.097  11.233  19.289  0.00  0.00    -0.047 A 
ATOM     21  C   UNL     1      -1.521  12.250  18.433  0.00  0.00    -0.061 A 
ATOM     22  C   UNL     1      -0.700  13.358  18.198  0.00  0.00    -0.059 A 
ATOM     23  C   UNL     1       0.544  13.453  18.825  0.00  0.00    -0.026 A 
ATOM     24  C   UNL     1       0.965  12.437  19.680  0.00  0.00    +0.135 A 
ATOM     25  F   UNL     1       2.167  12.542  20.268  0.00  0.00    -0.205 F 
ATOM     26  H   UNL     1      -1.741  10.381  19.491  0.00  0.00    +0.063 HD
ATOM     27  H   UNL     1      -2.497  12.186  17.955  0.00  0.00    +0.062 HD
ATOM     28  H   UNL     1      -1.036  14.151  17.535  0.00  0.00    +0.062 HD
ATOM     29  H   UNL     1       1.184  14.314  18.657  0.00  0.00    +0.065 HD
ENDBRANCH   7  19
BRANCH   1  33
ATOM     30  C   UNL     1       5.398   4.914  15.611  0.00  0.00    +0.029 A 
ATOM     31  C   UNL     1       4.649   3.830  16.109  0.00  0.00    -0.040 A 
ATOM     32  C   UNL     1       3.779   3.957  17.200  0.00  0.00    -0.048 A 
ATOM     33  C   UNL     1       3.611   5.195  17.812  0.00  0.00    +0.037 A 
ATOM     34  C   UNL     1       4.341   6.290  17.360  0.00  0.00    -0.048 A 
ATOM     35  C   UNL     1       5.209   6.146  16.267  0.00  0.00    -0.040 A 
ATOM     36  H   UNL     1       4.727   2.842  15.662  0.00  0.00    +0.064 HD
ATOM     37  H   UNL     1       3.235   3.088  17.564  0.00  0.00    +0.063 HD
ATOM     38  H   UNL     1       4.253   7.255  17.851  0.00  0.00    +0.063 HD
ATOM     39  H   UNL     1       5.741   7.037  15.946  0.00  0.00    +0.064 HD
BRANCH  30  40
ATOM     40  N   UNL     1       6.249   4.786  14.506  0.00  0.00    -0.336 N 
BRANCH  40  41
ATOM     41  C   UNL     1       6.001   3.714  13.542  0.00  0.00    +0.000 C 
ATOM     42  H   UNL     1       4.927   3.547  13.406  0.00  0.00    +0.043 HD
ATOM     43  H   UNL     1       6.466   3.936  12.575  0.00  0.00    +0.043 HD
ATOM     44  H   UNL     1       6.445   2.769  13.876  0.00  0.00    +0.043 HD
ENDBRANCH  40  41
BRANCH  40  45
ATOM     45  C   UNL     1       7.647   5.195  14.640  0.00  0.00    +0.000 C 
ATOM     46  H   UNL     1       8.302   4.565  14.028  0.00  0.00    +0.043 HD
ATOM     47  H   UNL     1       7.972   5.159  15.685  0.00  0.00    +0.043 HD
ATOM     48  H   UNL     1       7.791   6.232  14.318  0.00  0.00    +0.043 HD
ENDBRANCH  40  45
ENDBRANCH  30  40
ENDBRANCH   1  33
TORSDOF 5
ENDMDL
MODEL 6
REMARK VINA RESULT:    -6.236      0.923      1.324
REMARK INTER + INTRA:          -7.954
REMARK INTER:                  -7.808
REMARK INTRA:                  -0.146
REMARK UNBOUND:                -0.260
REMARK  Name = 
REMARK  5 active torsions:
REMARK  status: ('A' for Active; 'I' for Inactive)
REMARK    1  A    between atoms: C_1  and  N_2
REMARK    2  A    between atoms: N_2  and  C_3
REMARK    3  A    between atoms: N_2  and  C_4
REMARK    4  A    between atoms: C_7  and  C_8
REMARK    5  A    between atoms: C_14  and  C_16
REMARK                            x       y       z     vdW  Elec       q    Type
REMARK                         _______ _______ _______ _____ _____    ______ ____
ROOT
ATOM      1  C   UNL     1       0.852   8.345  21.031  0.00  0.00    +0.247 C 
ATOM      2  O   UNL     1       0.370   8.172  22.147  0.00  0.00    -0.270 OA
ATOM      3  N   UNL     1       1.488   7.338  20.311  0.00  0.00    -0.295 N 
ATOM      4  C   UNL     1       1.480   5.985  20.874  0.00  0.00    +0.031 C 
ATOM      5  C   UNL     1       1.798   4.908  19.831  0.00  0.00    +0.031 C 
ATOM      6  N   UNL     1       3.057   5.160  19.120  0.00  0.00    -0.294 N 
ATOM      7  C   UNL     1       3.770   4.065  18.644  0.00  0.00    +0.249 C 
ATOM      8  O   UNL     1       3.407   2.900  18.786  0.00  0.00    -0.270 OA
ATOM      9  C   UNL     1       3.513   6.556  19.065  0.00  0.00    +0.031 C 
ATOM     10  C   UNL     1       2.355   7.562  19.148  0.00  0.00    +0.031 C 
ATOM     11  H   UNL     1       0.506   5.787  21.336  0.00  0.00    +0.048 HD
ATOM     12  H   UNL     1       2.234   5.969  21.671  0.00  0.00    +0.048 HD
ATOM     13  H   UNL     1       1.012   4.887  19.068  0.00  0.00    +0.048 HD
ATOM     14  H   UNL     1       1.823   3.924  20.310  0.00  0.00    +0.048 HD
ATOM     15  H   UNL     1       4.088   6.741  18.156  0.00  0.00    +0.048 HD
ATOM     16  H   UNL     1       4.188   6.695  19.917  0.00  0.00    +0.048 HD
ATOM     17  H   UNL     1       2.760   8.578  19.167  0.00  0.00    +0.048 HD
ATOM     18  H   UNL     1       1.721   7.460  18.259  0.00  0.00    +0.048 HD
ENDROOT
BRANCH   7  19
ATOM     19  C   UNL     1       5.060   4.289  17.978  0.00  0.00    +0.072 A 
ATOM     20  C   UNL     1       6.190   4.560  18.756  0.00  0.00    -0.047 A 
ATOM     21  C   UNL     1       7.427   4.737  18.133  0.00  0.00    -0.061 A 
ATOM     22  C   UNL     1       7.534   4.631  16.743  0.00  0.00    -0.059 A 
ATOM     23  C   UNL     1       6.406   4.341  15.974  0.00  0.00    -0.026 A 
ATOM     24  C   UNL     1       5.172   4.163  16.597  0.00  0.00    +0.135 A 
ATOM     25  F   UNL     1       4.097   3.893  15.841  0.00  0.00    -0.205 F 
ATOM     26  H   UNL     1       6.107   4.620  19.838  0.00  0.00    +0.063 HD
ATOM     27  H   UNL     1       8.310   4.947  18.732  0.00  0.00    +0.062 HD
ATOM     28  H   UNL     1       8.499   4.764  16.262  0.00  0.00    +0.062 HD
ATOM     29  H   UNL     1       6.480   4.246  14.894  0.00  0.00    +0.065 HD
ENDBRANCH   7  19
BRANCH   1  33
ATOM     30  C   UNL     1       0.539  12.319  19.345  0.00  0.00    +0.029 A 
ATOM     31  C   UNL     1       1.199  12.066  20.563  0.00  0.00    -0.040 A 
ATOM     32  C   UNL     1       1.294  10.780  21.111  0.00  0.00    -0.048 A 
ATOM     33  C   UNL     1       0.747   9.695  20.433  0.00  0.00    +0.037 A 
ATOM     34  C   UNL     1       0.075   9.903  19.232  0.00  0.00    -0.048 A 
ATOM     35  C   UNL     1      -0.012  11.196  18.696  0.00  0.00    -0.040 A 
ATOM     36  H   UNL     1       1.658  12.871  21.130  0.00  0.00    +0.064 HD
ATOM     37  H   UNL     1       1.796  10.632  22.064  0.00  0.00    +0.063 HD
ATOM     38  H   UNL     1      -0.392   9.073  18.709  0.00  0.00    +0.063 HD
ATOM     39  H   UNL     1      -0.533  11.298  17.750  0.00  0.00    +0.064 HD
BRANCH  30  40
ATOM     40  N   UNL     1       0.468  13.603  18.790  0.00  0.00    -0.336 N 
BRANCH  40  41
ATOM     41  C   UNL     1       1.705  14.269  18.382  0.00  0.00    +0.000 C 
ATOM     42  H   UNL     1       2.340  13.595  17.796  0.00  0.00    +0.043 HD
ATOM     43  H   UNL     1       1.495  15.175  17.804  0.00  0.00    +0.043 HD
ATOM     44  H   UNL     1       2.284  14.598  19.252  0.00  0.00    +0.043 HD
ENDBRANCH  40  41
BRANCH  40  45
ATOM     45  C   UNL     1      -0.612  14.496  19.212  0.00  0.00    +0.000 C 
ATOM     46  H   UNL     1      -0.887  14.315  20.257  0.00  0.00    +0.043 HD
ATOM     47  H   UNL     1      -1.494  14.381  18.573  0.00  0.00    +0.043 HD
ATOM     48  H   UNL     1      -0.316  15.547  19.127  0.00  0.00    +0.043 HD
ENDBRANCH  40  45
ENDBRANCH  30  40
ENDBRANCH   1  33
TORSDOF 5
ENDMDL
MODEL 7
REMARK VINA RESULT:    -6.228      3.093      4.774
REMARK INTER + INTRA:          -7.945
REMARK INTER:                  -7.589
REMARK INTRA:                  -0.355
REMARK UNBOUND:                -0.260
REMARK  Name = 
REMARK  5 active torsions:
REMARK  status: ('A' for Active; 'I' for Inactive)
REMARK    1  A    between atoms: C_1  and  N_2
REMARK    2  A    between atoms: N_2  and  C_3
REMARK    3  A    between atoms: N_2  and  C_4
REMARK    4  A    between atoms: C_7  and  C_8
REMARK    5  A    between atoms: C_14  and  C_16
REMARK                            x       y       z     vdW  Elec       q    Type
REMARK                         _______ _______ _______ _____ _____    ______ ____
ROOT
ATOM      1  C   UNL     1       0.207  11.471  19.005  0.00  0.00    +0.247 C 
ATOM      2  O   UNL     1       0.045  12.121  17.976  0.00  0.00    -0.270 OA
ATOM      3  N   UNL     1       0.920  10.276  19.046  0.00  0.00    -0.295 N 
ATOM      4  C   UNL     1       1.596   9.840  17.821  0.00  0.00    +0.031 C 
ATOM      5  C   UNL     1       2.682   8.792  18.086  0.00  0.00    +0.031 C 
ATOM      6  N   UNL     1       2.182   7.633  18.835  0.00  0.00    -0.294 N 
ATOM      7  C   UNL     1       2.798   6.404  18.626  0.00  0.00    +0.249 C 
ATOM      8  O   UNL     1       3.735   6.232  17.851  0.00  0.00    -0.270 OA
ATOM      9  C   UNL     1       0.993   7.853  19.670  0.00  0.00    +0.031 C 
ATOM     10  C   UNL     1       0.864   9.307  20.148  0.00  0.00    +0.031 C 
ATOM     11  H   UNL     1       2.028  10.710  17.314  0.00  0.00    +0.048 HD
ATOM     12  H   UNL     1       0.824   9.423  17.164  0.00  0.00    +0.048 HD
ATOM     13  H   UNL     1       3.481   9.231  18.694  0.00  0.00    +0.048 HD
ATOM     14  H   UNL     1       3.125   8.469  17.138  0.00  0.00    +0.048 HD
ATOM     15  H   UNL     1       0.997   7.188  20.535  0.00  0.00    +0.048 HD
ATOM     16  H   UNL     1       0.127   7.587  19.053  0.00  0.00    +0.048 HD
ATOM     17  H   UNL     1      -0.069   9.423  20.708  0.00  0.00    +0.048 HD
ATOM     18  H   UNL     1       1.700   9.545  20.817  0.00  0.00    +0.048 HD
ENDROOT
BRANCH   7  19
ATOM     19  C   UNL     1       2.279   5.218  19.323  0.00  0.00    +0.072 A 
ATOM     20  C   UNL     1       2.556   5.053  20.683  0.00  0.00    -0.047 A 
ATOM     21  C   UNL     1       2.037   3.948  21.360  0.00  0.00    -0.061 A 
ATOM     22  C   UNL     1       1.236   3.023  20.684  0.00  0.00    -0.059 A 
ATOM     23  C   UNL     1       0.948   3.204  19.329  0.00  0.00    -0.026 A 
ATOM     24  C   UNL     1       1.466   4.308  18.655  0.00  0.00    +0.135 A 
ATOM     25  F   UNL     1       1.185   4.462  17.353  0.00  0.00    -0.205 F 
ATOM     26  H   UNL     1       3.160   5.786  21.211  0.00  0.00    +0.063 HD
ATOM     27  H   UNL     1       2.247   3.813  22.420  0.00  0.00    +0.062 HD
ATOM     28  H   UNL     1       0.829   2.167  21.215  0.00  0.00    +0.062 HD
ATOM     29  H   UNL     1       0.319   2.497  18.797  0.00  0.00    +0.065 HD
ENDBRANCH   7  19
BRANCH   1  33
ATOM     30  C   UNL     1      -1.602  13.003  22.627  0.00  0.00    +0.029 A 
ATOM     31  C   UNL     1      -2.329  12.264  21.674  0.00  0.00    -0.040 A 
ATOM     32  C   UNL     1      -1.745  11.774  20.498  0.00  0.00    -0.048 A 
ATOM     33  C   UNL     1      -0.392  11.990  20.256  0.00  0.00    +0.037 A 
ATOM     34  C   UNL     1       0.361  12.726  21.165  0.00  0.00    -0.048 A 
ATOM     35  C   UNL     1      -0.239  13.210  22.336  0.00  0.00    -0.040 A 
ATOM     36  H   UNL     1      -3.385  12.050  21.817  0.00  0.00    +0.064 HD
ATOM     37  H   UNL     1      -2.349  11.224  19.780  0.00  0.00    +0.063 HD
ATOM     38  H   UNL     1       1.409  12.939  20.972  0.00  0.00    +0.063 HD
ATOM     39  H   UNL     1       0.399  13.764  23.018  0.00  0.00    +0.064 HD
BRANCH  30  40
ATOM     40  N   UNL     1      -2.186  13.469  23.811  0.00  0.00    -0.336 N 
BRANCH  40  41
ATOM     41  C   UNL     1      -3.578  13.126  24.098  0.00  0.00    +0.000 C 
ATOM     42  H   UNL     1      -4.019  13.830  24.812  0.00  0.00    +0.043 HD
ATOM     43  H   UNL     1      -4.178  13.104  23.182  0.00  0.00    +0.043 HD
ATOM     44  H   UNL     1      -3.658  12.121  24.530  0.00  0.00    +0.043 HD
ENDBRANCH  40  41
BRANCH  40  45
ATOM     45  C   UNL     1      -1.729  14.742  24.371  0.00  0.00    +0.000 C 
ATOM     46  H   UNL     1      -0.638  14.828  24.312  0.00  0.00    +0.043 HD
ATOM     47  H   UNL     1      -2.052  14.857  25.410  0.00  0.00    +0.043 HD
ATOM     48  H   UNL     1      -2.157  15.592  23.829  0.00  0.00    +0.043 HD
ENDBRANCH  40  45
ENDBRANCH  30  40
ENDBRANCH   1  33
TORSDOF 5
ENDMDL
MODEL 8
REMARK VINA RESULT:    -5.842      2.636      8.318
REMARK INTER + INTRA:          -7.468
REMARK INTER:                  -7.370
REMARK INTRA:                  -0.098
REMARK UNBOUND:                -0.260
REMARK  Name = 
REMARK  5 active torsions:
REMARK  status: ('A' for Active; 'I' for Inactive)
REMARK    1  A    between atoms: C_1  and  N_2
REMARK    2  A    between atoms: N_2  and  C_3
REMARK    3  A    between atoms: N_2  and  C_4
REMARK    4  A    between atoms: C_7  and  C_8
REMARK    5  A    between atoms: C_14  and  C_16
REMARK                            x       y       z     vdW  Elec       q    Type
REMARK                         _______ _______ _______ _____ _____    ______ ____
ROOT
ATOM      1  C   UNL     1       3.291   5.246  19.385  0.00  0.00    +0.247 C 
ATOM      2  O   UNL     1       3.166   4.300  20.159  0.00  0.00    -0.270 OA
ATOM      3  N   UNL     1       2.670   6.475  19.581  0.00  0.00    -0.295 N 
ATOM      4  C   UNL     1       1.923   6.676  20.826  0.00  0.00    +0.031 C 
ATOM      5  C   UNL     1       1.670   8.156  21.132  0.00  0.00    +0.031 C 
ATOM      6  N   UNL     1       1.017   8.862  20.024  0.00  0.00    -0.294 N 
ATOM      7  C   UNL     1       0.199   9.943  20.330  0.00  0.00    +0.249 C 
ATOM      8  O   UNL     1      -0.010  10.341  21.474  0.00  0.00    -0.270 OA
ATOM      9  C   UNL     1       1.201   8.293  18.682  0.00  0.00    +0.031 C 
ATOM     10  C   UNL     1       2.514   7.507  18.547  0.00  0.00    +0.031 C 
ATOM     11  H   UNL     1       2.464   6.206  21.655  0.00  0.00    +0.048 HD
ATOM     12  H   UNL     1       0.969   6.148  20.711  0.00  0.00    +0.048 HD
ATOM     13  H   UNL     1       2.624   8.667  21.305  0.00  0.00    +0.048 HD
ATOM     14  H   UNL     1       1.073   8.248  22.046  0.00  0.00    +0.048 HD
ATOM     15  H   UNL     1       1.168   9.075  17.922  0.00  0.00    +0.048 HD
ATOM     16  H   UNL     1       0.349   7.627  18.508  0.00  0.00    +0.048 HD
ATOM     17  H   UNL     1       2.564   7.056  17.551  0.00  0.00    +0.048 HD
ATOM     18  H   UNL     1       3.361   8.193  18.658  0.00  0.00    +0.048 HD
ENDROOT
BRANCH   7  19
ATOM     19  C   UNL     1      -0.511  10.632  19.243  0.00  0.00    +0.072 A 
ATOM     20  C   UNL     1      -1.577   9.986  18.610  0.00  0.00    -0.047 A 
ATOM     21  C   UNL     1      -2.279  10.648  17.601  0.00  0.00    -0.061 A 
ATOM     22  C   UNL     1      -1.924  11.951  17.237  0.00  0.00    -0.059 A 
ATOM     23  C   UNL     1      -0.870  12.597  17.886  0.00  0.00    -0.026 A 
ATOM     24  C   UNL     1      -0.172  11.936  18.894  0.00  0.00    +0.135 A 
ATOM     25  F   UNL     1       0.843  12.569  19.502  0.00  0.00    -0.205 F 
ATOM     26  H   UNL     1      -1.864   8.982  18.910  0.00  0.00    +0.063 HD
ATOM     27  H   UNL     1      -3.111  10.153  17.104  0.00  0.00    +0.062 HD
ATOM     28  H   UNL     1      -2.476  12.465  16.455  0.00  0.00    +0.062 HD
ATOM     29  H   UNL     1      -0.594  13.612  17.619  0.00  0.00    +0.065 HD
ENDBRANCH   7  19
BRANCH   1  33
ATOM     30  C   UNL     1       5.771   4.624  15.893  0.00  0.00    +0.029 A 
ATOM     31  C   UNL     1       4.601   3.878  16.130  0.00  0.00    -0.040 A 
ATOM     32  C   UNL     1       3.802   4.075  17.264  0.00  0.00    -0.048 A 
ATOM     33  C   UNL     1       4.143   5.056  18.190  0.00  0.00    +0.037 A 
ATOM     34  C   UNL     1       5.299   5.808  18.001  0.00  0.00    -0.048 A 
ATOM     35  C   UNL     1       6.088   5.598  16.861  0.00  0.00    -0.040 A 
ATOM     36  H   UNL     1       4.276   3.109  15.435  0.00  0.00    +0.064 HD
ATOM     37  H   UNL     1       2.916   3.463  17.417  0.00  0.00    +0.063 HD
ATOM     38  H   UNL     1       5.602   6.551  18.734  0.00  0.00    +0.063 HD
ATOM     39  H   UNL     1       6.969   6.223  16.756  0.00  0.00    +0.064 HD
BRANCH  30  40
ATOM     40  N   UNL     1       6.553   4.438  14.746  0.00  0.00    -0.336 N 
BRANCH  40  41
ATOM     41  C   UNL     1       7.586   5.422  14.425  0.00  0.00    +0.000 C 
ATOM     42  H   UNL     1       8.027   5.841  15.336  0.00  0.00    +0.043 HD
ATOM     43  H   UNL     1       8.372   4.983  13.801  0.00  0.00    +0.043 HD
ATOM     44  H   UNL     1       7.174   6.255  13.843  0.00  0.00    +0.043 HD
ENDBRANCH  40  41
BRANCH  40  45
ATOM     45  C   UNL     1       5.966   3.751  13.595  0.00  0.00    +0.000 C 
ATOM     46  H   UNL     1       5.071   4.274  13.238  0.00  0.00    +0.043 HD
ATOM     47  H   UNL     1       5.714   2.714  13.839  0.00  0.00    +0.043 HD
ATOM     48  H   UNL     1       6.672   3.699  12.759  0.00  0.00    +0.043 HD
ENDBRANCH  40  45
ENDBRANCH  30  40
ENDBRANCH   1  33
TORSDOF 5
ENDMDL
MODEL 9
REMARK VINA RESULT:    -5.820      3.880      9.419
REMARK INTER + INTRA:          -7.441
REMARK INTER:                  -7.448
REMARK INTRA:                   0.007
REMARK UNBOUND:                -0.260
REMARK  Name = 
REMARK  5 active torsions:
REMARK  status: ('A' for Active; 'I' for Inactive)
REMARK    1  A    between atoms: C_1  and  N_2
REMARK    2  A    between atoms: N_2  and  C_3
REMARK    3  A    between atoms: N_2  and  C_4
REMARK    4  A    between atoms: C_7  and  C_8
REMARK    5  A    between atoms: C_14  and  C_16
REMARK                            x       y       z     vdW  Elec       q    Type
REMARK                         _______ _______ _______ _____ _____    ______ ____
ROOT
ATOM      1  C   UNL     1       2.487   8.193  18.447  0.00  0.00    +0.247 C 
ATOM      2  O   UNL     1       3.537   8.394  17.842  0.00  0.00    -0.270 OA
ATOM      3  N   UNL     1       1.556   9.194  18.709  0.00  0.00    -0.295 N 
ATOM      4  C   UNL     1       1.798  10.521  18.137  0.00  0.00    +0.031 C 
ATOM      5  C   UNL     1       0.538  11.392  18.108  0.00  0.00    +0.031 C 
ATOM      6  N   UNL     1      -0.102  11.510  19.424  0.00  0.00    -0.294 N 
ATOM      7  C   UNL     1      -0.815  12.670  19.702  0.00  0.00    +0.249 C 
ATOM      8  O   UNL     1      -0.940  13.602  18.912  0.00  0.00    -0.270 OA
ATOM      9  C   UNL     1       0.159  10.426  20.381  0.00  0.00    +0.031 C 
ATOM     10  C   UNL     1       0.471   9.089  19.693  0.00  0.00    +0.031 C 
ATOM     11  H   UNL     1       2.206  10.414  17.126  0.00  0.00    +0.048 HD
ATOM     12  H   UNL     1       2.569  10.997  18.757  0.00  0.00    +0.048 HD
ATOM     13  H   UNL     1      -0.208  10.944  17.442  0.00  0.00    +0.048 HD
ATOM     14  H   UNL     1       0.781  12.384  17.714  0.00  0.00    +0.048 HD
ATOM     15  H   UNL     1      -0.686  10.295  21.059  0.00  0.00    +0.048 HD
ATOM     16  H   UNL     1       1.018  10.744  20.983  0.00  0.00    +0.048 HD
ATOM     17  H   UNL     1       0.718   8.340  20.452  0.00  0.00    +0.048 HD
ATOM     18  H   UNL     1      -0.416   8.746  19.147  0.00  0.00    +0.048 HD
ENDROOT
BRANCH   7  19
ATOM     19  C   UNL     1      -1.418  12.836  21.033  0.00  0.00    +0.072 A 
ATOM     20  C   UNL     1      -0.626  13.306  22.084  0.00  0.00    -0.047 A 
ATOM     21  C   UNL     1      -1.200  13.501  23.342  0.00  0.00    -0.061 A 
ATOM     22  C   UNL     1      -2.558  13.239  23.542  0.00  0.00    -0.059 A 
ATOM     23  C   UNL     1      -3.348  12.787  22.482  0.00  0.00    -0.026 A 
ATOM     24  C   UNL     1      -2.774  12.595  21.227  0.00  0.00    +0.135 A 
ATOM     25  F   UNL     1      -3.546  12.153  20.223  0.00  0.00    -0.205 F 
ATOM     26  H   UNL     1       0.425  13.530  21.920  0.00  0.00    +0.063 HD
ATOM     27  H   UNL     1      -0.590  13.867  24.166  0.00  0.00    +0.062 HD
ATOM     28  H   UNL     1      -3.003  13.396  24.521  0.00  0.00    +0.062 HD
ATOM     29  H   UNL     1      -4.406  12.591  22.624  0.00  0.00    +0.065 HD
ENDBRANCH   7  19
BRANCH   1  33
ATOM     30  C   UNL     1       1.638   4.159  19.768  0.00  0.00    +0.029 A 
ATOM     31  C   UNL     1       1.829   4.485  18.411  0.00  0.00    -0.040 A 
ATOM     32  C   UNL     1       2.097   5.792  17.984  0.00  0.00    -0.048 A 
ATOM     33  C   UNL     1       2.210   6.817  18.918  0.00  0.00    +0.037 A 
ATOM     34  C   UNL     1       2.016   6.542  20.268  0.00  0.00    -0.048 A 
ATOM     35  C   UNL     1       1.748   5.228  20.680  0.00  0.00    -0.040 A 
ATOM     36  H   UNL     1       1.768   3.723  17.639  0.00  0.00    +0.064 HD
ATOM     37  H   UNL     1       2.218   6.002  16.924  0.00  0.00    +0.063 HD
ATOM     38  H   UNL     1       2.061   7.337  21.007  0.00  0.00    +0.063 HD
ATOM     39  H   UNL     1       1.622   5.068  21.746  0.00  0.00    +0.064 HD
BRANCH  30  40
ATOM     40  N   UNL     1       1.394   2.847  20.192  0.00  0.00    -0.336 N 
BRANCH  40  41
ATOM     41  C   UNL     1       1.573   2.513  21.604  0.00  0.00    +0.000 C 
ATOM     42  H   UNL     1       0.720   2.856  22.201  0.00  0.00    +0.043 HD
ATOM     43  H   UNL     1       1.712   1.435  21.743  0.00  0.00    +0.043 HD
ATOM     44  H   UNL     1       2.474   2.985  22.013  0.00  0.00    +0.043 HD
ENDBRANCH  40  41
BRANCH  40  45
ATOM     45  C   UNL     1       1.629   1.747  19.255  0.00  0.00    +0.000 C 
ATOM     46  H   UNL     1       0.958   1.816  18.392  0.00  0.00    +0.043 HD
ATOM     47  H   UNL     1       1.502   0.776  19.745  0.00  0.00    +0.043 HD
ATOM     48  H   UNL     1       2.657   1.760  18.876  0.00  0.00    +0.043 HD
ENDBRANCH  40  45
ENDBRANCH  30  40
ENDBRANCH   1  33
TORSDOF 5
ENDMDL
MODEL 10
REMARK VINA RESULT:    -5.591      3.328      4.967
REMARK INTER + INTRA:          -7.159
REMARK INTER:                  -7.206
REMARK INTRA:                   0.048
REMARK UNBOUND:                -0.260
REMARK  Name = 
REMARK  5 active torsions:
REMARK  status: ('A' for Active; 'I' for Inactive)
REMARK    1  A    between atoms: C_1  and  N_2
REMARK    2  A    between atoms: N_2  and  C_3
REMARK    3  A    between atoms: N_2  and  C_4
REMARK    4  A    between atoms: C_7  and  C_8
REMARK    5  A    between atoms: C_14  and  C_16
REMARK                            x       y       z     vdW  Elec       q    Type
REMARK                         _______ _______ _______ _____ _____    ______ ____
ROOT
ATOM      1  C   UNL     1      -0.161  11.907  19.380  0.00  0.00    +0.247 C 
ATOM      2  O   UNL     1      -0.210  12.706  18.448  0.00  0.00    -0.270 OA
ATOM      3  N   UNL     1       0.580  10.729  19.334  0.00  0.00    -0.295 N 
ATOM      4  C   UNL     1       1.423  10.495  18.159  0.00  0.00    +0.031 C 
ATOM      5  C   UNL     1       2.498   9.432  18.404  0.00  0.00    +0.031 C 
ATOM      6  N   UNL     1       1.944   8.166  18.897  0.00  0.00    -0.294 N 
ATOM      7  C   UNL     1       2.621   6.991  18.589  0.00  0.00    +0.249 C 
ATOM      8  O   UNL     1       3.655   6.952  17.928  0.00  0.00    -0.270 OA
ATOM      9  C   UNL     1       0.651   8.240  19.591  0.00  0.00    +0.031 C 
ATOM     10  C   UNL     1       0.414   9.602  20.261  0.00  0.00    +0.031 C 
ATOM     11  H   UNL     1       1.887  11.438  17.849  0.00  0.00    +0.048 HD
ATOM     12  H   UNL     1       0.755  10.173  17.350  0.00  0.00    +0.048 HD
ATOM     13  H   UNL     1       3.198   9.782  19.172  0.00  0.00    +0.048 HD
ATOM     14  H   UNL     1       3.070   9.264  17.486  0.00  0.00    +0.048 HD
ATOM     15  H   UNL     1       0.565   7.450  20.338  0.00  0.00    +0.048 HD
ATOM     16  H   UNL     1      -0.119   8.061  18.831  0.00  0.00    +0.048 HD
ATOM     17  H   UNL     1      -0.586   9.618  20.703  0.00  0.00    +0.048 HD
ATOM     18  H   UNL     1       1.148   9.744  21.062  0.00  0.00    +0.048 HD
ENDROOT
BRANCH   7  19
ATOM     19  C   UNL     1       2.056   5.706  19.024  0.00  0.00    +0.072 A 
ATOM     20  C   UNL     1       1.706   4.756  18.061  0.00  0.00    -0.047 A 
ATOM     21  C   UNL     1       1.202   3.519  18.467  0.00  0.00    -0.061 A 
ATOM     22  C   UNL     1       1.063   3.231  19.828  0.00  0.00    -0.059 A 
ATOM     23  C   UNL     1       1.433   4.177  20.786  0.00  0.00    -0.026 A 
ATOM     24  C   UNL     1       1.936   5.411  20.379  0.00  0.00    +0.135 A 
ATOM     25  F   UNL     1       2.279   6.310  21.312  0.00  0.00    -0.205 F 
ATOM     26  H   UNL     1       1.836   4.975  17.004  0.00  0.00    +0.063 HD
ATOM     27  H   UNL     1       0.928   2.774  17.723  0.00  0.00    +0.062 HD
ATOM     28  H   UNL     1       0.676   2.265  20.141  0.00  0.00    +0.062 HD
ATOM     29  H   UNL     1       1.338   3.959  21.845  0.00  0.00    +0.065 HD
ENDBRANCH   7  19
BRANCH   1  33
ATOM     30  C   UNL     1      -2.459  12.862  22.921  0.00  0.00    +0.029 A 
ATOM     31  C   UNL     1      -3.061  12.640  21.667  0.00  0.00    -0.040 A 
ATOM     32  C   UNL     1      -2.316  12.337  20.520  0.00  0.00    -0.048 A 
ATOM     33  C   UNL     1      -0.932  12.220  20.604  0.00  0.00    +0.037 A 
ATOM     34  C   UNL     1      -0.296  12.444  21.821  0.00  0.00    -0.048 A 
ATOM     35  C   UNL     1      -1.056  12.746  22.960  0.00  0.00    -0.040 A 
ATOM     36  H   UNL     1      -4.139  12.703  21.544  0.00  0.00    +0.064 HD
ATOM     37  H   UNL     1      -2.821  12.193  19.567  0.00  0.00    +0.063 HD
ATOM     38  H   UNL     1       0.787  12.396  21.896  0.00  0.00    +0.063 HD
ATOM     39  H   UNL     1      -0.509  12.895  23.885  0.00  0.00    +0.064 HD
BRANCH  30  40
ATOM     40  N   UNL     1      -3.212  13.141  24.069  0.00  0.00    -0.336 N 
BRANCH  40  41
ATOM     41  C   UNL     1      -4.358  12.291  24.388  0.00  0.00    +0.000 C 
ATOM     42  H   UNL     1      -4.097  11.230  24.307  0.00  0.00    +0.043 HD
ATOM     43  H   UNL     1      -4.740  12.502  25.393  0.00  0.00    +0.043 HD
ATOM     44  H   UNL     1      -5.195  12.480  23.706  0.00  0.00    +0.043 HD
ENDBRANCH  40  41
BRANCH  40  45
ATOM     45  C   UNL     1      -3.315  14.527  24.526  0.00  0.00    +0.000 C 
ATOM     46  H   UNL     1      -2.409  14.832  25.063  0.00  0.00    +0.043 HD
ATOM     47  H   UNL     1      -4.190  14.668  25.169  0.00  0.00    +0.043 HD
ATOM     48  H   UNL     1      -3.448  15.215  23.684  0.00  0.00    +0.043 HD
ENDBRANCH  40  45
ENDBRANCH  30  40
ENDBRANCH   1  33
TORSDOF 5
ENDMDL
MODEL 11
REMARK VINA RESULT:    -5.464      4.375      9.970
REMARK INTER + INTRA:          -7.002
REMARK INTER:                  -7.310
REMARK INTRA:                   0.309
REMARK UNBOUND:                -0.260
REMARK  Name = 
REMARK  5 active torsions:
REMARK  status: ('A' for Active; 'I' for Inactive)
REMARK    1  A    between atoms: C_1  and  N_2
REMARK    2  A    between atoms: N_2  and  C_3
REMARK    3  A    between atoms: N_2  and  C_4
REMARK    4  A    between atoms: C_7  and  C_8
REMARK    5  A    between atoms: C_14  and  C_16
REMARK                            x       y       z     vdW  Elec       q    Type
REMARK                         _______ _______ _______ _____ _____    ______ ____
ROOT
ATOM      1  C   UNL     1       1.533  10.450  18.594  0.00  0.00    +0.247 C 
ATOM      2  O   UNL     1       2.381  11.004  17.898  0.00  0.00    -0.270 OA
ATOM      3  N   UNL     1       0.412  11.106  19.094  0.00  0.00    -0.295 N 
ATOM      4  C   UNL     1       0.186  12.492  18.676  0.00  0.00    +0.031 C 
ATOM      5  C   UNL     1      -1.255  12.954  18.912  0.00  0.00    +0.031 C 
ATOM      6  N   UNL     1      -1.694  12.760  20.299  0.00  0.00    -0.294 N 
ATOM      7  C   UNL     1      -2.650  13.630  20.810  0.00  0.00    +0.249 C 
ATOM      8  O   UNL     1      -3.148  14.552  20.169  0.00  0.00    -0.270 OA
ATOM      9  C   UNL     1      -1.000  11.718  21.068  0.00  0.00    +0.031 C 
ATOM     10  C   UNL     1      -0.438  10.599  20.179  0.00  0.00    +0.031 C 
ATOM     11  H   UNL     1       0.449  12.601  17.618  0.00  0.00    +0.048 HD
ATOM     12  H   UNL     1       0.879  13.114  19.255  0.00  0.00    +0.048 HD
ATOM     13  H   UNL     1      -1.940  12.369  18.287  0.00  0.00    +0.048 HD
ATOM     14  H   UNL     1      -1.360  14.006  18.624  0.00  0.00    +0.048 HD
ATOM     15  H   UNL     1      -1.662  11.284  21.819  0.00  0.00    +0.048 HD
ATOM     16  H   UNL     1      -0.181  12.218  21.599  0.00  0.00    +0.048 HD
ATOM     17  H   UNL     1       0.120   9.890  20.798  0.00  0.00    +0.048 HD
ATOM     18  H   UNL     1      -1.267  10.062  19.703  0.00  0.00    +0.048 HD
ENDROOT
BRANCH   7  19
ATOM     19  C   UNL     1      -3.065  13.490  22.213  0.00  0.00    +0.072 A 
ATOM     20  C   UNL     1      -2.319  14.127  23.209  0.00  0.00    -0.047 A 
ATOM     21  C   UNL     1      -2.727  14.030  24.541  0.00  0.00    -0.061 A 
ATOM     22  C   UNL     1      -3.880  13.311  24.871  0.00  0.00    -0.059 A 
ATOM     23  C   UNL     1      -4.631  12.693  23.869  0.00  0.00    -0.026 A 
ATOM     24  C   UNL     1      -4.223  12.792  22.540  0.00  0.00    +0.135 A 
ATOM     25  F   UNL     1      -4.953  12.186  21.592  0.00  0.00    -0.205 F 
ATOM     26  H   UNL     1      -1.436  14.704  22.947  0.00  0.00    +0.063 HD
ATOM     27  H   UNL     1      -2.153  14.524  25.322  0.00  0.00    +0.062 HD
ATOM     28  H   UNL     1      -4.198  13.241  25.908  0.00  0.00    +0.062 HD
ATOM     29  H   UNL     1      -5.534  12.141  24.113  0.00  0.00    +0.065 HD
ENDBRANCH   7  19
BRANCH   1  33
ATOM     30  C   UNL     1       2.117   6.277  19.582  0.00  0.00    +0.029 A 
ATOM     31  C   UNL     1       1.687   7.224  20.531  0.00  0.00    -0.040 A 
ATOM     32  C   UNL     1       1.505   8.576  20.212  0.00  0.00    -0.048 A 
ATOM     33  C   UNL     1       1.724   9.016  18.911  0.00  0.00    +0.037 A 
ATOM     34  C   UNL     1       2.162   8.116  17.944  0.00  0.00    -0.048 A 
ATOM     35  C   UNL     1       2.340   6.766  18.280  0.00  0.00    -0.040 A 
ATOM     36  H   UNL     1       1.486   6.936  21.559  0.00  0.00    +0.064 HD
ATOM     37  H   UNL     1       1.191   9.278  20.981  0.00  0.00    +0.063 HD
ATOM     38  H   UNL     1       2.376   8.450  16.933  0.00  0.00    +0.063 HD
ATOM     39  H   UNL     1       2.666   6.104  17.483  0.00  0.00    +0.064 HD
BRANCH  30  40
ATOM     40  N   UNL     1       2.274   4.922  19.901  0.00  0.00    -0.336 N 
BRANCH  40  41
ATOM     41  C   UNL     1       3.305   4.147  19.212  0.00  0.00    +0.000 C 
ATOM     42  H   UNL     1       2.874   3.269  18.718  0.00  0.00    +0.043 HD
ATOM     43  H   UNL     1       3.839   4.760  18.479  0.00  0.00    +0.043 HD
ATOM     44  H   UNL     1       4.069   3.790  19.914  0.00  0.00    +0.043 HD
ENDBRANCH  40  41
BRANCH  40  45
ATOM     45  C   UNL     1       1.105   4.158  20.337  0.00  0.00    +0.000 C 
ATOM     46  H   UNL     1       0.413   3.988  19.504  0.00  0.00    +0.043 HD
ATOM     47  H   UNL     1       0.581   4.666  21.153  0.00  0.00    +0.043 HD
ATOM     48  H   UNL     1       1.394   3.178  20.732  0.00  0.00    +0.043 HD
ENDBRANCH  40  45
ENDBRANCH  30  40
ENDBRANCH   1  33
TORSDOF 5
ENDMDL
MODEL 12
REMARK VINA RESULT:    -5.455      3.221      8.530
REMARK INTER + INTRA:          -6.990
REMARK INTER:                  -6.989
REMARK INTRA:                  -0.002
REMARK UNBOUND:                -0.260
REMARK  Name = 
REMARK  5 active torsions:
REMARK  status: ('A' for Active; 'I' for Inactive)
REMARK    1  A    between atoms: C_1  and  N_2
REMARK    2  A    between atoms: N_2  and  C_3
REMARK    3  A    between atoms: N_2  and  C_4
REMARK    4  A    between atoms: C_7  and  C_8
REMARK    5  A    between atoms: C_14  and  C_16
REMARK                            x       y       z     vdW  Elec       q    Type
REMARK                         _______ _______ _______ _____ _____    ______ ____
ROOT
ATOM      1  C   UNL     1       3.291   6.236  19.132  0.00  0.00    +0.247 C 
ATOM      2  O   UNL     1       3.485   5.540  20.126  0.00  0.00    -0.270 OA
ATOM      3  N   UNL     1       2.432   7.330  19.125  0.00  0.00    -0.295 N 
ATOM      4  C   UNL     1       1.819   7.728  20.395  0.00  0.00    +0.031 C 
ATOM      5  C   UNL     1       1.271   9.159  20.365  0.00  0.00    +0.031 C 
ATOM      6  N   UNL     1       0.340   9.387  19.253  0.00  0.00    -0.294 N 
ATOM      7  C   UNL     1      -0.662  10.336  19.424  0.00  0.00    +0.249 C 
ATOM      8  O   UNL     1      -0.814  10.993  20.451  0.00  0.00    -0.270 OA
ATOM      9  C   UNL     1       0.484   8.509  18.084  0.00  0.00    +0.031 C 
ATOM     10  C   UNL     1       1.915   7.979  17.913  0.00  0.00    +0.031 C 
ATOM     11  H   UNL     1       2.552   7.622  21.203  0.00  0.00    +0.048 HD
ATOM     12  H   UNL     1       1.005   7.019  20.590  0.00  0.00    +0.048 HD
ATOM     13  H   UNL     1       2.094   9.869  20.229  0.00  0.00    +0.048 HD
ATOM     14  H   UNL     1       0.786   9.391  21.319  0.00  0.00    +0.048 HD
ATOM     15  H   UNL     1       0.177   9.023  17.172  0.00  0.00    +0.048 HD
ATOM     16  H   UNL     1      -0.207   7.671  18.239  0.00  0.00    +0.048 HD
ATOM     17  H   UNL     1       1.945   7.284  17.069  0.00  0.00    +0.048 HD
ATOM     18  H   UNL     1       2.588   8.816  17.694  0.00  0.00    +0.048 HD
ENDROOT
BRANCH   7  19
ATOM     19  C   UNL     1      -1.640  10.543  18.346  0.00  0.00    +0.072 A 
ATOM     20  C   UNL     1      -2.660   9.605  18.164  0.00  0.00    -0.047 A 
ATOM     21  C   UNL     1      -3.614   9.813  17.166  0.00  0.00    -0.061 A 
ATOM     22  C   UNL     1      -3.555  10.958  16.366  0.00  0.00    -0.059 A 
ATOM     23  C   UNL     1      -2.544  11.901  16.566  0.00  0.00    -0.026 A 
ATOM     24  C   UNL     1      -1.593  11.692  17.563  0.00  0.00    +0.135 A 
ATOM     25  F   UNL     1      -0.625  12.604  17.736  0.00  0.00    -0.205 F 
ATOM     26  H   UNL     1      -2.716   8.727  18.802  0.00  0.00    +0.063 HD
ATOM     27  H   UNL     1      -4.412   9.088  17.019  0.00  0.00    +0.062 HD
ATOM     28  H   UNL     1      -4.302  11.119  15.594  0.00  0.00    +0.062 HD
ATOM     29  H   UNL     1      -2.495  12.798  15.957  0.00  0.00    +0.065 HD
ENDBRANCH   7  19
BRANCH   1  33
ATOM     30  C   UNL     1       5.409   5.140  15.520  0.00  0.00    +0.029 A 
ATOM     31  C   UNL     1       4.674   4.207  16.276  0.00  0.00    -0.040 A 
ATOM     32  C   UNL     1       3.994   4.561  17.449  0.00  0.00    -0.048 A 
ATOM     33  C   UNL     1       4.010   5.881  17.887  0.00  0.00    +0.037 A 
ATOM     34  C   UNL     1       4.735   6.833  17.177  0.00  0.00    -0.048 A 
ATOM     35  C   UNL     1       5.411   6.463  16.005  0.00  0.00    -0.040 A 
ATOM     36  H   UNL     1       4.613   3.165  15.975  0.00  0.00    +0.064 HD
ATOM     37  H   UNL     1       3.454   3.804  18.013  0.00  0.00    +0.063 HD
ATOM     38  H   UNL     1       4.791   7.861  17.526  0.00  0.00    +0.063 HD
ATOM     39  H   UNL     1       5.947   7.249  15.482  0.00  0.00    +0.064 HD
BRANCH  30  40
ATOM     40  N   UNL     1       6.068   4.785  14.336  0.00  0.00    -0.336 N 
BRANCH  40  41
ATOM     41  C   UNL     1       5.492   3.738  13.491  0.00  0.00    +0.000 C 
ATOM     42  H   UNL     1       4.429   3.926  13.301  0.00  0.00    +0.043 HD
ATOM     43  H   UNL     1       6.029   3.656  12.541  0.00  0.00    +0.043 HD
ATOM     44  H   UNL     1       5.575   2.754  13.967  0.00  0.00    +0.043 HD
ENDBRANCH  40  41
BRANCH  40  45
ATOM     45  C   UNL     1       7.524   4.907  14.273  0.00  0.00    +0.000 C 
ATOM     46  H   UNL     1       7.862   5.072  13.244  0.00  0.00    +0.043 HD
ATOM     47  H   UNL     1       8.015   4.018  14.684  0.00  0.00    +0.043 HD
ATOM     48  H   UNL     1       7.879   5.750  14.876  0.00  0.00    +0.043 HD
ENDBRANCH  40  45
ENDBRANCH  30  40
ENDBRANCH   1  33
TORSDOF 5
ENDMDL
MODEL 13
REMARK VINA RESULT:    -5.403      2.574      3.297
REMARK INTER + INTRA:          -6.926
REMARK INTER:                  -6.710
REMARK INTRA:                  -0.216
REMARK UNBOUND:                -0.260
REMARK  Name = 
REMARK  5 active torsions:
REMARK  status: ('A' for Active; 'I' for Inactive)
REMARK    1  A    between atoms: C_1  and  N_2
REMARK    2  A    between atoms: N_2  and  C_3
REMARK    3  A    between atoms: N_2  and  C_4
REMARK    4  A    between atoms: C_7  and  C_8
REMARK    5  A    between atoms: C_14  and  C_16
REMARK                            x       y       z     vdW  Elec       q    Type
REMARK                         _______ _______ _______ _____ _____    ______ ____
ROOT
ATOM      1  C   UNL     1       0.249   9.725  20.055  0.00  0.00    +0.247 C 
ATOM      2  O   UNL     1       0.328  10.322  21.126  0.00  0.00    -0.270 OA
ATOM      3  N   UNL     1       1.052   8.636  19.729  0.00  0.00    -0.295 N 
ATOM      4  C   UNL     1       1.953   8.117  20.761  0.00  0.00    +0.031 C 
ATOM      5  C   UNL     1       2.441   6.696  20.460  0.00  0.00    +0.031 C 
ATOM      6  N   UNL     1       3.057   6.575  19.134  0.00  0.00    -0.294 N 
ATOM      7  C   UNL     1       4.045   5.614  18.957  0.00  0.00    +0.249 C 
ATOM      8  O   UNL     1       4.433   4.861  19.847  0.00  0.00    -0.270 OA
ATOM      9  C   UNL     1       2.646   7.562  18.126  0.00  0.00    +0.031 C 
ATOM     10  C   UNL     1       1.231   8.107  18.371  0.00  0.00    +0.031 C 
ATOM     11  H   UNL     1       1.449   8.145  21.734  0.00  0.00    +0.048 HD
ATOM     12  H   UNL     1       2.807   8.804  20.810  0.00  0.00    +0.048 HD
ATOM     13  H   UNL     1       1.592   6.002  20.471  0.00  0.00    +0.048 HD
ATOM     14  H   UNL     1       3.143   6.372  21.236  0.00  0.00    +0.048 HD
ATOM     15  H   UNL     1       2.701   7.138  17.122  0.00  0.00    +0.048 HD
ATOM     16  H   UNL     1       3.374   8.380  18.179  0.00  0.00    +0.048 HD
ATOM     17  H   UNL     1       1.008   8.881  17.630  0.00  0.00    +0.048 HD
ATOM     18  H   UNL     1       0.504   7.296  18.252  0.00  0.00    +0.048 HD
ENDROOT
BRANCH   7  19
ATOM     19  C   UNL     1       4.716   5.511  17.654  0.00  0.00    +0.072 A 
ATOM     20  C   UNL     1       5.841   6.302  17.403  0.00  0.00    -0.047 A 
ATOM     21  C   UNL     1       6.506   6.184  16.181  0.00  0.00    -0.061 A 
ATOM     22  C   UNL     1       6.055   5.272  15.223  0.00  0.00    -0.059 A 
ATOM     23  C   UNL     1       4.943   4.470  15.486  0.00  0.00    -0.026 A 
ATOM     24  C   UNL     1       4.281   4.589  16.707  0.00  0.00    +0.135 A 
ATOM     25  F   UNL     1       3.209   3.817  16.940  0.00  0.00    -0.205 F 
ATOM     26  H   UNL     1       6.202   6.995  18.159  0.00  0.00    +0.063 HD
ATOM     27  H   UNL     1       7.383   6.796  15.979  0.00  0.00    +0.062 HD
ATOM     28  H   UNL     1       6.578   5.179  14.274  0.00  0.00    +0.062 HD
ATOM     29  H   UNL     1       4.591   3.751  14.753  0.00  0.00    +0.065 HD
ENDBRANCH   7  19
BRANCH   1  33
ATOM     30  C   UNL     1      -2.670  11.047  17.146  0.00  0.00    +0.029 A 
ATOM     31  C   UNL     1      -2.682   9.748  17.690  0.00  0.00    -0.040 A 
ATOM     32  C   UNL     1      -1.733   9.319  18.627  0.00  0.00    -0.048 A 
ATOM     33  C   UNL     1      -0.750  10.199  19.070  0.00  0.00    +0.037 A 
ATOM     34  C   UNL     1      -0.694  11.487  18.548  0.00  0.00    -0.048 A 
ATOM     35  C   UNL     1      -1.651  11.902  17.611  0.00  0.00    -0.040 A 
ATOM     36  H   UNL     1      -3.435   9.023  17.394  0.00  0.00    +0.064 HD
ATOM     37  H   UNL     1      -1.767   8.301  19.007  0.00  0.00    +0.063 HD
ATOM     38  H   UNL     1       0.090  12.175  18.853  0.00  0.00    +0.063 HD
ATOM     39  H   UNL     1      -1.570  12.922  17.249  0.00  0.00    +0.064 HD
BRANCH  30  40
ATOM     40  N   UNL     1      -3.636  11.477  16.227  0.00  0.00    -0.336 N 
BRANCH  40  41
ATOM     41  C   UNL     1      -4.926  11.953  16.725  0.00  0.00    +0.000 C 
ATOM     42  H   UNL     1      -5.663  11.142  16.749  0.00  0.00    +0.043 HD
ATOM     43  H   UNL     1      -4.828  12.393  17.723  0.00  0.00    +0.043 HD
ATOM     44  H   UNL     1      -5.329  12.748  16.087  0.00  0.00    +0.043 HD
ENDBRANCH  40  41
BRANCH  40  45
ATOM     45  C   UNL     1      -3.666  10.869  14.897  0.00  0.00    +0.000 C 
ATOM     46  H   UNL     1      -3.710  11.635  14.114  0.00  0.00    +0.043 HD
ATOM     47  H   UNL     1      -4.516  10.186  14.792  0.00  0.00    +0.043 HD
ATOM     48  H   UNL     1      -2.772  10.263  14.715  0.00  0.00    +0.043 HD
ENDBRANCH  40  45
ENDBRANCH  30  40
ENDBRANCH   1  33
TORSDOF 5
ENDMDL
MODEL 14
REMARK VINA RESULT:    -5.227      2.946      8.470
REMARK INTER + INTRA:          -6.710
REMARK INTER:                  -6.732
REMARK INTRA:                   0.022
REMARK UNBOUND:                -0.260
REMARK  Name = 
REMARK  5 active torsions:
REMARK  status: ('A' for Active; 'I' for Inactive)
REMARK    1  A    between atoms: C_1  and  N_2
REMARK    2  A    between atoms: N_2  and  C_3
REMARK    3  A    between atoms: N_2  and  C_4
REMARK    4  A    between atoms: C_7  and  C_8
REMARK    5  A    between atoms: C_14  and  C_16
REMARK                            x       y       z     vdW  Elec       q    Type
REMARK                         _______ _______ _______ _____ _____    ______ ____
ROOT
ATOM      1  C   UNL     1       1.586   6.163  20.296  0.00  0.00    +0.247 C 
ATOM      2  O   UNL     1       0.891   5.180  20.537  0.00  0.00    -0.270 OA
ATOM      3  N   UNL     1       1.279   7.443  20.748  0.00  0.00    -0.295 N 
ATOM      4  C   UNL     1       0.130   7.595  21.645  0.00  0.00    +0.031 C 
ATOM      5  C   UNL     1       0.151   8.920  22.415  0.00  0.00    +0.031 C 
ATOM      6  N   UNL     1       0.271  10.087  21.533  0.00  0.00    -0.294 N 
ATOM      7  C   UNL     1      -0.292  11.286  21.956  0.00  0.00    +0.249 C 
ATOM      8  O   UNL     1      -0.885  11.424  23.023  0.00  0.00    -0.270 OA
ATOM      9  C   UNL     1       0.889   9.859  20.220  0.00  0.00    +0.031 C 
ATOM     10  C   UNL     1       1.874   8.680  20.225  0.00  0.00    +0.031 C 
ATOM     11  H   UNL     1       0.100   6.752  22.345  0.00  0.00    +0.048 HD
ATOM     12  H   UNL     1      -0.769   7.539  21.019  0.00  0.00    +0.048 HD
ATOM     13  H   UNL     1       1.020   8.947  23.083  0.00  0.00    +0.048 HD
ATOM     14  H   UNL     1      -0.748   9.003  23.035  0.00  0.00    +0.048 HD
ATOM     15  H   UNL     1       1.403  10.756  19.872  0.00  0.00    +0.048 HD
ATOM     16  H   UNL     1       0.069   9.656  19.523  0.00  0.00    +0.048 HD
ATOM     17  H   UNL     1       2.251   8.519  19.211  0.00  0.00    +0.048 HD
ATOM     18  H   UNL     1       2.724   8.919  20.875  0.00  0.00    +0.048 HD
ENDROOT
BRANCH   7  19
ATOM     19  C   UNL     1      -0.234  12.455  21.067  0.00  0.00    +0.072 A 
ATOM     20  C   UNL     1       0.937  13.218  21.023  0.00  0.00    -0.047 A 
ATOM     21  C   UNL     1       1.013  14.308  20.154  0.00  0.00    -0.061 A 
ATOM     22  C   UNL     1      -0.069  14.624  19.327  0.00  0.00    -0.059 A 
ATOM     23  C   UNL     1      -1.228  13.846  19.362  0.00  0.00    -0.026 A 
ATOM     24  C   UNL     1      -1.302  12.757  20.229  0.00  0.00    +0.135 A 
ATOM     25  F   UNL     1      -2.426  12.025  20.255  0.00  0.00    -0.205 F 
ATOM     26  H   UNL     1       1.784  12.957  21.651  0.00  0.00    +0.063 HD
ATOM     27  H   UNL     1       1.921  14.907  20.113  0.00  0.00    +0.062 HD
ATOM     28  H   UNL     1      -0.004  15.470  18.649  0.00  0.00    +0.062 HD
ATOM     29  H   UNL     1      -2.070  14.076  18.717  0.00  0.00    +0.065 HD
ENDBRANCH   7  19
BRANCH   1  33
ATOM     30  C   UNL     1       5.191   5.584  17.970  0.00  0.00    +0.029 A 
ATOM     31  C   UNL     1       4.972   4.932  19.199  0.00  0.00    -0.040 A 
ATOM     32  C   UNL     1       3.808   5.125  19.954  0.00  0.00    -0.048 A 
ATOM     33  C   UNL     1       2.807   5.966  19.480  0.00  0.00    +0.037 A 
ATOM     34  C   UNL     1       2.987   6.641  18.277  0.00  0.00    -0.048 A 
ATOM     35  C   UNL     1       4.158   6.437  17.532  0.00  0.00    -0.040 A 
ATOM     36  H   UNL     1       5.712   4.252  19.612  0.00  0.00    +0.064 HD
ATOM     37  H   UNL     1       3.690   4.616  20.908  0.00  0.00    +0.063 HD
ATOM     38  H   UNL     1       2.232   7.332  17.911  0.00  0.00    +0.063 HD
ATOM     39  H   UNL     1       4.239   6.976  16.593  0.00  0.00    +0.064 HD
BRANCH  30  40
ATOM     40  N   UNL     1       6.346   5.369  17.208  0.00  0.00    -0.336 N 
BRANCH  40  41
ATOM     41  C   UNL     1       7.257   6.488  16.970  0.00  0.00    +0.000 C 
ATOM     42  H   UNL     1       8.056   6.205  16.277  0.00  0.00    +0.043 HD
ATOM     43  H   UNL     1       6.720   7.360  16.580  0.00  0.00    +0.043 HD
ATOM     44  H   UNL     1       7.729   6.821  17.902  0.00  0.00    +0.043 HD
ENDBRANCH  40  41
BRANCH  40  45
ATOM     45  C   UNL     1       6.320   4.351  16.158  0.00  0.00    +0.000 C 
ATOM     46  H   UNL     1       6.357   3.343  16.585  0.00  0.00    +0.043 HD
ATOM     47  H   UNL     1       7.150   4.484  15.456  0.00  0.00    +0.043 HD
ATOM     48  H   UNL     1       5.406   4.421  15.557  0.00  0.00    +0.043 HD
ENDBRANCH  40  45
ENDBRANCH  30  40
ENDBRANCH   1  33
TORSDOF 5
ENDMDL
MODEL 15
REMARK VINA RESULT:    -5.143      2.887      4.313
REMARK INTER + INTRA:          -6.606
REMARK INTER:                  -6.178
REMARK INTRA:                  -0.428
REMARK UNBOUND:                -0.260
REMARK  Name = 
REMARK  5 active torsions:
REMARK  status: ('A' for Active; 'I' for Inactive)
REMARK    1  A    between atoms: C_1  and  N_2
REMARK    2  A    between atoms: N_2  and  C_3
REMARK    3  A    between atoms: N_2  and  C_4
REMARK    4  A    between atoms: C_7  and  C_8
REMARK    5  A    between atoms: C_14  and  C_16
REMARK                            x       y       z     vdW  Elec       q    Type
REMARK                         _______ _______ _______ _____ _____    ______ ____
ROOT
ATOM      1  C   UNL     1       1.291  10.578  18.533  0.00  0.00    +0.247 C 
ATOM      2  O   UNL     1       1.375  11.149  17.450  0.00  0.00    -0.270 OA
ATOM      3  N   UNL     1       1.863   9.334  18.784  0.00  0.00    -0.295 N 
ATOM      4  C   UNL     1       2.694   8.738  17.735  0.00  0.00    +0.031 C 
ATOM      5  C   UNL     1       3.607   7.626  18.264  0.00  0.00    +0.031 C 
ATOM      6  N   UNL     1       2.872   6.584  18.988  0.00  0.00    -0.294 N 
ATOM      7  C   UNL     1       3.388   5.293  18.980  0.00  0.00    +0.249 C 
ATOM      8  O   UNL     1       4.423   4.975  18.399  0.00  0.00    -0.270 OA
ATOM      9  C   UNL     1       1.584   6.976  19.578  0.00  0.00    +0.031 C 
ATOM     10  C   UNL     1       1.521   8.472  19.923  0.00  0.00    +0.031 C 
ATOM     11  H   UNL     1       3.292   9.521  17.255  0.00  0.00    +0.048 HD
ATOM     12  H   UNL     1       2.009   8.334  16.980  0.00  0.00    +0.048 HD
ATOM     13  H   UNL     1       4.329   8.045  18.974  0.00  0.00    +0.048 HD
ATOM     14  H   UNL     1       4.173   7.186  17.436  0.00  0.00    +0.048 HD
ATOM     15  H   UNL     1       1.372   6.389  20.473  0.00  0.00    +0.048 HD
ATOM     16  H   UNL     1       0.816   6.733  18.834  0.00  0.00    +0.048 HD
ATOM     17  H   UNL     1       0.522   8.715  20.296  0.00  0.00    +0.048 HD
ATOM     18  H   UNL     1       2.248   8.693  20.713  0.00  0.00    +0.048 HD
ENDROOT
BRANCH   7  19
ATOM     19  C   UNL     1       2.641   4.220  19.651  0.00  0.00    +0.072 A 
ATOM     20  C   UNL     1       2.919   3.934  20.991  0.00  0.00    -0.047 A 
ATOM     21  C   UNL     1       2.188   2.941  21.647  0.00  0.00    -0.061 A 
ATOM     22  C   UNL     1       1.179   2.250  20.970  0.00  0.00    -0.059 A 
ATOM     23  C   UNL     1       0.894   2.553  19.637  0.00  0.00    -0.026 A 
ATOM     24  C   UNL     1       1.623   3.545  18.984  0.00  0.00    +0.135 A 
ATOM     25  F   UNL     1       1.341   3.819  17.702  0.00  0.00    -0.205 F 
ATOM     26  H   UNL     1       3.688   4.489  21.521  0.00  0.00    +0.063 HD
ATOM     27  H   UNL     1       2.397   2.714  22.690  0.00  0.00    +0.062 HD
ATOM     28  H   UNL     1       0.609   1.481  21.485  0.00  0.00    +0.062 HD
ATOM     29  H   UNL     1       0.106   2.029  19.105  0.00  0.00    +0.065 HD
ENDBRANCH   7  19
BRANCH   1  33
ATOM     30  C   UNL     1      -0.955  12.562  21.656  0.00  0.00    +0.029 A 
ATOM     31  C   UNL     1      -1.573  11.768  20.670  0.00  0.00    -0.040 A 
ATOM     32  C   UNL     1      -0.845  11.131  19.656  0.00  0.00    -0.048 A 
ATOM     33  C   UNL     1       0.540  11.252  19.617  0.00  0.00    +0.037 A 
ATOM     34  C   UNL     1       1.189  12.038  20.564  0.00  0.00    -0.048 A 
ATOM     35  C   UNL     1       0.447  12.669  21.572  0.00  0.00    -0.040 A 
ATOM     36  H   UNL     1      -2.650  11.624  20.659  0.00  0.00    +0.064 HD
ATOM     37  H   UNL     1      -1.365  10.543  18.903  0.00  0.00    +0.063 HD
ATOM     38  H   UNL     1       2.266  12.176  20.524  0.00  0.00    +0.063 HD
ATOM     39  H   UNL     1       1.006  13.256  22.294  0.00  0.00    +0.064 HD
BRANCH  30  40
ATOM     40  N   UNL     1      -1.686  13.177  22.681  0.00  0.00    -0.336 N 
BRANCH  40  41
ATOM     41  C   UNL     1      -1.045  14.221  23.479  0.00  0.00    +0.000 C 
ATOM     42  H   UNL     1      -0.003  14.367  23.174  0.00  0.00    +0.043 HD
ATOM     43  H   UNL     1      -1.589  15.169  23.403  0.00  0.00    +0.043 HD
ATOM     44  H   UNL     1      -1.045  13.963  24.545  0.00  0.00    +0.043 HD
ENDBRANCH  40  41
BRANCH  40  45
ATOM     45  C   UNL     1      -2.717  12.405  23.375  0.00  0.00    +0.000 C 
ATOM     46  H   UNL     1      -3.243  13.022  24.111  0.00  0.00    +0.043 HD
ATOM     47  H   UNL     1      -2.289  11.526  23.868  0.00  0.00    +0.043 HD
ATOM     48  H   UNL     1      -3.465  12.019  22.673  0.00  0.00    +0.043 HD
ENDBRANCH  40  45
ENDBRANCH  30  40
ENDBRANCH   1  33
TORSDOF 5
ENDMDL
MODEL 16
REMARK VINA RESULT:    -5.051      3.768      8.959
REMARK INTER + INTRA:          -6.492
REMARK INTER:                  -6.466
REMARK INTRA:                  -0.026
REMARK UNBOUND:                -0.260
REMARK  Name = 
REMARK  5 active torsions:
REMARK  status: ('A' for Active; 'I' for Inactive)
REMARK    1  A    between atoms: C_1  and  N_2
REMARK    2  A    between atoms: N_2  and  C_3
REMARK    3  A    between atoms: N_2  and  C_4
REMARK    4  A    between atoms: C_7  and  C_8
REMARK    5  A    between atoms: C_14  and  C_16
REMARK                            x       y       z     vdW  Elec       q    Type
REMARK                         _______ _______ _______ _____ _____    ______ ____
ROOT
ATOM      1  C   UNL     1       1.700   8.117  21.098  0.00  0.00    +0.247 C 
ATOM      2  O   UNL     1       2.028   8.184  22.280  0.00  0.00    -0.270 OA
ATOM      3  N   UNL     1       0.990   9.123  20.447  0.00  0.00    -0.295 N 
ATOM      4  C   UNL     1       0.724  10.360  21.185  0.00  0.00    +0.031 C 
ATOM      5  C   UNL     1       0.349  11.528  20.266  0.00  0.00    +0.031 C 
ATOM      6  N   UNL     1      -0.772  11.212  19.374  0.00  0.00    -0.294 N 
ATOM      7  C   UNL     1      -1.596  12.254  18.965  0.00  0.00    +0.249 C 
ATOM      8  O   UNL     1      -1.441  13.423  19.308  0.00  0.00    -0.270 OA
ATOM      9  C   UNL     1      -0.992   9.791  19.072  0.00  0.00    +0.031 C 
ATOM     10  C   UNL     1       0.296   8.959  19.164  0.00  0.00    +0.031 C 
ATOM     11  H   UNL     1       1.600  10.621  21.789  0.00  0.00    +0.048 HD
ATOM     12  H   UNL     1      -0.102  10.146  21.875  0.00  0.00    +0.048 HD
ATOM     13  H   UNL     1       1.198  11.778  19.619  0.00  0.00    +0.048 HD
ATOM     14  H   UNL     1       0.118  12.414  20.868  0.00  0.00    +0.048 HD
ATOM     15  H   UNL     1      -1.432   9.668  18.081  0.00  0.00    +0.048 HD
ATOM     16  H   UNL     1      -1.722   9.428  19.805  0.00  0.00    +0.048 HD
ATOM     17  H   UNL     1       0.059   7.904  18.993  0.00  0.00    +0.048 HD
ATOM     18  H   UNL     1       0.995   9.285  18.385  0.00  0.00    +0.048 HD
ENDROOT
BRANCH   7  19
ATOM     19  C   UNL     1      -2.758  11.954  18.116  0.00  0.00    +0.072 A 
ATOM     20  C   UNL     1      -2.549  11.536  16.799  0.00  0.00    -0.047 A 
ATOM     21  C   UNL     1      -3.646  11.215  15.997  0.00  0.00    -0.061 A 
ATOM     22  C   UNL     1      -4.942  11.299  16.515  0.00  0.00    -0.059 A 
ATOM     23  C   UNL     1      -5.143  11.699  17.838  0.00  0.00    -0.026 A 
ATOM     24  C   UNL     1      -4.047  12.019  18.637  0.00  0.00    +0.135 A 
ATOM     25  F   UNL     1      -4.259  12.408  19.902  0.00  0.00    -0.205 F 
ATOM     26  H   UNL     1      -1.539  11.451  16.406  0.00  0.00    +0.063 HD
ATOM     27  H   UNL     1      -3.491  10.888  14.971  0.00  0.00    +0.062 HD
ATOM     28  H   UNL     1      -5.793  11.044  15.890  0.00  0.00    +0.062 HD
ATOM     29  H   UNL     1      -6.145  11.758  18.253  0.00  0.00    +0.065 HD
ENDBRANCH   7  19
BRANCH   1  33
ATOM     30  C   UNL     1       2.805   4.604  18.824  0.00  0.00    +0.029 A 
ATOM     31  C   UNL     1       3.233   5.899  18.470  0.00  0.00    -0.040 A 
ATOM     32  C   UNL     1       2.869   7.036  19.203  0.00  0.00    -0.048 A 
ATOM     33  C   UNL     1       2.079   6.904  20.340  0.00  0.00    +0.037 A 
ATOM     34  C   UNL     1       1.623   5.645  20.718  0.00  0.00    -0.048 A 
ATOM     35  C   UNL     1       1.996   4.516  19.974  0.00  0.00    -0.040 A 
ATOM     36  H   UNL     1       3.864   6.062  17.600  0.00  0.00    +0.064 HD
ATOM     37  H   UNL     1       3.207   8.019  18.882  0.00  0.00    +0.063 HD
ATOM     38  H   UNL     1       0.973   5.527  21.581  0.00  0.00    +0.063 HD
ATOM     39  H   UNL     1       1.625   3.557  20.323  0.00  0.00    +0.064 HD
BRANCH  30  40
ATOM     40  N   UNL     1       3.191   3.469  18.100  0.00  0.00    -0.336 N 
BRANCH  40  41
ATOM     41  C   UNL     1       4.178   3.612  17.030  0.00  0.00    +0.000 C 
ATOM     42  H   UNL     1       4.141   2.758  16.344  0.00  0.00    +0.043 HD
ATOM     43  H   UNL     1       4.026   4.542  16.473  0.00  0.00    +0.043 HD
ATOM     44  H   UNL     1       5.195   3.669  17.434  0.00  0.00    +0.043 HD
ENDBRANCH  40  41
BRANCH  40  45
ATOM     45  C   UNL     1       2.225   2.385  17.918  0.00  0.00    +0.000 C 
ATOM     46  H   UNL     1       1.963   2.264  16.861  0.00  0.00    +0.043 HD
ATOM     47  H   UNL     1       1.317   2.560  18.506  0.00  0.00    +0.043 HD
ATOM     48  H   UNL     1       2.628   1.429  18.270  0.00  0.00    +0.043 HD
ENDBRANCH  40  45
ENDBRANCH  30  40
ENDBRANCH   1  33
TORSDOF 5
ENDMDL
MODEL 17
REMARK VINA RESULT:    -4.620      3.433      8.991
REMARK INTER + INTRA:          -5.960
REMARK INTER:                  -5.834
REMARK INTRA:                  -0.126
REMARK UNBOUND:                -0.260
REMARK  Name = 
REMARK  5 active torsions:
REMARK  status: ('A' for Active; 'I' for Inactive)
REMARK    1  A    between atoms: C_1  and  N_2
REMARK    2  A    between atoms: N_2  and  C_3
REMARK    3  A    between atoms: N_2  and  C_4
REMARK    4  A    between atoms: C_7  and  C_8
REMARK    5  A    between atoms: C_14  and  C_16
REMARK                            x       y       z     vdW  Elec       q    Type
REMARK                         _______ _______ _______ _____ _____    ______ ____
ROOT
ATOM      1  C   UNL     1       1.839   8.096  21.141  0.00  0.00    +0.247 C 
ATOM      2  O   UNL     1       2.284   8.186  22.282  0.00  0.00    -0.270 OA
ATOM      3  N   UNL     1       1.110   9.110  20.527  0.00  0.00    -0.295 N 
ATOM      4  C   UNL     1       0.967  10.381  21.242  0.00  0.00    +0.031 C 
ATOM      5  C   UNL     1       0.552  11.534  20.322  0.00  0.00    +0.031 C 
ATOM      6  N   UNL     1      -0.663  11.239  19.555  0.00  0.00    -0.294 N 
ATOM      7  C   UNL     1      -1.481  12.303  19.190  0.00  0.00    +0.249 C 
ATOM      8  O   UNL     1      -1.245  13.475  19.474  0.00  0.00    -0.270 OA
ATOM      9  C   UNL     1      -0.969   9.820  19.327  0.00  0.00    +0.031 C 
ATOM     10  C   UNL     1       0.287   8.936  19.323  0.00  0.00    +0.031 C 
ATOM     11  H   UNL     1       1.908  10.623  21.748  0.00  0.00    +0.048 HD
ATOM     12  H   UNL     1       0.205  10.225  22.015  0.00  0.00    +0.048 HD
ATOM     13  H   UNL     1       1.342  11.727  19.587  0.00  0.00    +0.048 HD
ATOM     14  H   UNL     1       0.417  12.448  20.911  0.00  0.00    +0.048 HD
ATOM     15  H   UNL     1      -1.509   9.685  18.388  0.00  0.00    +0.048 HD
ATOM     16  H   UNL     1      -1.637   9.513  20.139  0.00  0.00    +0.048 HD
ATOM     17  H   UNL     1      -0.008   7.889  19.214  0.00  0.00    +0.048 HD
ATOM     18  H   UNL     1       0.919   9.207  18.469  0.00  0.00    +0.048 HD
ENDROOT
BRANCH   7  19
ATOM     19  C   UNL     1      -2.732  12.028  18.469  0.00  0.00    +0.072 A 
ATOM     20  C   UNL     1      -3.951  12.303  19.094  0.00  0.00    -0.047 A 
ATOM     21  C   UNL     1      -5.143  12.079  18.402  0.00  0.00    -0.061 A 
ATOM     22  C   UNL     1      -5.113  11.595  17.091  0.00  0.00    -0.059 A 
ATOM     23  C   UNL     1      -3.891  11.340  16.466  0.00  0.00    -0.026 A 
ATOM     24  C   UNL     1      -2.702  11.566  17.157  0.00  0.00    +0.135 A 
ATOM     25  F   UNL     1      -1.537  11.309  16.544  0.00  0.00    -0.205 F 
ATOM     26  H   UNL     1      -3.971  12.700  20.105  0.00  0.00    +0.063 HD
ATOM     27  H   UNL     1      -6.097  12.291  18.881  0.00  0.00    +0.062 HD
ATOM     28  H   UNL     1      -6.043  11.426  16.554  0.00  0.00    +0.062 HD
ATOM     29  H   UNL     1      -3.857  10.974  15.444  0.00  0.00    +0.065 HD
ENDBRANCH   7  19
BRANCH   1  33
ATOM     30  C   UNL     1       2.579   4.469  18.898  0.00  0.00    +0.029 A 
ATOM     31  C   UNL     1       3.118   5.714  18.519  0.00  0.00    -0.040 A 
ATOM     32  C   UNL     1       2.872   6.889  19.242  0.00  0.00    -0.048 A 
ATOM     33  C   UNL     1       2.093   6.844  20.394  0.00  0.00    +0.037 A 
ATOM     34  C   UNL     1       1.530   5.636  20.797  0.00  0.00    -0.048 A 
ATOM     35  C   UNL     1       1.785   4.469  20.062  0.00  0.00    -0.040 A 
ATOM     36  H   UNL     1       3.746   5.808  17.638  0.00  0.00    +0.064 HD
ATOM     37  H   UNL     1       3.293   7.833  18.903  0.00  0.00    +0.063 HD
ATOM     38  H   UNL     1       0.887   5.590  21.671  0.00  0.00    +0.063 HD
ATOM     39  H   UNL     1       1.335   3.553  20.430  0.00  0.00    +0.064 HD
BRANCH  30  40
ATOM     40  N   UNL     1       2.847   3.294  18.184  0.00  0.00    -0.336 N 
BRANCH  40  41
ATOM     41  C   UNL     1       2.349   2.021  18.703  0.00  0.00    +0.000 C 
ATOM     42  H   UNL     1       2.921   1.703  19.582  0.00  0.00    +0.043 HD
ATOM     43  H   UNL     1       1.286   2.084  18.957  0.00  0.00    +0.043 HD
ATOM     44  H   UNL     1       2.429   1.227  17.951  0.00  0.00    +0.043 HD
ENDBRANCH  40  41
BRANCH  40  45
ATOM     45  C   UNL     1       4.079   3.211  17.399  0.00  0.00    +0.000 C 
ATOM     46  H   UNL     1       4.270   2.181  17.075  0.00  0.00    +0.043 HD
ATOM     47  H   UNL     1       4.937   3.584  17.967  0.00  0.00    +0.043 HD
ATOM     48  H   UNL     1       4.021   3.834  16.500  0.00  0.00    +0.043 HD
ENDBRANCH  40  45
ENDBRANCH  30  40
ENDBRANCH   1  33
TORSDOF 5
ENDMDL
MODEL 18
REMARK VINA RESULT:    -4.596      1.268      1.301
REMARK INTER + INTRA:          -5.930
REMARK INTER:                  -5.695
REMARK INTRA:                  -0.236
REMARK UNBOUND:                -0.260
REMARK  Name = 
REMARK  5 active torsions:
REMARK  status: ('A' for Active; 'I' for Inactive)
REMARK    1  A    between atoms: C_1  and  N_2
REMARK    2  A    between atoms: N_2  and  C_3
REMARK    3  A    between atoms: N_2  and  C_4
REMARK    4  A    between atoms: C_7  and  C_8
REMARK    5  A    between atoms: C_14  and  C_16
REMARK                            x       y       z     vdW  Elec       q    Type
REMARK                         _______ _______ _______ _____ _____    ______ ____
ROOT
ATOM      1  C   UNL     1       0.164   8.500  21.232  0.00  0.00    +0.247 C 
ATOM      2  O   UNL     1      -0.400   8.101  22.247  0.00  0.00    -0.270 OA
ATOM      3  N   UNL     1       0.970   7.688  20.439  0.00  0.00    -0.295 N 
ATOM      4  C   UNL     1       1.053   6.266  20.779  0.00  0.00    +0.031 C 
ATOM      5  C   UNL     1       1.583   5.411  19.622  0.00  0.00    +0.031 C 
ATOM      6  N   UNL     1       2.870   5.890  19.105  0.00  0.00    -0.294 N 
ATOM      7  C   UNL     1       3.737   4.959  18.546  0.00  0.00    +0.249 C 
ATOM      8  O   UNL     1       3.490   3.758  18.462  0.00  0.00    -0.270 OA
ATOM      9  C   UNL     1       3.177   7.311  19.320  0.00  0.00    +0.031 C 
ATOM     10  C   UNL     1       1.916   8.181  19.429  0.00  0.00    +0.031 C 
ATOM     11  H   UNL     1       0.067   5.907  21.092  0.00  0.00    +0.048 HD
ATOM     12  H   UNL     1       1.725   6.185  21.643  0.00  0.00    +0.048 HD
ATOM     13  H   UNL     1       0.880   5.446  18.782  0.00  0.00    +0.048 HD
ATOM     14  H   UNL     1       1.667   4.367  19.941  0.00  0.00    +0.048 HD
ATOM     15  H   UNL     1       3.813   7.696  18.521  0.00  0.00    +0.048 HD
ATOM     16  H   UNL     1       3.749   7.366  20.253  0.00  0.00    +0.048 HD
ATOM     17  H   UNL     1       2.206   9.212  19.652  0.00  0.00    +0.048 HD
ATOM     18  H   UNL     1       1.384   8.172  18.471  0.00  0.00    +0.048 HD
ENDROOT
BRANCH   7  19
ATOM     19  C   UNL     1       5.055   5.405  18.071  0.00  0.00    +0.072 A 
ATOM     20  C   UNL     1       5.155   6.014  16.816  0.00  0.00    -0.047 A 
ATOM     21  C   UNL     1       6.396   6.474  16.373  0.00  0.00    -0.061 A 
ATOM     22  C   UNL     1       7.526   6.337  17.185  0.00  0.00    -0.059 A 
ATOM     23  C   UNL     1       7.416   5.745  18.445  0.00  0.00    -0.026 A 
ATOM     24  C   UNL     1       6.175   5.288  18.886  0.00  0.00    +0.135 A 
ATOM     25  F   UNL     1       6.089   4.715  20.096  0.00  0.00    -0.205 F 
ATOM     26  H   UNL     1       4.271   6.139  16.197  0.00  0.00    +0.063 HD
ATOM     27  H   UNL     1       6.482   6.949  15.398  0.00  0.00    +0.062 HD
ATOM     28  H   UNL     1       8.490   6.700  16.839  0.00  0.00    +0.062 HD
ATOM     29  H   UNL     1       8.285   5.643  19.088  0.00  0.00    +0.065 HD
ENDBRANCH   7  19
BRANCH   1  33
ATOM     30  C   UNL     1      -0.408  12.656  20.164  0.00  0.00    +0.029 A 
ATOM     31  C   UNL     1       0.162  12.263  21.391  0.00  0.00    -0.040 A 
ATOM     32  C   UNL     1       0.341  10.918  21.738  0.00  0.00    -0.048 A 
ATOM     33  C   UNL     1      -0.026   9.917  20.845  0.00  0.00    +0.037 A 
ATOM     34  C   UNL     1      -0.606  10.260  19.627  0.00  0.00    -0.048 A 
ATOM     35  C   UNL     1      -0.778  11.611  19.294  0.00  0.00    -0.040 A 
ATOM     36  H   UNL     1       0.482  13.001  22.122  0.00  0.00    +0.064 HD
ATOM     37  H   UNL     1       0.769  10.659  22.704  0.00  0.00    +0.063 HD
ATOM     38  H   UNL     1      -0.935   9.491  18.934  0.00  0.00    +0.063 HD
ATOM     39  H   UNL     1      -1.220  11.822  18.325  0.00  0.00    +0.064 HD
BRANCH  30  40
ATOM     40  N   UNL     1      -0.563  14.003  19.813  0.00  0.00    -0.336 N 
BRANCH  40  41
ATOM     41  C   UNL     1      -0.425  14.389  18.409  0.00  0.00    +0.000 C 
ATOM     42  H   UNL     1      -0.370  13.508  17.761  0.00  0.00    +0.043 HD
ATOM     43  H   UNL     1      -1.252  15.032  18.091  0.00  0.00    +0.043 HD
ATOM     44  H   UNL     1       0.487  14.977  18.248  0.00  0.00    +0.043 HD
ENDBRANCH  40  41
BRANCH  40  45
ATOM     45  C   UNL     1      -0.194  15.033  20.784  0.00  0.00    +0.000 C 
ATOM     46  H   UNL     1       0.755  14.790  21.275  0.00  0.00    +0.043 HD
ATOM     47  H   UNL     1      -0.977  15.165  21.539  0.00  0.00    +0.043 HD
ATOM     48  H   UNL     1      -0.076  16.010  20.303  0.00  0.00    +0.043 HD
ENDBRANCH  40  45
ENDBRANCH  30  40
ENDBRANCH   1  33
TORSDOF 5
ENDMDL
MODEL 19
REMARK VINA RESULT:    -4.343      2.193      3.232
REMARK INTER + INTRA:          -5.619
REMARK INTER:                  -6.711
REMARK INTRA:                   1.092
REMARK UNBOUND:                -0.260
REMARK  Name = 
REMARK  5 active torsions:
REMARK  status: ('A' for Active; 'I' for Inactive)
REMARK    1  A    between atoms: C_1  and  N_2
REMARK    2  A    between atoms: N_2  and  C_3
REMARK    3  A    between atoms: N_2  and  C_4
REMARK    4  A    between atoms: C_7  and  C_8
REMARK    5  A    between atoms: C_14  and  C_16
REMARK                            x       y       z     vdW  Elec       q    Type
REMARK                         _______ _______ _______ _____ _____    ______ ____
ROOT
ATOM      1  C   UNL     1       2.608   6.319  19.797  0.00  0.00    +0.247 C 
ATOM      2  O   UNL     1       2.606   5.845  20.930  0.00  0.00    -0.270 OA
ATOM      3  N   UNL     1       3.159   5.666  18.699  0.00  0.00    -0.295 N 
ATOM      4  C   UNL     1       3.659   4.302  18.893  0.00  0.00    +0.031 C 
ATOM      5  C   UNL     1       3.823   3.538  17.575  0.00  0.00    +0.031 C 
ATOM      6  N   UNL     1       4.656   4.256  16.603  0.00  0.00    -0.294 N 
ATOM      7  C   UNL     1       5.382   3.505  15.685  0.00  0.00    +0.249 C 
ATOM      8  O   UNL     1       5.369   2.278  15.642  0.00  0.00    -0.270 OA
ATOM      9  C   UNL     1       4.732   5.715  16.752  0.00  0.00    +0.031 C 
ATOM     10  C   UNL     1       3.483   6.310  17.419  0.00  0.00    +0.031 C 
ATOM     11  H   UNL     1       2.984   3.758  19.563  0.00  0.00    +0.048 HD
ATOM     12  H   UNL     1       4.628   4.390  19.399  0.00  0.00    +0.048 HD
ATOM     13  H   UNL     1       2.844   3.401  17.101  0.00  0.00    +0.048 HD
ATOM     14  H   UNL     1       4.239   2.544  17.771  0.00  0.00    +0.048 HD
ATOM     15  H   UNL     1       4.890   6.197  15.786  0.00  0.00    +0.048 HD
ATOM     16  H   UNL     1       5.615   5.917  17.370  0.00  0.00    +0.048 HD
ATOM     17  H   UNL     1       3.625   7.385  17.561  0.00  0.00    +0.048 HD
ATOM     18  H   UNL     1       2.616   6.160  16.765  0.00  0.00    +0.048 HD
ENDROOT
BRANCH   7  19
ATOM     19  C   UNL     1       6.266   4.198  14.737  0.00  0.00    +0.072 A 
ATOM     20  C   UNL     1       7.291   5.010  15.232  0.00  0.00    -0.047 A 
ATOM     21  C   UNL     1       8.158   5.642  14.338  0.00  0.00    -0.061 A 
ATOM     22  C   UNL     1       8.008   5.453  12.961  0.00  0.00    -0.059 A 
ATOM     23  C   UNL     1       6.993   4.626  12.475  0.00  0.00    -0.026 A 
ATOM     24  C   UNL     1       6.130   3.994  13.368  0.00  0.00    +0.135 A 
ATOM     25  F   UNL     1       5.156   3.209  12.882  0.00  0.00    -0.205 F 
ATOM     26  H   UNL     1       7.420   5.137  16.303  0.00  0.00    +0.063 HD
ATOM     27  H   UNL     1       8.959   6.275  14.716  0.00  0.00    +0.062 HD
ATOM     28  H   UNL     1       8.687   5.943  12.269  0.00  0.00    +0.062 HD
ATOM     29  H   UNL     1       6.874   4.464  11.407  0.00  0.00    +0.065 HD
ENDBRANCH   7  19
BRANCH   1  33
ATOM     30  C   UNL     1       0.762  10.199  19.269  0.00  0.00    +0.029 A 
ATOM     31  C   UNL     1       0.715   9.500  20.491  0.00  0.00    -0.040 A 
ATOM     32  C   UNL     1       1.307   8.242  20.659  0.00  0.00    -0.048 A 
ATOM     33  C   UNL     1       1.994   7.653  19.603  0.00  0.00    +0.037 A 
ATOM     34  C   UNL     1       2.054   8.302  18.374  0.00  0.00    -0.048 A 
ATOM     35  C   UNL     1       1.456   9.562  18.221  0.00  0.00    -0.040 A 
ATOM     36  H   UNL     1       0.206   9.917  21.356  0.00  0.00    +0.064 HD
ATOM     37  H   UNL     1       1.230   7.729  21.615  0.00  0.00    +0.063 HD
ATOM     38  H   UNL     1       2.553   7.839  17.526  0.00  0.00    +0.063 HD
ATOM     39  H   UNL     1       1.547  10.030  17.246  0.00  0.00    +0.064 HD
BRANCH  30  40
ATOM     40  N   UNL     1       0.188  11.467  19.114  0.00  0.00    -0.336 N 
BRANCH  40  41
ATOM     41  C   UNL     1      -1.232  11.566  18.778  0.00  0.00    +0.000 C 
ATOM     42  H   UNL     1      -1.631  10.596  18.462  0.00  0.00    +0.043 HD
ATOM     43  H   UNL     1      -1.813  11.948  19.624  0.00  0.00    +0.043 HD
ATOM     44  H   UNL     1      -1.397  12.276  17.959  0.00  0.00    +0.043 HD
ENDBRANCH  40  41
BRANCH  40  45
ATOM     45  C   UNL     1       1.023  12.565  18.627  0.00  0.00    +0.000 C 
ATOM     46  H   UNL     1       1.789  12.834  19.363  0.00  0.00    +0.043 HD
ATOM     47  H   UNL     1       0.419  13.446  18.385  0.00  0.00    +0.043 HD
ATOM     48  H   UNL     1       1.539  12.293  17.699  0.00  0.00    +0.043 HD
ENDBRANCH  40  45
ENDBRANCH  30  40
ENDBRANCH   1  33
TORSDOF 5
ENDMDL
MODEL 20
REMARK VINA RESULT:    -3.633      5.458      6.949
REMARK INTER + INTRA:          -4.743
REMARK INTER:                  -4.724
REMARK INTRA:                  -0.019
REMARK UNBOUND:                -0.260
REMARK  Name = 
REMARK  5 active torsions:
REMARK  status: ('A' for Active; 'I' for Inactive)
REMARK    1  A    between atoms: C_1  and  N_2
REMARK    2  A    between atoms: N_2  and  C_3
REMARK    3  A    between atoms: N_2  and  C_4
REMARK    4  A    between atoms: C_7  and  C_8
REMARK    5  A    between atoms: C_14  and  C_16
REMARK                            x       y       z     vdW  Elec       q    Type
REMARK                         _______ _______ _______ _____ _____    ______ ____
ROOT
ATOM      1  C   UNL     1       6.994   6.572  16.537  0.00  0.00    +0.247 C 
ATOM      2  O   UNL     1       7.115   6.701  15.322  0.00  0.00    -0.270 OA
ATOM      3  N   UNL     1       6.303   5.517  17.126  0.00  0.00    -0.295 N 
ATOM      4  C   UNL     1       5.795   4.457  16.250  0.00  0.00    +0.031 C 
ATOM      5  C   UNL     1       5.461   3.170  17.011  0.00  0.00    +0.031 C 
ATOM      6  N   UNL     1       4.538   3.395  18.130  0.00  0.00    -0.294 N 
ATOM      7  C   UNL     1       3.692   2.356  18.498  0.00  0.00    +0.249 C 
ATOM      8  O   UNL     1       3.670   1.261  17.940  0.00  0.00    -0.270 OA
ATOM      9  C   UNL     1       4.516   4.748  18.701  0.00  0.00    +0.031 C 
ATOM     10  C   UNL     1       5.848   5.490  18.522  0.00  0.00    +0.031 C 
ATOM     11  H   UNL     1       6.530   4.251  15.463  0.00  0.00    +0.048 HD
ATOM     12  H   UNL     1       4.894   4.852  15.765  0.00  0.00    +0.048 HD
ATOM     13  H   UNL     1       6.374   2.747  17.443  0.00  0.00    +0.048 HD
ATOM     14  H   UNL     1       5.046   2.428  16.320  0.00  0.00    +0.048 HD
ATOM     15  H   UNL     1       4.259   4.718  19.761  0.00  0.00    +0.048 HD
ATOM     16  H   UNL     1       3.716   5.290  18.183  0.00  0.00    +0.048 HD
ATOM     17  H   UNL     1       5.750   6.509  18.908  0.00  0.00    +0.048 HD
ATOM     18  H   UNL     1       6.629   4.978  19.096  0.00  0.00    +0.048 HD
ENDROOT
BRANCH   7  19
ATOM     19  C   UNL     1       2.721   2.575  19.579  0.00  0.00    +0.072 A 
ATOM     20  C   UNL     1       3.130   2.406  20.905  0.00  0.00    -0.047 A 
ATOM     21  C   UNL     1       2.224   2.647  21.940  0.00  0.00    -0.061 A 
ATOM     22  C   UNL     1       0.922   3.067  21.649  0.00  0.00    -0.059 A 
ATOM     23  C   UNL     1       0.526   3.253  20.323  0.00  0.00    -0.026 A 
ATOM     24  C   UNL     1       1.432   3.012  19.292  0.00  0.00    +0.135 A 
ATOM     25  F   UNL     1       1.031   3.188  18.023  0.00  0.00    -0.205 F 
ATOM     26  H   UNL     1       4.149   2.101  21.129  0.00  0.00    +0.063 HD
ATOM     27  H   UNL     1       2.535   2.519  22.975  0.00  0.00    +0.062 HD
ATOM     28  H   UNL     1       0.221   3.259  22.456  0.00  0.00    +0.062 HD
ATOM     29  H   UNL     1      -0.480   3.588  20.086  0.00  0.00    +0.065 HD
ENDBRANCH   7  19
BRANCH   1  33
ATOM     30  C   UNL     1       8.819   9.604  19.030  0.00  0.00    +0.029 A 
ATOM     31  C   UNL     1       8.075   9.922  17.877  0.00  0.00    -0.040 A 
ATOM     32  C   UNL     1       7.489   8.939  17.067  0.00  0.00    -0.048 A 
ATOM     33  C   UNL     1       7.613   7.596  17.409  0.00  0.00    +0.037 A 
ATOM     34  C   UNL     1       8.351   7.237  18.532  0.00  0.00    -0.048 A 
ATOM     35  C   UNL     1       8.931   8.232  19.332  0.00  0.00    -0.040 A 
ATOM     36  H   UNL     1       7.931  10.954  17.570  0.00  0.00    +0.064 HD
ATOM     37  H   UNL     1       6.939   9.229  16.175  0.00  0.00    +0.063 HD
ATOM     38  H   UNL     1       8.492   6.191  18.791  0.00  0.00    +0.063 HD
ATOM     39  H   UNL     1       9.482   7.896  20.205  0.00  0.00    +0.064 HD
BRANCH  30  40
ATOM     40  N   UNL     1       9.382  10.591  19.848  0.00  0.00    -0.336 N 
BRANCH  40  41
ATOM     41  C   UNL     1       8.922  10.713  21.231  0.00  0.00    +0.000 C 
ATOM     42  H   UNL     1       8.797   9.727  21.692  0.00  0.00    +0.043 HD
ATOM     43  H   UNL     1       9.614  11.316  21.828  0.00  0.00    +0.043 HD
ATOM     44  H   UNL     1       7.956  11.228  21.283  0.00  0.00    +0.043 HD
ENDBRANCH  40  41
BRANCH  40  45
ATOM     45  C   UNL     1       9.852  11.834  19.234  0.00  0.00    +0.000 C 
ATOM     46  H   UNL     1      10.068  12.592  19.996  0.00  0.00    +0.043 HD
ATOM     47  H   UNL     1       9.119  12.225  18.521  0.00  0.00    +0.043 HD
ATOM     48  H   UNL     1      10.771  11.672  18.660  0.00  0.00    +0.043 HD
ENDBRANCH  40  45
ENDBRANCH  30  40
ENDBRANCH   1  33
TORSDOF 5
ENDMDL
