MODEL 1
REMARK VINA RESULT:    -8.784      0.000      0.000
REMARK INTER + INTRA:         -12.622
REMARK INTER:                 -11.936
REMARK INTRA:                  -0.686
REMARK UNBOUND:                -0.243
REMARK  Name = 
REMARK  8 active torsions:
REMARK  status: ('A' for Active; 'I' for Inactive)
REMARK    1  A    between atoms: C_1  and  C_2
REMARK    2  A    between atoms: C_2  and  C_3
REMARK    3  A    between atoms: C_2  and  C_10
REMARK    4  A    between atoms: C_3  and  C_4
REMARK    5  A    between atoms: N_8  and  C_9
REMARK    6  A    between atoms: C_14  and  N_15
REMARK    7  A    between atoms: C_16  and  C_18
REMARK    8  A    between atoms: C_23  and  C_24
REMARK                            x       y       z     vdW  Elec       q    Type
REMARK                         _______ _______ _______ _____ _____    ______ ____
ROOT
ATOM      1  C   UNL     1      -0.145  10.882  19.550  0.00  0.00    -0.042 A 
ATOM      2  C   UNL     1      -0.136  11.091  20.935  0.00  0.00    -0.058 A 
ATOM      3  C   UNL     1       0.539  10.207  21.775  0.00  0.00    -0.060 A 
ATOM      4  C   UNL     1       1.209   9.100  21.248  0.00  0.00    -0.040 A 
ATOM      5  C   UNL     1       1.208   8.864  19.874  0.00  0.00    +0.034 A 
ATOM      6  C   UNL     1       0.529   9.760  19.035  0.00  0.00    -0.037 A 
ATOM      7  H   UNL     1      -0.653  11.939  21.377  0.00  0.00    +0.062 HD
ATOM      8  H   UNL     1       0.547  10.376  22.850  0.00  0.00    +0.062 HD
ATOM      9  H   UNL     1       1.725   8.444  21.942  0.00  0.00    +0.064 HD
ATOM     10  H   UNL     1       0.515   9.590  17.961  0.00  0.00    +0.064 HD
ENDROOT
BRANCH   5  11
ATOM     11  N   UNL     1       1.857   7.773  19.258  0.00  0.00    -0.281 N 
ATOM     12  C   UNL     1       2.031   6.503  19.770  0.00  0.00    +0.249 C 
ATOM     13  O   UNL     1       1.611   6.079  20.840  0.00  0.00    -0.270 OA
ATOM     14  H   UNL     1       2.190   7.945  18.319  0.00  0.00    +0.155 HD
BRANCH  12  15
ATOM     15  C   UNL     1       2.790   5.597  18.870  0.00  0.00    +0.046 C 
ATOM     16  C   UNL     1       2.773   4.247  18.770  0.00  0.00    -0.030 C 
ATOM     17  C   UNL     1       3.668   3.809  17.693  0.00  0.00    +0.050 C 
ATOM     18 CL   UNL     1       3.905   2.186  17.285  0.00  0.00    -0.083 Cl
ATOM     19  C   UNL     1       4.217   4.886  17.128  0.00  0.00    +0.013 C 
ATOM     20  C   UNL     1       5.114   5.328  16.102  0.00  0.00    +0.064 C 
ATOM     21  C   UNL     1       5.112   6.679  16.200  0.00  0.00    -0.049 C 
ATOM     22  C   UNL     1       4.222   7.119  17.280  0.00  0.00    -0.053 C 
ATOM     23  C   UNL     1       3.688   6.028  17.837  0.00  0.00    -0.004 C 
ATOM     24  H   UNL     1       2.182   3.554  19.348  0.00  0.00    +0.064 HD
ATOM     25  H   UNL     1       5.676   7.363  15.581  0.00  0.00    +0.062 HD
ATOM     26  H   UNL     1       4.041   8.146  17.560  0.00  0.00    +0.062 HD
BRANCH  20  27
ATOM     27  C   UNL     1       5.846   4.439  15.173  0.00  0.00    +0.418 C 
ATOM     28  F   UNL     1       6.290   3.312  15.787  0.00  0.00    -0.166 F 
ATOM     29  F   UNL     1       6.930   5.050  14.630  0.00  0.00    -0.166 F 
ATOM     30  F   UNL     1       5.068   4.035  14.135  0.00  0.00    -0.166 F 
ENDBRANCH  20  27
ENDBRANCH  12  15
ENDBRANCH   5  11
BRANCH   1  31
ATOM     31  C   UNL     1      -0.885  11.813  18.599  0.00  0.00    -0.012 C 
ATOM     32  H   UNL     1      -0.470  11.666  17.592  0.00  0.00    +0.035 HD
BRANCH  31  33
ATOM     33  C   UNL     1      -0.643  13.288  18.953  0.00  0.00    -0.058 C 
ATOM     34  H   UNL     1       0.024  13.380  19.816  0.00  0.00    +0.024 HD
ATOM     35  H   UNL     1      -0.187  13.840  18.124  0.00  0.00    +0.024 HD
ATOM     36  H   UNL     1      -1.584  13.787  19.211  0.00  0.00    +0.024 HD
ENDBRANCH  31  33
BRANCH  31  37
ATOM     37  C   UNL     1      -2.386  11.460  18.570  0.00  0.00    +0.014 C 
ATOM     38  H   UNL     1      -2.989  12.333  18.844  0.00  0.00    +0.035 HD
ATOM     39  H   UNL     1      -2.599  10.695  19.329  0.00  0.00    +0.035 HD
BRANCH  37  40
ATOM     40  C   UNL     1      -2.806  10.907  17.250  0.00  0.00    +0.134 A 
ATOM     41  N   UNL     1      -2.094  10.105  16.484  0.00  0.00    -0.135 NA
ATOM     42  N   UNL     1      -2.824   9.827  15.355  0.00  0.00    -0.138 NA
ATOM     43  C   UNL     1      -3.969  10.459  15.456  0.00  0.00    +0.120 A 
ATOM     44  N   UNL     1      -4.004  11.148  16.629  0.00  0.00    -0.320 N 
ATOM     45  H   UNL     1      -4.770  10.445  14.732  0.00  0.00    +0.105 HD
BRANCH  44  46
ATOM     46  C   UNL     1      -5.090  11.963  17.100  0.00  0.00    +0.014 C 
ATOM     47  H   UNL     1      -4.820  12.375  18.075  0.00  0.00    +0.046 HD
ATOM     48  H   UNL     1      -5.993  11.353  17.194  0.00  0.00    +0.046 HD
ATOM     49  H   UNL     1      -5.265  12.765  16.377  0.00  0.00    +0.046 HD
ENDBRANCH  44  46
ENDBRANCH  37  40
ENDBRANCH  31  37
ENDBRANCH   1  31
TORSDOF 8
ENDMDL
MODEL 2
REMARK VINA RESULT:    -8.629      2.054      2.680
REMARK INTER + INTRA:         -12.403
REMARK INTER:                 -11.530
REMARK INTRA:                  -0.873
REMARK UNBOUND:                -0.243
REMARK  Name = 
REMARK  8 active torsions:
REMARK  status: ('A' for Active; 'I' for Inactive)
REMARK    1  A    between atoms: C_1  and  C_2
REMARK    2  A    between atoms: C_2  and  C_3
REMARK    3  A    between atoms: C_2  and  C_10
REMARK    4  A    between atoms: C_3  and  C_4
REMARK    5  A    between atoms: N_8  and  C_9
REMARK    6  A    between atoms: C_14  and  N_15
REMARK    7  A    between atoms: C_16  and  C_18
REMARK    8  A    between atoms: C_23  and  C_24
REMARK                            x       y       z     vdW  Elec       q    Type
REMARK                         _______ _______ _______ _____ _____    ______ ____
ROOT
ATOM      1  C   UNL     1      -0.708  11.297  20.221  0.00  0.00    -0.042 A 
ATOM      2  C   UNL     1      -0.925  11.850  21.489  0.00  0.00    -0.058 A 
ATOM      3  C   UNL     1      -0.609  11.124  22.636  0.00  0.00    -0.060 A 
ATOM      4  C   UNL     1      -0.079   9.835  22.536  0.00  0.00    -0.040 A 
ATOM      5  C   UNL     1       0.137   9.257  21.285  0.00  0.00    +0.034 A 
ATOM      6  C   UNL     1      -0.180   9.996  20.136  0.00  0.00    -0.037 A 
ATOM      7  H   UNL     1      -1.340  12.848  21.601  0.00  0.00    +0.062 HD
ATOM      8  H   UNL     1      -0.774  11.560  23.619  0.00  0.00    +0.062 HD
ATOM      9  H   UNL     1       0.155   9.312  23.457  0.00  0.00    +0.064 HD
ATOM     10  H   UNL     1      -0.021   9.560  19.152  0.00  0.00    +0.064 HD
ENDROOT
BRANCH   5  11
ATOM     11  N   UNL     1       0.666   7.963  21.092  0.00  0.00    -0.281 N 
ATOM     12  C   UNL     1       1.598   7.570  20.152  0.00  0.00    +0.249 C 
ATOM     13  O   UNL     1       2.172   8.289  19.342  0.00  0.00    -0.270 OA
ATOM     14  H   UNL     1       0.347   7.265  21.750  0.00  0.00    +0.155 HD
BRANCH  12  15
ATOM     15  C   UNL     1       1.915   6.121  20.199  0.00  0.00    +0.046 C 
ATOM     16  C   UNL     1       1.606   5.186  21.129  0.00  0.00    -0.030 C 
ATOM     17  C   UNL     1       2.103   3.871  20.709  0.00  0.00    +0.050 C 
ATOM     18 CL   UNL     1       1.904   2.466  21.628  0.00  0.00    -0.083 Cl
ATOM     19  C   UNL     1       2.700   3.999  19.522  0.00  0.00    +0.013 C 
ATOM     20  C   UNL     1       3.386   3.285  18.487  0.00  0.00    +0.064 C 
ATOM     21  C   UNL     1       3.678   4.225  17.556  0.00  0.00    -0.049 C 
ATOM     22  C   UNL     1       3.188   5.541  17.977  0.00  0.00    -0.053 C 
ATOM     23  C   UNL     1       2.600   5.395  19.167  0.00  0.00    -0.004 C 
ATOM     24  H   UNL     1       1.049   5.329  22.042  0.00  0.00    +0.064 HD
ATOM     25  H   UNL     1       4.198   4.056  16.622  0.00  0.00    +0.062 HD
ATOM     26  H   UNL     1       3.289   6.455  17.410  0.00  0.00    +0.062 HD
BRANCH  20  27
ATOM     27  C   UNL     1       3.676   1.834  18.503  0.00  0.00    +0.418 C 
ATOM     28  F   UNL     1       2.558   1.092  18.704  0.00  0.00    -0.166 F 
ATOM     29  F   UNL     1       4.558   1.500  19.480  0.00  0.00    -0.166 F 
ATOM     30  F   UNL     1       4.218   1.410  17.331  0.00  0.00    -0.166 F 
ENDBRANCH  20  27
ENDBRANCH  12  15
ENDBRANCH   5  11
BRANCH   1  31
ATOM     31  C   UNL     1      -1.056  12.049  18.942  0.00  0.00    -0.012 C 
ATOM     32  H   UNL     1      -0.479  11.603  18.121  0.00  0.00    +0.035 HD
BRANCH  31  33
ATOM     33  C   UNL     1      -0.624  13.521  19.021  0.00  0.00    -0.058 C 
ATOM     34  H   UNL     1      -0.444  13.822  20.058  0.00  0.00    +0.024 HD
ATOM     35  H   UNL     1       0.296  13.709  18.457  0.00  0.00    +0.024 HD
ATOM     36  H   UNL     1      -1.404  14.179  18.619  0.00  0.00    +0.024 HD
ENDBRANCH  31  33
BRANCH  31  37
ATOM     37  C   UNL     1      -2.558  11.898  18.629  0.00  0.00    +0.014 C 
ATOM     38  H   UNL     1      -3.045  12.880  18.611  0.00  0.00    +0.035 HD
ATOM     39  H   UNL     1      -3.048  11.333  19.435  0.00  0.00    +0.035 HD
BRANCH  37  40
ATOM     40  C   UNL     1      -2.794  11.155  17.358  0.00  0.00    +0.134 A 
ATOM     41  N   UNL     1      -1.939  10.348  16.762  0.00  0.00    -0.135 NA
ATOM     42  N   UNL     1      -2.526   9.867  15.618  0.00  0.00    -0.138 NA
ATOM     43  C   UNL     1      -3.729  10.384  15.540  0.00  0.00    +0.120 A 
ATOM     44  N   UNL     1      -3.942  11.197  16.610  0.00  0.00    -0.320 N 
ATOM     45  H   UNL     1      -4.450  10.203  14.757  0.00  0.00    +0.105 HD
BRANCH  44  46
ATOM     46  C   UNL     1      -5.140  11.944  16.880  0.00  0.00    +0.014 C 
ATOM     47  H   UNL     1      -5.619  11.528  17.768  0.00  0.00    +0.046 HD
ATOM     48  H   UNL     1      -5.819  11.870  16.026  0.00  0.00    +0.046 HD
ATOM     49  H   UNL     1      -4.870  12.992  17.043  0.00  0.00    +0.046 HD
ENDBRANCH  44  46
ENDBRANCH  37  40
ENDBRANCH  31  37
ENDBRANCH   1  31
TORSDOF 8
ENDMDL
MODEL 3
REMARK VINA RESULT:    -8.620      2.130      3.105
REMARK INTER + INTRA:         -12.390
REMARK INTER:                 -11.461
REMARK INTRA:                  -0.929
REMARK UNBOUND:                -0.243
REMARK  Name = 
REMARK  8 active torsions:
REMARK  status: ('A' for Active; 'I' for Inactive)
REMARK    1  A    between atoms: C_1  and  C_2
REMARK    2  A    between atoms: C_2  and  C_3
REMARK    3  A    between atoms: C_2  and  C_10
REMARK    4  A    between atoms: C_3  and  C_4
REMARK    5  A    between atoms: N_8  and  C_9
REMARK    6  A    between atoms: C_14  and  N_15
REMARK    7  A    between atoms: C_16  and  C_18
REMARK    8  A    between atoms: C_23  and  C_24
REMARK                            x       y       z     vdW  Elec       q    Type
REMARK                         _______ _______ _______ _____ _____    ______ ____
ROOT
ATOM      1  C   UNL     1      -0.442  11.946  18.632  0.00  0.00    -0.042 A 
ATOM      2  C   UNL     1       0.434  13.038  18.592  0.00  0.00    -0.058 A 
ATOM      3  C   UNL     1       1.803  12.836  18.431  0.00  0.00    -0.060 A 
ATOM      4  C   UNL     1       2.320  11.543  18.313  0.00  0.00    -0.040 A 
ATOM      5  C   UNL     1       1.471  10.438  18.360  0.00  0.00    +0.034 A 
ATOM      6  C   UNL     1       0.093  10.650  18.519  0.00  0.00    -0.037 A 
ATOM      7  H   UNL     1       0.064  14.056  18.686  0.00  0.00    +0.062 HD
ATOM      8  H   UNL     1       2.479  13.688  18.395  0.00  0.00    +0.062 HD
ATOM      9  H   UNL     1       3.392  11.436  18.184  0.00  0.00    +0.064 HD
ATOM     10  H   UNL     1      -0.584   9.800  18.561  0.00  0.00    +0.064 HD
ENDROOT
BRANCH   5  11
ATOM     11  N   UNL     1       1.906   9.100  18.251  0.00  0.00    -0.281 N 
ATOM     12  C   UNL     1       2.022   8.171  19.265  0.00  0.00    +0.249 C 
ATOM     13  O   UNL     1       1.722   8.329  20.443  0.00  0.00    -0.270 OA
ATOM     14  H   UNL     1       2.113   8.790  17.311  0.00  0.00    +0.155 HD
BRANCH  12  15
ATOM     15  C   UNL     1       2.542   6.856  18.812  0.00  0.00    +0.046 C 
ATOM     16  C   UNL     1       3.472   6.559  17.873  0.00  0.00    -0.030 C 
ATOM     17  C   UNL     1       3.684   5.109  17.814  0.00  0.00    +0.050 C 
ATOM     18 CL   UNL     1       4.772   4.372  16.749  0.00  0.00    -0.083 Cl
ATOM     19  C   UNL     1       2.899   4.524  18.720  0.00  0.00    +0.013 C 
ATOM     20  C   UNL     1       2.517   3.263  19.282  0.00  0.00    +0.064 C 
ATOM     21  C   UNL     1       1.599   3.572  20.229  0.00  0.00    -0.049 C 
ATOM     22  C   UNL     1       1.381   5.021  20.286  0.00  0.00    -0.053 C 
ATOM     23  C   UNL     1       2.169   5.588  19.369  0.00  0.00    -0.004 C 
ATOM     24  H   UNL     1       4.029   7.251  17.260  0.00  0.00    +0.064 HD
ATOM     25  H   UNL     1       1.083   2.868  20.869  0.00  0.00    +0.062 HD
ATOM     26  H   UNL     1       0.702   5.524  20.960  0.00  0.00    +0.062 HD
BRANCH  20  27
ATOM     27  C   UNL     1       3.055   1.949  18.866  0.00  0.00    +0.418 C 
ATOM     28  F   UNL     1       2.305   0.918  19.334  0.00  0.00    -0.166 F 
ATOM     29  F   UNL     1       4.323   1.753  19.310  0.00  0.00    -0.166 F 
ATOM     30  F   UNL     1       3.093   1.819  17.514  0.00  0.00    -0.166 F 
ENDBRANCH  20  27
ENDBRANCH  12  15
ENDBRANCH   5  11
BRANCH   1  31
ATOM     31  C   UNL     1      -1.943  12.122  18.825  0.00  0.00    -0.012 C 
ATOM     32  H   UNL     1      -2.291  12.872  18.101  0.00  0.00    +0.035 HD
BRANCH  31  33
ATOM     33  C   UNL     1      -2.269  12.684  20.217  0.00  0.00    -0.058 C 
ATOM     34  H   UNL     1      -2.209  13.777  20.223  0.00  0.00    +0.024 HD
ATOM     35  H   UNL     1      -3.277  12.406  20.544  0.00  0.00    +0.024 HD
ATOM     36  H   UNL     1      -1.559  12.311  20.964  0.00  0.00    +0.024 HD
ENDBRANCH  31  33
BRANCH  31  37
ATOM     37  C   UNL     1      -2.674  10.793  18.546  0.00  0.00    +0.014 C 
ATOM     38  H   UNL     1      -3.583  10.723  19.154  0.00  0.00    +0.035 HD
ATOM     39  H   UNL     1      -2.038   9.952  18.855  0.00  0.00    +0.035 HD
BRANCH  37  40
ATOM     40  C   UNL     1      -2.978  10.613  17.098  0.00  0.00    +0.134 A 
ATOM     41  N   UNL     1      -2.245   9.943  16.230  0.00  0.00    -0.135 NA
ATOM     42  N   UNL     1      -2.857  10.017  15.003  0.00  0.00    -0.138 NA
ATOM     43  C   UNL     1      -3.953  10.724  15.146  0.00  0.00    +0.120 A 
ATOM     44  N   UNL     1      -4.071  11.117  16.443  0.00  0.00    -0.320 N 
ATOM     45  H   UNL     1      -4.662  10.964  14.368  0.00  0.00    +0.105 HD
BRANCH  44  46
ATOM     46  C   UNL     1      -5.138  11.908  16.993  0.00  0.00    +0.014 C 
ATOM     47  H   UNL     1      -4.838  12.257  17.984  0.00  0.00    +0.046 HD
ATOM     48  H   UNL     1      -6.042  11.299  17.076  0.00  0.00    +0.046 HD
ATOM     49  H   UNL     1      -5.326  12.754  16.327  0.00  0.00    +0.046 HD
ENDBRANCH  44  46
ENDBRANCH  37  40
ENDBRANCH  31  37
ENDBRANCH   1  31
TORSDOF 8
ENDMDL
MODEL 4
REMARK VINA RESULT:    -8.597      5.452      9.630
REMARK INTER + INTRA:         -12.358
REMARK INTER:                 -11.382
REMARK INTRA:                  -0.976
REMARK UNBOUND:                -0.243
REMARK  Name = 
REMARK  8 active torsions:
REMARK  status: ('A' for Active; 'I' for Inactive)
REMARK    1  A    between atoms: C_1  and  C_2
REMARK    2  A    between atoms: C_2  and  C_3
REMARK    3  A    between atoms: C_2  and  C_10
REMARK    4  A    between atoms: C_3  and  C_4
REMARK    5  A    between atoms: N_8  and  C_9
REMARK    6  A    between atoms: C_14  and  N_15
REMARK    7  A    between atoms: C_16  and  C_18
REMARK    8  A    between atoms: C_23  and  C_24
REMARK                            x       y       z     vdW  Elec       q    Type
REMARK                         _______ _______ _______ _____ _____    ______ ____
ROOT
ATOM      1  C   UNL     1       4.807   4.366  17.030  0.00  0.00    -0.042 A 
ATOM      2  C   UNL     1       4.041   3.194  17.016  0.00  0.00    -0.058 A 
ATOM      3  C   UNL     1       2.722   3.209  17.467  0.00  0.00    -0.060 A 
ATOM      4  C   UNL     1       2.151   4.391  17.945  0.00  0.00    -0.040 A 
ATOM      5  C   UNL     1       2.894   5.570  17.980  0.00  0.00    +0.034 A 
ATOM      6  C   UNL     1       4.220   5.547  17.521  0.00  0.00    -0.037 A 
ATOM      7  H   UNL     1       4.458   2.257  16.655  0.00  0.00    +0.062 HD
ATOM      8  H   UNL     1       2.130   2.297  17.448  0.00  0.00    +0.062 HD
ATOM      9  H   UNL     1       1.120   4.354  18.281  0.00  0.00    +0.064 HD
ATOM     10  H   UNL     1       4.816   6.457  17.544  0.00  0.00    +0.064 HD
ENDROOT
BRANCH   5  11
ATOM     11  N   UNL     1       2.398   6.806  18.447  0.00  0.00    -0.281 N 
ATOM     12  C   UNL     1       1.966   7.107  19.723  0.00  0.00    +0.249 C 
ATOM     13  O   UNL     1       1.979   6.364  20.698  0.00  0.00    -0.270 OA
ATOM     14  H   UNL     1       2.405   7.556  17.770  0.00  0.00    +0.155 HD
BRANCH  12  15
ATOM     15  C   UNL     1       1.474   8.500  19.871  0.00  0.00    +0.046 C 
ATOM     16  C   UNL     1       1.455   9.522  18.983  0.00  0.00    -0.030 C 
ATOM     17  C   UNL     1       0.823  10.702  19.582  0.00  0.00    +0.050 C 
ATOM     18 CL   UNL     1       0.632  12.169  18.764  0.00  0.00    -0.083 Cl
ATOM     19  C   UNL     1       0.444  10.399  20.825  0.00  0.00    +0.013 C 
ATOM     20  C   UNL     1      -0.193  10.913  22.000  0.00  0.00    +0.064 C 
ATOM     21  C   UNL     1      -0.183   9.881  22.878  0.00  0.00    -0.049 C 
ATOM     22  C   UNL     1       0.454   8.702  22.282  0.00  0.00    -0.053 C 
ATOM     23  C   UNL     1       0.832   9.025  21.043  0.00  0.00    -0.004 C 
ATOM     24  H   UNL     1       1.808   9.509  17.963  0.00  0.00    +0.064 HD
ATOM     25  H   UNL     1      -0.584   9.895  23.882  0.00  0.00    +0.062 HD
ATOM     26  H   UNL     1       0.583   7.748  22.773  0.00  0.00    +0.062 HD
BRANCH  20  27
ATOM     27  C   UNL     1      -0.722  12.287  22.149  0.00  0.00    +0.418 C 
ATOM     28  F   UNL     1      -1.787  12.515  21.338  0.00  0.00    -0.166 F 
ATOM     29  F   UNL     1       0.211  13.228  21.856  0.00  0.00    -0.166 F 
ATOM     30  F   UNL     1      -1.141  12.538  23.417  0.00  0.00    -0.166 F 
ENDBRANCH  20  27
ENDBRANCH  12  15
ENDBRANCH   5  11
BRANCH   1  31
ATOM     31  C   UNL     1       6.257   4.389  16.563  0.00  0.00    -0.012 C 
ATOM     32  H   UNL     1       6.525   3.373  16.246  0.00  0.00    +0.035 HD
BRANCH  31  33
ATOM     33  C   UNL     1       7.212   4.749  17.711  0.00  0.00    -0.058 C 
ATOM     34  H   UNL     1       7.668   5.731  17.548  0.00  0.00    +0.024 HD
ATOM     35  H   UNL     1       6.698   4.780  18.677  0.00  0.00    +0.024 HD
ATOM     36  H   UNL     1       8.025   4.018  17.787  0.00  0.00    +0.024 HD
ENDBRANCH  31  33
BRANCH  31  37
ATOM     37  C   UNL     1       6.411   5.338  15.357  0.00  0.00    +0.014 C 
ATOM     38  H   UNL     1       7.317   5.945  15.463  0.00  0.00    +0.035 HD
ATOM     39  H   UNL     1       5.573   6.048  15.337  0.00  0.00    +0.035 HD
BRANCH  37  40
ATOM     40  C   UNL     1       6.402   4.603  14.060  0.00  0.00    +0.134 A 
ATOM     41  N   UNL     1       5.531   3.682  13.698  0.00  0.00    -0.135 NA
ATOM     42  N   UNL     1       5.867   3.242  12.441  0.00  0.00    -0.138 NA
ATOM     43  C   UNL     1       6.931   3.907  12.058  0.00  0.00    +0.120 A 
ATOM     44  N   UNL     1       7.302   4.772  13.040  0.00  0.00    -0.320 N 
ATOM     45  H   UNL     1       7.445   3.797  11.115  0.00  0.00    +0.105 HD
BRANCH  44  46
ATOM     46  C   UNL     1       8.421   5.673  12.997  0.00  0.00    +0.014 C 
ATOM     47  H   UNL     1       9.123   5.397  13.787  0.00  0.00    +0.046 HD
ATOM     48  H   UNL     1       8.075   6.698  13.154  0.00  0.00    +0.046 HD
ATOM     49  H   UNL     1       8.896   5.594  12.014  0.00  0.00    +0.046 HD
ENDBRANCH  44  46
ENDBRANCH  37  40
ENDBRANCH  31  37
ENDBRANCH   1  31
TORSDOF 8
ENDMDL
MODEL 5
REMARK VINA RESULT:    -8.572      5.490      9.685
REMARK INTER + INTRA:         -12.324
REMARK INTER:                 -11.228
REMARK INTRA:                  -1.096
REMARK UNBOUND:                -0.243
REMARK  Name = 
REMARK  8 active torsions:
REMARK  status: ('A' for Active; 'I' for Inactive)
REMARK    1  A    between atoms: C_1  and  C_2
REMARK    2  A    between atoms: C_2  and  C_3
REMARK    3  A    between atoms: C_2  and  C_10
REMARK    4  A    between atoms: C_3  and  C_4
REMARK    5  A    between atoms: N_8  and  C_9
REMARK    6  A    between atoms: C_14  and  N_15
REMARK    7  A    between atoms: C_16  and  C_18
REMARK    8  A    between atoms: C_23  and  C_24
REMARK                            x       y       z     vdW  Elec       q    Type
REMARK                         _______ _______ _______ _____ _____    ______ ____
ROOT
ATOM      1  C   UNL     1       4.441   4.840  16.841  0.00  0.00    -0.042 A 
ATOM      2  C   UNL     1       3.775   3.616  16.985  0.00  0.00    -0.058 A 
ATOM      3  C   UNL     1       2.546   3.556  17.641  0.00  0.00    -0.060 A 
ATOM      4  C   UNL     1       1.967   4.713  18.168  0.00  0.00    -0.040 A 
ATOM      5  C   UNL     1       2.614   5.943  18.048  0.00  0.00    +0.034 A 
ATOM      6  C   UNL     1       3.848   5.995  17.383  0.00  0.00    -0.037 A 
ATOM      7  H   UNL     1       4.201   2.697  16.591  0.00  0.00    +0.062 HD
ATOM      8  H   UNL     1       2.030   2.605  17.745  0.00  0.00    +0.062 HD
ATOM      9  H   UNL     1       1.008   4.618  18.665  0.00  0.00    +0.064 HD
ATOM     10  H   UNL     1       4.369   6.945  17.283  0.00  0.00    +0.064 HD
ENDROOT
BRANCH   5  11
ATOM     11  N   UNL     1       2.104   7.159  18.551  0.00  0.00    -0.281 N 
ATOM     12  C   UNL     1       1.751   7.445  19.854  0.00  0.00    +0.249 C 
ATOM     13  O   UNL     1       1.862   6.704  20.824  0.00  0.00    -0.270 OA
ATOM     14  H   UNL     1       2.033   7.908  17.875  0.00  0.00    +0.155 HD
BRANCH  12  15
ATOM     15  C   UNL     1       1.216   8.817  20.038  0.00  0.00    +0.046 C 
ATOM     16  C   UNL     1       1.221   9.879  19.199  0.00  0.00    -0.030 C 
ATOM     17  C   UNL     1       0.526  11.015  19.815  0.00  0.00    +0.050 C 
ATOM     18 CL   UNL     1       0.344  12.515  19.057  0.00  0.00    -0.083 Cl
ATOM     19  C   UNL     1       0.087  10.645  21.020  0.00  0.00    +0.013 C 
ATOM     20  C   UNL     1      -0.628  11.088  22.179  0.00  0.00    +0.064 C 
ATOM     21  C   UNL     1      -0.640  10.015  23.007  0.00  0.00    -0.049 C 
ATOM     22  C   UNL     1       0.059   8.880  22.395  0.00  0.00    -0.053 C 
ATOM     23  C   UNL     1       0.497   9.271  21.195  0.00  0.00    -0.004 C 
ATOM     24  H   UNL     1       1.630   9.924  18.201  0.00  0.00    +0.064 HD
ATOM     25  H   UNL     1      -1.097   9.972  23.987  0.00  0.00    +0.062 HD
ATOM     26  H   UNL     1       0.185   7.907  22.847  0.00  0.00    +0.062 HD
BRANCH  20  27
ATOM     27  C   UNL     1      -1.199  12.440  22.361  0.00  0.00    +0.418 C 
ATOM     28  F   UNL     1      -1.983  12.809  21.315  0.00  0.00    -0.166 F 
ATOM     29  F   UNL     1      -0.237  13.388  22.492  0.00  0.00    -0.166 F 
ATOM     30  F   UNL     1      -1.976  12.520  23.474  0.00  0.00    -0.166 F 
ENDBRANCH  20  27
ENDBRANCH  12  15
ENDBRANCH   5  11
BRANCH   1  31
ATOM     31  C   UNL     1       5.792   4.946  16.148  0.00  0.00    -0.012 C 
ATOM     32  H   UNL     1       5.854   5.937  15.678  0.00  0.00    +0.035 HD
BRANCH  31  33
ATOM     33  C   UNL     1       5.923   3.922  15.011  0.00  0.00    -0.058 C 
ATOM     34  H   UNL     1       5.220   4.142  14.201  0.00  0.00    +0.024 HD
ATOM     35  H   UNL     1       6.930   3.914  14.580  0.00  0.00    +0.024 HD
ATOM     36  H   UNL     1       5.704   2.910  15.369  0.00  0.00    +0.024 HD
ENDBRANCH  31  33
BRANCH  31  37
ATOM     37  C   UNL     1       6.931   4.819  17.181  0.00  0.00    +0.014 C 
ATOM     38  H   UNL     1       7.738   4.192  16.784  0.00  0.00    +0.035 HD
ATOM     39  H   UNL     1       6.560   4.302  18.076  0.00  0.00    +0.035 HD
BRANCH  37  40
ATOM     40  C   UNL     1       7.445   6.149  17.616  0.00  0.00    +0.134 A 
ATOM     41  N   UNL     1       7.439   7.254  16.896  0.00  0.00    -0.135 NA
ATOM     42  N   UNL     1       8.003   8.258  17.645  0.00  0.00    -0.138 NA
ATOM     43  C   UNL     1       8.336   7.748  18.807  0.00  0.00    +0.120 A 
ATOM     44  N   UNL     1       8.004   6.429  18.835  0.00  0.00    -0.320 N 
ATOM     45  H   UNL     1       8.801   8.279  19.625  0.00  0.00    +0.105 HD
BRANCH  44  46
ATOM     46  C   UNL     1       8.211   5.527  19.935  0.00  0.00    +0.014 C 
ATOM     47  H   UNL     1       7.676   4.598  19.730  0.00  0.00    +0.046 HD
ATOM     48  H   UNL     1       7.829   5.977  20.856  0.00  0.00    +0.046 HD
ATOM     49  H   UNL     1       9.284   5.341  20.037  0.00  0.00    +0.046 HD
ENDBRANCH  44  46
ENDBRANCH  37  40
ENDBRANCH  31  37
ENDBRANCH   1  31
TORSDOF 8
ENDMDL
MODEL 6
REMARK VINA RESULT:    -8.539      5.638      9.258
REMARK INTER + INTRA:         -12.277
REMARK INTER:                 -11.128
REMARK INTRA:                  -1.150
REMARK UNBOUND:                -0.243
REMARK  Name = 
REMARK  8 active torsions:
REMARK  status: ('A' for Active; 'I' for Inactive)
REMARK    1  A    between atoms: C_1  and  C_2
REMARK    2  A    between atoms: C_2  and  C_3
REMARK    3  A    between atoms: C_2  and  C_10
REMARK    4  A    between atoms: C_3  and  C_4
REMARK    5  A    between atoms: N_8  and  C_9
REMARK    6  A    between atoms: C_14  and  N_15
REMARK    7  A    between atoms: C_16  and  C_18
REMARK    8  A    between atoms: C_23  and  C_24
REMARK                            x       y       z     vdW  Elec       q    Type
REMARK                         _______ _______ _______ _____ _____    ______ ____
ROOT
ATOM      1  C   UNL     1       5.541   4.819  18.971  0.00  0.00    -0.042 A 
ATOM      2  C   UNL     1       4.977   3.544  19.104  0.00  0.00    -0.058 A 
ATOM      3  C   UNL     1       3.628   3.401  19.426  0.00  0.00    -0.060 A 
ATOM      4  C   UNL     1       2.825   4.527  19.626  0.00  0.00    -0.040 A 
ATOM      5  C   UNL     1       3.363   5.807  19.510  0.00  0.00    +0.034 A 
ATOM      6  C   UNL     1       4.721   5.942  19.182  0.00  0.00    -0.037 A 
ATOM      7  H   UNL     1       5.576   2.649  18.960  0.00  0.00    +0.062 HD
ATOM      8  H   UNL     1       3.194   2.409  19.523  0.00  0.00    +0.062 HD
ATOM      9  H   UNL     1       1.780   4.365  19.870  0.00  0.00    +0.064 HD
ATOM     10  H   UNL     1       5.159   6.934  19.091  0.00  0.00    +0.064 HD
ENDROOT
BRANCH   5  11
ATOM     11  N   UNL     1       2.627   6.996  19.696  0.00  0.00    -0.281 N 
ATOM     12  C   UNL     1       2.210   7.885  18.726  0.00  0.00    +0.249 C 
ATOM     13  O   UNL     1       2.366   7.777  17.515  0.00  0.00    -0.270 OA
ATOM     14  H   UNL     1       2.345   7.183  20.649  0.00  0.00    +0.155 HD
BRANCH  12  15
ATOM     15  C   UNL     1       1.477   9.058  19.268  0.00  0.00    +0.046 C 
ATOM     16  C   UNL     1       1.259  10.280  18.729  0.00  0.00    -0.030 C 
ATOM     17  C   UNL     1       0.435  11.092  19.632  0.00  0.00    +0.050 C 
ATOM     18 CL   UNL     1      -0.031  12.680  19.287  0.00  0.00    -0.083 Cl
ATOM     19  C   UNL     1       0.139  10.364  20.711  0.00  0.00    +0.013 C 
ATOM     20  C   UNL     1      -0.558  10.377  21.961  0.00  0.00    +0.064 C 
ATOM     21  C   UNL     1      -0.347   9.146  22.486  0.00  0.00    -0.049 C 
ATOM     22  C   UNL     1       0.481   8.335  21.588  0.00  0.00    -0.053 C 
ATOM     23  C   UNL     1       0.772   9.080  20.518  0.00  0.00    -0.004 C 
ATOM     24  H   UNL     1       1.590  10.641  17.767  0.00  0.00    +0.064 HD
ATOM     25  H   UNL     1      -0.726   8.783  23.432  0.00  0.00    +0.062 HD
ATOM     26  H   UNL     1       0.789   7.316  21.772  0.00  0.00    +0.062 HD
BRANCH  20  27
ATOM     27  C   UNL     1      -1.324  11.524  22.496  0.00  0.00    +0.418 C 
ATOM     28  F   UNL     1      -2.056  11.185  23.588  0.00  0.00    -0.166 F 
ATOM     29  F   UNL     1      -2.186  12.034  21.580  0.00  0.00    -0.166 F 
ATOM     30  F   UNL     1      -0.512  12.546  22.876  0.00  0.00    -0.166 F 
ENDBRANCH  20  27
ENDBRANCH  12  15
ENDBRANCH   5  11
BRANCH   1  31
ATOM     31  C   UNL     1       7.014   5.019  18.638  0.00  0.00    -0.012 C 
ATOM     32  H   UNL     1       7.455   4.031  18.451  0.00  0.00    +0.035 HD
BRANCH  31  33
ATOM     33  C   UNL     1       7.783   5.617  19.826  0.00  0.00    -0.058 C 
ATOM     34  H   UNL     1       8.505   6.367  19.489  0.00  0.00    +0.024 HD
ATOM     35  H   UNL     1       7.114   6.102  20.545  0.00  0.00    +0.024 HD
ATOM     36  H   UNL     1       8.342   4.840  20.360  0.00  0.00    +0.024 HD
ENDBRANCH  31  33
BRANCH  31  37
ATOM     37  C   UNL     1       7.158   5.873  17.362  0.00  0.00    +0.014 C 
ATOM     38  H   UNL     1       8.203   6.173  17.220  0.00  0.00    +0.035 HD
ATOM     39  H   UNL     1       6.589   6.805  17.476  0.00  0.00    +0.035 HD
BRANCH  37  40
ATOM     40  C   UNL     1       6.629   5.173  16.156  0.00  0.00    +0.134 A 
ATOM     41  N   UNL     1       7.052   4.017  15.685  0.00  0.00    -0.135 NA
ATOM     42  N   UNL     1       6.320   3.717  14.562  0.00  0.00    -0.138 NA
ATOM     43  C   UNL     1       5.462   4.691  14.374  0.00  0.00    +0.120 A 
ATOM     44  N   UNL     1       5.618   5.626  15.350  0.00  0.00    -0.320 N 
ATOM     45  H   UNL     1       4.738   4.756  13.576  0.00  0.00    +0.105 HD
BRANCH  44  46
ATOM     46  C   UNL     1       4.863   6.841  15.485  0.00  0.00    +0.014 C 
ATOM     47  H   UNL     1       3.801   6.606  15.388  0.00  0.00    +0.046 HD
ATOM     48  H   UNL     1       5.157   7.546  14.702  0.00  0.00    +0.046 HD
ATOM     49  H   UNL     1       5.073   7.277  16.467  0.00  0.00    +0.046 HD
ENDBRANCH  44  46
ENDBRANCH  37  40
ENDBRANCH  31  37
ENDBRANCH   1  31
TORSDOF 8
ENDMDL
MODEL 7
REMARK VINA RESULT:    -8.531      1.395      1.558
REMARK INTER + INTRA:         -12.265
REMARK INTER:                 -11.588
REMARK INTRA:                  -0.677
REMARK UNBOUND:                -0.243
REMARK  Name = 
REMARK  8 active torsions:
REMARK  status: ('A' for Active; 'I' for Inactive)
REMARK    1  A    between atoms: C_1  and  C_2
REMARK    2  A    between atoms: C_2  and  C_3
REMARK    3  A    between atoms: C_2  and  C_10
REMARK    4  A    between atoms: C_3  and  C_4
REMARK    5  A    between atoms: N_8  and  C_9
REMARK    6  A    between atoms: C_14  and  N_15
REMARK    7  A    between atoms: C_16  and  C_18
REMARK    8  A    between atoms: C_23  and  C_24
REMARK                            x       y       z     vdW  Elec       q    Type
REMARK                         _______ _______ _______ _____ _____    ______ ____
ROOT
ATOM      1  C   UNL     1      -0.236  11.082  20.918  0.00  0.00    -0.042 A 
ATOM      2  C   UNL     1      -0.673  10.965  22.243  0.00  0.00    -0.058 A 
ATOM      3  C   UNL     1      -0.276   9.879  23.022  0.00  0.00    -0.060 A 
ATOM      4  C   UNL     1       0.558   8.893  22.490  0.00  0.00    -0.040 A 
ATOM      5  C   UNL     1       1.000   8.980  21.170  0.00  0.00    +0.034 A 
ATOM      6  C   UNL     1       0.598  10.077  20.394  0.00  0.00    -0.037 A 
ATOM      7  H   UNL     1      -1.327  11.712  22.685  0.00  0.00    +0.062 HD
ATOM      8  H   UNL     1      -0.614   9.796  24.052  0.00  0.00    +0.062 HD
ATOM      9  H   UNL     1       0.844   8.070  23.136  0.00  0.00    +0.064 HD
ATOM     10  H   UNL     1       0.930  10.160  19.361  0.00  0.00    +0.064 HD
ENDROOT
BRANCH   5  11
ATOM     11  N   UNL     1       1.840   8.030  20.552  0.00  0.00    -0.281 N 
ATOM     12  C   UNL     1       2.033   7.835  19.199  0.00  0.00    +0.249 C 
ATOM     13  O   UNL     1       1.540   8.487  18.286  0.00  0.00    -0.270 OA
ATOM     14  H   UNL     1       2.388   7.463  21.185  0.00  0.00    +0.155 HD
BRANCH  12  15
ATOM     15  C   UNL     1       2.967   6.724  18.885  0.00  0.00    +0.046 C 
ATOM     16  C   UNL     1       3.153   5.535  19.504  0.00  0.00    -0.030 C 
ATOM     17  C   UNL     1       4.164   4.746  18.791  0.00  0.00    +0.050 C 
ATOM     18 CL   UNL     1       4.659   3.207  19.285  0.00  0.00    -0.083 Cl
ATOM     19  C   UNL     1       4.583   5.444  17.734  0.00  0.00    +0.013 C 
ATOM     20  C   UNL     1       5.465   5.421  16.606  0.00  0.00    +0.064 C 
ATOM     21  C   UNL     1       5.261   6.608  15.984  0.00  0.00    -0.049 C 
ATOM     22  C   UNL     1       4.255   7.400  16.699  0.00  0.00    -0.053 C 
ATOM     23  C   UNL     1       3.852   6.690  17.756  0.00  0.00    -0.004 C 
ATOM     24  H   UNL     1       2.635   5.160  20.374  0.00  0.00    +0.064 HD
ATOM     25  H   UNL     1       5.756   6.949  15.085  0.00  0.00    +0.062 HD
ATOM     26  H   UNL     1       3.910   8.381  16.406  0.00  0.00    +0.062 HD
BRANCH  20  27
ATOM     27  C   UNL     1       6.373   4.306  16.259  0.00  0.00    +0.418 C 
ATOM     28  F   UNL     1       7.275   4.055  17.242  0.00  0.00    -0.166 F 
ATOM     29  F   UNL     1       7.078   4.555  15.125  0.00  0.00    -0.166 F 
ATOM     30  F   UNL     1       5.698   3.146  16.048  0.00  0.00    -0.166 F 
ENDBRANCH  20  27
ENDBRANCH  12  15
ENDBRANCH   5  11
BRANCH   1  31
ATOM     31  C   UNL     1      -0.661  12.242  20.027  0.00  0.00    -0.012 C 
ATOM     32  H   UNL     1      -0.196  12.100  19.042  0.00  0.00    +0.035 HD
BRANCH  31  33
ATOM     33  C   UNL     1      -0.136  13.583  20.562  0.00  0.00    -0.058 C 
ATOM     34  H   UNL     1      -0.878  14.066  21.206  0.00  0.00    +0.024 HD
ATOM     35  H   UNL     1       0.780  13.460  21.148  0.00  0.00    +0.024 HD
ATOM     36  H   UNL     1       0.082  14.273  19.739  0.00  0.00    +0.024 HD
ENDBRANCH  31  33
BRANCH  31  37
ATOM     37  C   UNL     1      -2.194  12.244  19.853  0.00  0.00    +0.014 C 
ATOM     38  H   UNL     1      -2.599  13.242  20.056  0.00  0.00    +0.035 HD
ATOM     39  H   UNL     1      -2.650  11.575  20.596  0.00  0.00    +0.035 HD
BRANCH  37  40
ATOM     40  C   UNL     1      -2.605  11.758  18.504  0.00  0.00    +0.134 A 
ATOM     41  N   UNL     1      -1.793  11.398  17.530  0.00  0.00    -0.135 NA
ATOM     42  N   UNL     1      -2.556  11.022  16.452  0.00  0.00    -0.138 NA
ATOM     43  C   UNL     1      -3.816  11.153  16.790  0.00  0.00    +0.120 A 
ATOM     44  N   UNL     1      -3.896  11.610  18.069  0.00  0.00    -0.320 N 
ATOM     45  H   UNL     1      -4.669  10.935  16.165  0.00  0.00    +0.105 HD
BRANCH  44  46
ATOM     46  C   UNL     1      -5.106  11.882  18.797  0.00  0.00    +0.014 C 
ATOM     47  H   UNL     1      -5.533  10.933  19.130  0.00  0.00    +0.046 HD
ATOM     48  H   UNL     1      -5.818  12.398  18.146  0.00  0.00    +0.046 HD
ATOM     49  H   UNL     1      -4.864  12.518  19.653  0.00  0.00    +0.046 HD
ENDBRANCH  44  46
ENDBRANCH  37  40
ENDBRANCH  31  37
ENDBRANCH   1  31
TORSDOF 8
ENDMDL
MODEL 8
REMARK VINA RESULT:    -8.414      3.045      4.469
REMARK INTER + INTRA:         -12.100
REMARK INTER:                 -10.960
REMARK INTRA:                  -1.140
REMARK UNBOUND:                -0.243
REMARK  Name = 
REMARK  8 active torsions:
REMARK  status: ('A' for Active; 'I' for Inactive)
REMARK    1  A    between atoms: C_1  and  C_2
REMARK    2  A    between atoms: C_2  and  C_3
REMARK    3  A    between atoms: C_2  and  C_10
REMARK    4  A    between atoms: C_3  and  C_4
REMARK    5  A    between atoms: N_8  and  C_9
REMARK    6  A    between atoms: C_14  and  N_15
REMARK    7  A    between atoms: C_16  and  C_18
REMARK    8  A    between atoms: C_23  and  C_24
REMARK                            x       y       z     vdW  Elec       q    Type
REMARK                         _______ _______ _______ _____ _____    ______ ____
ROOT
ATOM      1  C   UNL     1      -0.796  11.776  19.226  0.00  0.00    -0.042 A 
ATOM      2  C   UNL     1       0.012  12.904  19.035  0.00  0.00    -0.058 A 
ATOM      3  C   UNL     1       1.345  12.757  18.651  0.00  0.00    -0.060 A 
ATOM      4  C   UNL     1       1.891  11.486  18.458  0.00  0.00    -0.040 A 
ATOM      5  C   UNL     1       1.111  10.347  18.651  0.00  0.00    +0.034 A 
ATOM      6  C   UNL     1      -0.230  10.503  19.034  0.00  0.00    -0.037 A 
ATOM      7  H   UNL     1      -0.381  13.906  19.181  0.00  0.00    +0.062 HD
ATOM      8  H   UNL     1       1.967  13.636  18.499  0.00  0.00    +0.062 HD
ATOM      9  H   UNL     1       2.931  11.423  18.155  0.00  0.00    +0.064 HD
ATOM     10  H   UNL     1      -0.852   9.625  19.193  0.00  0.00    +0.064 HD
ENDROOT
BRANCH   5  11
ATOM     11  N   UNL     1       1.581   9.027  18.481  0.00  0.00    -0.281 N 
ATOM     12  C   UNL     1       1.935   8.129  19.468  0.00  0.00    +0.249 C 
ATOM     13  O   UNL     1       1.861   8.302  20.679  0.00  0.00    -0.270 OA
ATOM     14  H   UNL     1       1.617   8.704  17.524  0.00  0.00    +0.155 HD
BRANCH  12  15
ATOM     15  C   UNL     1       2.421   6.828  18.942  0.00  0.00    +0.046 C 
ATOM     16  C   UNL     1       3.317   6.559  17.964  0.00  0.00    -0.030 C 
ATOM     17  C   UNL     1       3.505   5.109  17.835  0.00  0.00    +0.050 C 
ATOM     18 CL   UNL     1       4.548   4.404  16.707  0.00  0.00    -0.083 Cl
ATOM     19  C   UNL     1       2.738   4.497  18.740  0.00  0.00    +0.013 C 
ATOM     20  C   UNL     1       2.353   3.219  19.259  0.00  0.00    +0.064 C 
ATOM     21  C   UNL     1       1.469   3.499  20.246  0.00  0.00    -0.049 C 
ATOM     22  C   UNL     1       1.275   4.947  20.372  0.00  0.00    -0.053 C 
ATOM     23  C   UNL     1       2.045   5.542  19.456  0.00  0.00    -0.004 C 
ATOM     24  H   UNL     1       3.866   7.269  17.364  0.00  0.00    +0.064 HD
ATOM     25  H   UNL     1       0.962   2.776  20.871  0.00  0.00    +0.062 HD
ATOM     26  H   UNL     1       0.625   5.430  21.087  0.00  0.00    +0.062 HD
BRANCH  20  27
ATOM     27  C   UNL     1       2.858   1.916  18.771  0.00  0.00    +0.418 C 
ATOM     28  F   UNL     1       2.171   0.871  19.299  0.00  0.00    -0.166 F 
ATOM     29  F   UNL     1       4.167   1.729  19.077  0.00  0.00    -0.166 F 
ATOM     30  F   UNL     1       2.756   1.804  17.420  0.00  0.00    -0.166 F 
ENDBRANCH  20  27
ENDBRANCH  12  15
ENDBRANCH   5  11
BRANCH   1  31
ATOM     31  C   UNL     1      -2.251  11.891  19.662  0.00  0.00    -0.012 C 
ATOM     32  H   UNL     1      -2.476  11.036  20.314  0.00  0.00    +0.035 HD
BRANCH  31  33
ATOM     33  C   UNL     1      -3.207  11.783  18.465  0.00  0.00    -0.058 C 
ATOM     34  H   UNL     1      -3.743  10.828  18.476  0.00  0.00    +0.024 HD
ATOM     35  H   UNL     1      -3.957  12.581  18.466  0.00  0.00    +0.024 HD
ATOM     36  H   UNL     1      -2.657  11.840  17.519  0.00  0.00    +0.024 HD
ENDBRANCH  31  33
BRANCH  31  37
ATOM     37  C   UNL     1      -2.464  13.192  20.463  0.00  0.00    +0.014 C 
ATOM     38  H   UNL     1      -3.007  13.927  19.858  0.00  0.00    +0.035 HD
ATOM     39  H   UNL     1      -1.491  13.647  20.691  0.00  0.00    +0.035 HD
BRANCH  37  40
ATOM     40  C   UNL     1      -3.156  12.945  21.760  0.00  0.00    +0.134 A 
ATOM     41  N   UNL     1      -4.411  13.240  22.037  0.00  0.00    -0.135 NA
ATOM     42  N   UNL     1      -4.666  12.864  23.333  0.00  0.00    -0.138 NA
ATOM     43  C   UNL     1      -3.565  12.341  23.819  0.00  0.00    +0.120 A 
ATOM     44  N   UNL     1      -2.592  12.369  22.869  0.00  0.00    -0.320 N 
ATOM     45  H   UNL     1      -3.435  11.946  24.816  0.00  0.00    +0.105 HD
BRANCH  44  46
ATOM     46  C   UNL     1      -1.246  11.889  23.021  0.00  0.00    +0.014 C 
ATOM     47  H   UNL     1      -0.573  12.562  22.487  0.00  0.00    +0.046 HD
ATOM     48  H   UNL     1      -1.166  10.881  22.604  0.00  0.00    +0.046 HD
ATOM     49  H   UNL     1      -1.002  11.863  24.087  0.00  0.00    +0.046 HD
ENDBRANCH  44  46
ENDBRANCH  37  40
ENDBRANCH  31  37
ENDBRANCH   1  31
TORSDOF 8
ENDMDL
MODEL 9
REMARK VINA RESULT:    -8.382      2.403      3.401
REMARK INTER + INTRA:         -12.056
REMARK INTER:                 -10.976
REMARK INTRA:                  -1.080
REMARK UNBOUND:                -0.243
REMARK  Name = 
REMARK  8 active torsions:
REMARK  status: ('A' for Active; 'I' for Inactive)
REMARK    1  A    between atoms: C_1  and  C_2
REMARK    2  A    between atoms: C_2  and  C_3
REMARK    3  A    between atoms: C_2  and  C_10
REMARK    4  A    between atoms: C_3  and  C_4
REMARK    5  A    between atoms: N_8  and  C_9
REMARK    6  A    between atoms: C_14  and  N_15
REMARK    7  A    between atoms: C_16  and  C_18
REMARK    8  A    between atoms: C_23  and  C_24
REMARK                            x       y       z     vdW  Elec       q    Type
REMARK                         _______ _______ _______ _____ _____    ______ ____
ROOT
ATOM      1  C   UNL     1      -0.534  11.473  18.950  0.00  0.00    -0.042 A 
ATOM      2  C   UNL     1       0.259  12.626  18.907  0.00  0.00    -0.058 A 
ATOM      3  C   UNL     1       1.606  12.542  18.559  0.00  0.00    -0.060 A 
ATOM      4  C   UNL     1       2.183  11.308  18.254  0.00  0.00    -0.040 A 
ATOM      5  C   UNL     1       1.419  10.142  18.298  0.00  0.00    +0.034 A 
ATOM      6  C   UNL     1       0.064  10.235  18.646  0.00  0.00    -0.037 A 
ATOM      7  H   UNL     1      -0.159  13.601  19.144  0.00  0.00    +0.062 HD
ATOM      8  H   UNL     1       2.216  13.442  18.522  0.00  0.00    +0.062 HD
ATOM      9  H   UNL     1       3.234  11.293  17.983  0.00  0.00    +0.064 HD
ATOM     10  H   UNL     1      -0.547   9.336  18.689  0.00  0.00    +0.064 HD
ENDROOT
BRANCH   5  11
ATOM     11  N   UNL     1       1.920   8.855  18.007  0.00  0.00    -0.281 N 
ATOM     12  C   UNL     1       2.192   7.839  18.902  0.00  0.00    +0.249 C 
ATOM     13  O   UNL     1       2.002   7.857  20.112  0.00  0.00    -0.270 OA
ATOM     14  H   UNL     1       2.051   8.656  17.025  0.00  0.00    +0.155 HD
BRANCH  12  15
ATOM     15  C   UNL     1       2.742   6.616  18.264  0.00  0.00    +0.046 C 
ATOM     16  C   UNL     1       2.256   5.353  18.228  0.00  0.00    -0.030 C 
ATOM     17  C   UNL     1       3.138   4.494  17.431  0.00  0.00    +0.050 C 
ATOM     18 CL   UNL     1       2.848   2.848  17.174  0.00  0.00    -0.083 Cl
ATOM     19  C   UNL     1       4.151   5.231  16.970  0.00  0.00    +0.013 C 
ATOM     20  C   UNL     1       5.344   5.196  16.180  0.00  0.00    +0.064 C 
ATOM     21  C   UNL     1       5.815   6.466  16.209  0.00  0.00    -0.049 C 
ATOM     22  C   UNL     1       4.937   7.326  17.011  0.00  0.00    -0.053 C 
ATOM     23  C   UNL     1       3.935   6.570  17.468  0.00  0.00    -0.004 C 
ATOM     24  H   UNL     1       1.342   4.990  18.674  0.00  0.00    +0.064 HD
ATOM     25  H   UNL     1       6.709   6.826  15.717  0.00  0.00    +0.062 HD
ATOM     26  H   UNL     1       5.088   8.381  17.186  0.00  0.00    +0.062 HD
BRANCH  20  27
ATOM     27  C   UNL     1       5.884   3.994  15.507  0.00  0.00    +0.418 C 
ATOM     28  F   UNL     1       5.687   2.867  16.238  0.00  0.00    -0.166 F 
ATOM     29  F   UNL     1       7.218   4.093  15.277  0.00  0.00    -0.166 F 
ATOM     30  F   UNL     1       5.297   3.779  14.300  0.00  0.00    -0.166 F 
ENDBRANCH  20  27
ENDBRANCH  12  15
ENDBRANCH   5  11
BRANCH   1  31
ATOM     31  C   UNL     1      -2.005  11.518  19.343  0.00  0.00    -0.012 C 
ATOM     32  H   UNL     1      -2.177  10.736  20.095  0.00  0.00    +0.035 HD
BRANCH  31  33
ATOM     33  C   UNL     1      -2.915  11.180  18.153  0.00  0.00    -0.058 C 
ATOM     34  H   UNL     1      -2.327  11.004  17.246  0.00  0.00    +0.024 HD
ATOM     35  H   UNL     1      -3.514  10.282  18.337  0.00  0.00    +0.024 HD
ATOM     36  H   UNL     1      -3.605  12.005  17.942  0.00  0.00    +0.024 HD
ENDBRANCH  31  33
BRANCH  31  37
ATOM     37  C   UNL     1      -2.346  12.886  19.967  0.00  0.00    +0.014 C 
ATOM     38  H   UNL     1      -2.942  13.485  19.270  0.00  0.00    +0.035 HD
ATOM     39  H   UNL     1      -1.421  13.453  20.139  0.00  0.00    +0.035 HD
BRANCH  37  40
ATOM     40  C   UNL     1      -3.033  12.746  21.283  0.00  0.00    +0.134 A 
ATOM     41  N   UNL     1      -4.336  12.772  21.482  0.00  0.00    -0.135 NA
ATOM     42  N   UNL     1      -4.569  12.618  22.827  0.00  0.00    -0.138 NA
ATOM     43  C   UNL     1      -3.405  12.494  23.421  0.00  0.00    +0.120 A 
ATOM     44  N   UNL     1      -2.413  12.567  22.492  0.00  0.00    -0.320 N 
ATOM     45  H   UNL     1      -3.242  12.355  24.479  0.00  0.00    +0.105 HD
BRANCH  44  46
ATOM     46  C   UNL     1      -1.003  12.476  22.752  0.00  0.00    +0.014 C 
ATOM     47  H   UNL     1      -0.754  13.154  23.571  0.00  0.00    +0.046 HD
ATOM     48  H   UNL     1      -0.445  12.760  21.855  0.00  0.00    +0.046 HD
ATOM     49  H   UNL     1      -0.762  11.443  23.020  0.00  0.00    +0.046 HD
ENDBRANCH  44  46
ENDBRANCH  37  40
ENDBRANCH  31  37
ENDBRANCH   1  31
TORSDOF 8
ENDMDL
MODEL 10
REMARK VINA RESULT:    -8.373      5.393      9.453
REMARK INTER + INTRA:         -12.043
REMARK INTER:                 -11.311
REMARK INTRA:                  -0.732
REMARK UNBOUND:                -0.243
REMARK  Name = 
REMARK  8 active torsions:
REMARK  status: ('A' for Active; 'I' for Inactive)
REMARK    1  A    between atoms: C_1  and  C_2
REMARK    2  A    between atoms: C_2  and  C_3
REMARK    3  A    between atoms: C_2  and  C_10
REMARK    4  A    between atoms: C_3  and  C_4
REMARK    5  A    between atoms: N_8  and  C_9
REMARK    6  A    between atoms: C_14  and  N_15
REMARK    7  A    between atoms: C_16  and  C_18
REMARK    8  A    between atoms: C_23  and  C_24
REMARK                            x       y       z     vdW  Elec       q    Type
REMARK                         _______ _______ _______ _____ _____    ______ ____
ROOT
ATOM      1  C   UNL     1       4.368   4.507  16.952  0.00  0.00    -0.042 A 
ATOM      2  C   UNL     1       3.867   3.200  16.976  0.00  0.00    -0.058 A 
ATOM      3  C   UNL     1       2.740   2.892  17.737  0.00  0.00    -0.060 A 
ATOM      4  C   UNL     1       2.100   3.881  18.487  0.00  0.00    -0.040 A 
ATOM      5  C   UNL     1       2.583   5.189  18.488  0.00  0.00    +0.034 A 
ATOM      6  C   UNL     1       3.716   5.491  17.718  0.00  0.00    -0.037 A 
ATOM      7  H   UNL     1       4.345   2.407  16.408  0.00  0.00    +0.062 HD
ATOM      8  H   UNL     1       2.352   1.876  17.748  0.00  0.00    +0.062 HD
ATOM      9  H   UNL     1       1.223   3.594  19.059  0.00  0.00    +0.064 HD
ATOM     10  H   UNL     1       4.110   6.506  17.709  0.00  0.00    +0.064 HD
ENDROOT
BRANCH   5  11
ATOM     11  N   UNL     1       2.001   6.248  19.217  0.00  0.00    -0.281 N 
ATOM     12  C   UNL     1       2.182   7.602  19.017  0.00  0.00    +0.249 C 
ATOM     13  O   UNL     1       2.850   8.131  18.136  0.00  0.00    -0.270 OA
ATOM     14  H   UNL     1       1.348   5.968  19.935  0.00  0.00    +0.155 HD
BRANCH  12  15
ATOM     15  C   UNL     1       1.442   8.450  19.985  0.00  0.00    +0.046 C 
ATOM     16  C   UNL     1       1.238   8.289  21.314  0.00  0.00    -0.030 C 
ATOM     17  C   UNL     1       0.478   9.423  21.851  0.00  0.00    +0.050 C 
ATOM     18 CL   UNL     1       0.033   9.557  23.476  0.00  0.00    -0.083 Cl
ATOM     19  C   UNL     1       0.231  10.280  20.858  0.00  0.00    +0.013 C 
ATOM     20  C   UNL     1      -0.386  11.531  20.533  0.00  0.00    +0.064 C 
ATOM     21  C   UNL     1      -0.164  11.691  19.206  0.00  0.00    -0.049 C 
ATOM     22  C   UNL     1       0.590  10.555  18.667  0.00  0.00    -0.053 C 
ATOM     23  C   UNL     1       0.823   9.706  19.672  0.00  0.00    -0.004 C 
ATOM     24  H   UNL     1       1.592   7.482  21.938  0.00  0.00    +0.064 HD
ATOM     25  H   UNL     1      -0.486  12.530  18.604  0.00  0.00    +0.062 HD
ATOM     26  H   UNL     1       0.898  10.443  17.638  0.00  0.00    +0.062 HD
BRANCH  20  27
ATOM     27  C   UNL     1      -1.094  12.405  21.495  0.00  0.00    +0.418 C 
ATOM     28  F   UNL     1      -2.229  11.831  21.968  0.00  0.00    -0.166 F 
ATOM     29  F   UNL     1      -1.448  13.592  20.940  0.00  0.00    -0.166 F 
ATOM     30  F   UNL     1      -0.326  12.697  22.578  0.00  0.00    -0.166 F 
ENDBRANCH  20  27
ENDBRANCH  12  15
ENDBRANCH   5  11
BRANCH   1  31
ATOM     31  C   UNL     1       5.607   4.882  16.149  0.00  0.00    -0.012 C 
ATOM     32  H   UNL     1       5.494   5.925  15.822  0.00  0.00    +0.035 HD
BRANCH  31  33
ATOM     33  C   UNL     1       5.725   4.039  14.871  0.00  0.00    -0.058 C 
ATOM     34  H   UNL     1       5.038   3.187  14.898  0.00  0.00    +0.024 HD
ATOM     35  H   UNL     1       5.493   4.622  13.973  0.00  0.00    +0.024 HD
ATOM     36  H   UNL     1       6.740   3.640  14.758  0.00  0.00    +0.024 HD
ENDBRANCH  31  33
BRANCH  31  37
ATOM     37  C   UNL     1       6.865   4.777  17.035  0.00  0.00    +0.014 C 
ATOM     38  H   UNL     1       7.649   4.211  16.518  0.00  0.00    +0.035 HD
ATOM     39  H   UNL     1       6.630   4.206  17.943  0.00  0.00    +0.035 HD
BRANCH  37  40
ATOM     40  C   UNL     1       7.361   6.116  17.466  0.00  0.00    +0.134 A 
ATOM     41  N   UNL     1       7.344   7.218  16.742  0.00  0.00    -0.135 NA
ATOM     42  N   UNL     1       7.893   8.231  17.489  0.00  0.00    -0.138 NA
ATOM     43  C   UNL     1       8.227   7.731  18.654  0.00  0.00    +0.120 A 
ATOM     44  N   UNL     1       7.911   6.408  18.687  0.00  0.00    -0.320 N 
ATOM     45  H   UNL     1       8.683   8.270  19.472  0.00  0.00    +0.105 HD
BRANCH  44  46
ATOM     46  C   UNL     1       8.125   5.513  19.791  0.00  0.00    +0.014 C 
ATOM     47  H   UNL     1       7.229   5.508  20.415  0.00  0.00    +0.046 HD
ATOM     48  H   UNL     1       8.982   5.854  20.380  0.00  0.00    +0.046 HD
ATOM     49  H   UNL     1       8.327   4.513  19.398  0.00  0.00    +0.046 HD
ENDBRANCH  44  46
ENDBRANCH  37  40
ENDBRANCH  31  37
ENDBRANCH   1  31
TORSDOF 8
ENDMDL
MODEL 11
REMARK VINA RESULT:    -8.371      5.529      9.169
REMARK INTER + INTRA:         -12.039
REMARK INTER:                 -10.795
REMARK INTRA:                  -1.244
REMARK UNBOUND:                -0.243
REMARK  Name = 
REMARK  8 active torsions:
REMARK  status: ('A' for Active; 'I' for Inactive)
REMARK    1  A    between atoms: C_1  and  C_2
REMARK    2  A    between atoms: C_2  and  C_3
REMARK    3  A    between atoms: C_2  and  C_10
REMARK    4  A    between atoms: C_3  and  C_4
REMARK    5  A    between atoms: N_8  and  C_9
REMARK    6  A    between atoms: C_14  and  N_15
REMARK    7  A    between atoms: C_16  and  C_18
REMARK    8  A    between atoms: C_23  and  C_24
REMARK                            x       y       z     vdW  Elec       q    Type
REMARK                         _______ _______ _______ _____ _____    ______ ____
ROOT
ATOM      1  C   UNL     1       5.624   4.618  18.785  0.00  0.00    -0.042 A 
ATOM      2  C   UNL     1       5.116   3.340  18.519  0.00  0.00    -0.058 A 
ATOM      3  C   UNL     1       3.769   3.059  18.741  0.00  0.00    -0.060 A 
ATOM      4  C   UNL     1       2.911   4.044  19.237  0.00  0.00    -0.040 A 
ATOM      5  C   UNL     1       3.394   5.321  19.520  0.00  0.00    +0.034 A 
ATOM      6  C   UNL     1       4.750   5.597  19.290  0.00  0.00    -0.037 A 
ATOM      7  H   UNL     1       5.758   2.551  18.137  0.00  0.00    +0.062 HD
ATOM      8  H   UNL     1       3.378   2.067  18.528  0.00  0.00    +0.062 HD
ATOM      9  H   UNL     1       1.870   3.779  19.389  0.00  0.00    +0.064 HD
ATOM     10  H   UNL     1       5.145   6.588  19.508  0.00  0.00    +0.064 HD
ENDROOT
BRANCH   5  11
ATOM     11  N   UNL     1       2.601   6.374  20.023  0.00  0.00    -0.281 N 
ATOM     12  C   UNL     1       2.177   7.502  19.349  0.00  0.00    +0.249 C 
ATOM     13  O   UNL     1       2.377   7.770  18.170  0.00  0.00    -0.270 OA
ATOM     14  H   UNL     1       2.280   6.254  20.975  0.00  0.00    +0.155 HD
BRANCH  12  15
ATOM     15  C   UNL     1       1.378   8.431  20.187  0.00  0.00    +0.046 C 
ATOM     16  C   UNL     1       1.077   8.382  21.506  0.00  0.00    -0.030 C 
ATOM     17  C   UNL     1       0.291   9.561  21.889  0.00  0.00    +0.050 C 
ATOM     18 CL   UNL     1      -0.269   9.832  23.461  0.00  0.00    -0.083 Cl
ATOM     19  C   UNL     1       0.125  10.333  20.813  0.00  0.00    +0.013 C 
ATOM     20  C   UNL     1      -0.453  11.555  20.342  0.00  0.00    +0.064 C 
ATOM     21  C   UNL     1      -0.134  11.602  19.026  0.00  0.00    -0.049 C 
ATOM     22  C   UNL     1       0.646  10.422  18.639  0.00  0.00    -0.053 C 
ATOM     23  C   UNL     1       0.796   9.659  19.725  0.00  0.00    -0.004 C 
ATOM     24  H   UNL     1       1.376   7.629  22.219  0.00  0.00    +0.064 HD
ATOM     25  H   UNL     1      -0.402  12.389  18.334  0.00  0.00    +0.062 HD
ATOM     26  H   UNL     1       1.026  10.223  17.648  0.00  0.00    +0.062 HD
BRANCH  20  27
ATOM     27  C   UNL     1      -1.220  12.509  21.173  0.00  0.00    +0.418 C 
ATOM     28  F   UNL     1      -1.714  13.541  20.443  0.00  0.00    -0.166 F 
ATOM     29  F   UNL     1      -0.462  13.047  22.163  0.00  0.00    -0.166 F 
ATOM     30  F   UNL     1      -2.283  11.918  21.778  0.00  0.00    -0.166 F 
ENDBRANCH  20  27
ENDBRANCH  12  15
ENDBRANCH   5  11
BRANCH   1  31
ATOM     31  C   UNL     1       7.093   4.962  18.573  0.00  0.00    -0.012 C 
ATOM     32  H   UNL     1       7.631   4.028  18.362  0.00  0.00    +0.035 HD
BRANCH  31  33
ATOM     33  C   UNL     1       7.723   5.544  19.847  0.00  0.00    -0.058 C 
ATOM     34  H   UNL     1       6.952   5.865  20.555  0.00  0.00    +0.024 HD
ATOM     35  H   UNL     1       8.360   4.815  20.359  0.00  0.00    +0.024 HD
ATOM     36  H   UNL     1       8.339   6.421  19.613  0.00  0.00    +0.024 HD
ENDBRANCH  31  33
BRANCH  31  37
ATOM     37  C   UNL     1       7.248   5.905  17.362  0.00  0.00    +0.014 C 
ATOM     38  H   UNL     1       8.294   6.210  17.248  0.00  0.00    +0.035 HD
ATOM     39  H   UNL     1       6.682   6.829  17.541  0.00  0.00    +0.035 HD
BRANCH  37  40
ATOM     40  C   UNL     1       6.722   5.297  16.106  0.00  0.00    +0.134 A 
ATOM     41  N   UNL     1       7.232   4.256  15.478  0.00  0.00    -0.135 NA
ATOM     42  N   UNL     1       6.468   4.010  14.363  0.00  0.00    -0.138 NA
ATOM     43  C   UNL     1       5.506   4.900  14.336  0.00  0.00    +0.120 A 
ATOM     44  N   UNL     1       5.623   5.727  15.410  0.00  0.00    -0.320 N 
ATOM     45  H   UNL     1       4.732   4.979  13.587  0.00  0.00    +0.105 HD
BRANCH  44  46
ATOM     46  C   UNL     1       4.757   6.829  15.728  0.00  0.00    +0.014 C 
ATOM     47  H   UNL     1       3.722   6.509  15.596  0.00  0.00    +0.046 HD
ATOM     48  H   UNL     1       4.971   7.669  15.061  0.00  0.00    +0.046 HD
ATOM     49  H   UNL     1       4.939   7.130  16.764  0.00  0.00    +0.046 HD
ENDBRANCH  44  46
ENDBRANCH  37  40
ENDBRANCH  31  37
ENDBRANCH   1  31
TORSDOF 8
ENDMDL
MODEL 12
REMARK VINA RESULT:    -8.272      2.950      4.553
REMARK INTER + INTRA:         -11.901
REMARK INTER:                 -10.677
REMARK INTRA:                  -1.224
REMARK UNBOUND:                -0.243
REMARK  Name = 
REMARK  8 active torsions:
REMARK  status: ('A' for Active; 'I' for Inactive)
REMARK    1  A    between atoms: C_1  and  C_2
REMARK    2  A    between atoms: C_2  and  C_3
REMARK    3  A    between atoms: C_2  and  C_10
REMARK    4  A    between atoms: C_3  and  C_4
REMARK    5  A    between atoms: N_8  and  C_9
REMARK    6  A    between atoms: C_14  and  N_15
REMARK    7  A    between atoms: C_16  and  C_18
REMARK    8  A    between atoms: C_23  and  C_24
REMARK                            x       y       z     vdW  Elec       q    Type
REMARK                         _______ _______ _______ _____ _____    ______ ____
ROOT
ATOM      1  C   UNL     1      -0.760  12.666  19.609  0.00  0.00    -0.042 A 
ATOM      2  C   UNL     1      -2.062  12.618  19.095  0.00  0.00    -0.058 A 
ATOM      3  C   UNL     1      -2.491  11.509  18.368  0.00  0.00    -0.060 A 
ATOM      4  C   UNL     1      -1.627  10.436  18.137  0.00  0.00    -0.040 A 
ATOM      5  C   UNL     1      -0.322  10.463  18.628  0.00  0.00    +0.034 A 
ATOM      6  C   UNL     1       0.101  11.581  19.362  0.00  0.00    -0.037 A 
ATOM      7  H   UNL     1      -2.757  13.438  19.253  0.00  0.00    +0.062 HD
ATOM      8  H   UNL     1      -3.505  11.474  17.976  0.00  0.00    +0.062 HD
ATOM      9  H   UNL     1      -2.007   9.593  17.569  0.00  0.00    +0.064 HD
ATOM     10  H   UNL     1       1.116  11.621  19.750  0.00  0.00    +0.064 HD
ENDROOT
BRANCH   5  11
ATOM     11  N   UNL     1       0.616   9.425  18.440  0.00  0.00    -0.281 N 
ATOM     12  C   UNL     1       1.324   8.749  19.414  0.00  0.00    +0.249 C 
ATOM     13  O   UNL     1       1.230   8.897  20.627  0.00  0.00    -0.270 OA
ATOM     14  H   UNL     1       0.743   9.128  17.483  0.00  0.00    +0.155 HD
BRANCH  12  15
ATOM     15  C   UNL     1       2.258   7.730  18.871  0.00  0.00    +0.046 C 
ATOM     16  C   UNL     1       3.132   7.804  17.839  0.00  0.00    -0.030 C 
ATOM     17  C   UNL     1       3.873   6.545  17.713  0.00  0.00    +0.050 C 
ATOM     18 CL   UNL     1       5.047   6.273  16.527  0.00  0.00    -0.083 Cl
ATOM     19  C   UNL     1       3.466   5.710  18.671  0.00  0.00    +0.013 C 
ATOM     20  C   UNL     1       3.652   4.404  19.227  0.00  0.00    +0.064 C 
ATOM     21  C   UNL     1       2.785   4.344  20.266  0.00  0.00    -0.049 C 
ATOM     22  C   UNL     1       2.038   5.600  20.390  0.00  0.00    -0.053 C 
ATOM     23  C   UNL     1       2.454   6.420  19.421  0.00  0.00    -0.004 C 
ATOM     24  H   UNL     1       3.318   8.652  17.198  0.00  0.00    +0.064 HD
ATOM     25  H   UNL     1       2.644   3.502  20.930  0.00  0.00    +0.062 HD
ATOM     26  H   UNL     1       1.290   5.810  21.141  0.00  0.00    +0.062 HD
BRANCH  20  27
ATOM     27  C   UNL     1       4.605   3.392  18.720  0.00  0.00    +0.418 C 
ATOM     28  F   UNL     1       4.248   2.919  17.499  0.00  0.00    -0.166 F 
ATOM     29  F   UNL     1       4.704   2.323  19.550  0.00  0.00    -0.166 F 
ATOM     30  F   UNL     1       5.860   3.897  18.588  0.00  0.00    -0.166 F 
ENDBRANCH  20  27
ENDBRANCH  12  15
ENDBRANCH   5  11
BRANCH   1  31
ATOM     31  C   UNL     1      -0.246  13.866  20.393  0.00  0.00    -0.012 C 
ATOM     32  H   UNL     1      -1.003  14.659  20.331  0.00  0.00    +0.035 HD
BRANCH  31  33
ATOM     33  C   UNL     1       1.033  14.441  19.767  0.00  0.00    -0.058 C 
ATOM     34  H   UNL     1       1.372  13.824  18.929  0.00  0.00    +0.024 HD
ATOM     35  H   UNL     1       0.883  15.458  19.388  0.00  0.00    +0.024 HD
ATOM     36  H   UNL     1       1.847  14.474  20.501  0.00  0.00    +0.024 HD
ENDBRANCH  31  33
BRANCH  31  37
ATOM     37  C   UNL     1      -0.049  13.487  21.875  0.00  0.00    +0.014 C 
ATOM     38  H   UNL     1       0.484  14.284  22.406  0.00  0.00    +0.035 HD
ATOM     39  H   UNL     1       0.590  12.596  21.946  0.00  0.00    +0.035 HD
BRANCH  37  40
ATOM     40  C   UNL     1      -1.341  13.162  22.547  0.00  0.00    +0.134 A 
ATOM     41  N   UNL     1      -2.319  14.011  22.796  0.00  0.00    -0.135 NA
ATOM     42  N   UNL     1      -3.328  13.330  23.431  0.00  0.00    -0.138 NA
ATOM     43  C   UNL     1      -2.950  12.080  23.551  0.00  0.00    +0.120 A 
ATOM     44  N   UNL     1      -1.711  11.927  23.010  0.00  0.00    -0.320 N 
ATOM     45  H   UNL     1      -3.521  11.283  24.005  0.00  0.00    +0.105 HD
BRANCH  44  46
ATOM     46  C   UNL     1      -0.959  10.704  22.951  0.00  0.00    +0.014 C 
ATOM     47  H   UNL     1      -0.102  10.853  22.290  0.00  0.00    +0.046 HD
ATOM     48  H   UNL     1      -1.591   9.902  22.560  0.00  0.00    +0.046 HD
ATOM     49  H   UNL     1      -0.626  10.448  23.961  0.00  0.00    +0.046 HD
ENDBRANCH  44  46
ENDBRANCH  37  40
ENDBRANCH  31  37
ENDBRANCH   1  31
TORSDOF 8
ENDMDL
MODEL 13
REMARK VINA RESULT:    -8.236      5.666      9.532
REMARK INTER + INTRA:         -11.849
REMARK INTER:                 -11.336
REMARK INTRA:                  -0.514
REMARK UNBOUND:                -0.243
REMARK  Name = 
REMARK  8 active torsions:
REMARK  status: ('A' for Active; 'I' for Inactive)
REMARK    1  A    between atoms: C_1  and  C_2
REMARK    2  A    between atoms: C_2  and  C_3
REMARK    3  A    between atoms: C_2  and  C_10
REMARK    4  A    between atoms: C_3  and  C_4
REMARK    5  A    between atoms: N_8  and  C_9
REMARK    6  A    between atoms: C_14  and  N_15
REMARK    7  A    between atoms: C_16  and  C_18
REMARK    8  A    between atoms: C_23  and  C_24
REMARK                            x       y       z     vdW  Elec       q    Type
REMARK                         _______ _______ _______ _____ _____    ______ ____
ROOT
ATOM      1  C   UNL     1       2.698   3.351  19.017  0.00  0.00    -0.042 A 
ATOM      2  C   UNL     1       2.799   2.563  20.170  0.00  0.00    -0.058 A 
ATOM      3  C   UNL     1       2.425   3.079  21.410  0.00  0.00    -0.060 A 
ATOM      4  C   UNL     1       1.951   4.388  21.519  0.00  0.00    -0.040 A 
ATOM      5  C   UNL     1       1.850   5.197  20.388  0.00  0.00    +0.034 A 
ATOM      6  C   UNL     1       2.225   4.670  19.143  0.00  0.00    -0.037 A 
ATOM      7  H   UNL     1       3.169   1.542  20.120  0.00  0.00    +0.062 HD
ATOM      8  H   UNL     1       2.501   2.461  22.302  0.00  0.00    +0.062 HD
ATOM      9  H   UNL     1       1.668   4.743  22.504  0.00  0.00    +0.064 HD
ATOM     10  H   UNL     1       2.155   5.288  18.250  0.00  0.00    +0.064 HD
ENDROOT
BRANCH   5  11
ATOM     11  N   UNL     1       1.384   6.529  20.406  0.00  0.00    -0.281 N 
ATOM     12  C   UNL     1       1.907   7.610  19.726  0.00  0.00    +0.249 C 
ATOM     13  O   UNL     1       2.849   7.598  18.942  0.00  0.00    -0.270 OA
ATOM     14  H   UNL     1       0.547   6.685  20.952  0.00  0.00    +0.155 HD
BRANCH  12  15
ATOM     15  C   UNL     1       1.193   8.884  19.992  0.00  0.00    +0.046 C 
ATOM     16  C   UNL     1       0.958   9.943  19.181  0.00  0.00    -0.030 C 
ATOM     17  C   UNL     1       0.163  10.954  19.887  0.00  0.00    +0.050 C 
ATOM     18 CL   UNL     1      -0.314  12.416  19.185  0.00  0.00    -0.083 Cl
ATOM     19  C   UNL     1      -0.098  10.510  21.118  0.00  0.00    +0.013 C 
ATOM     20  C   UNL     1      -0.756  10.828  22.350  0.00  0.00    +0.064 C 
ATOM     21  C   UNL     1      -0.528   9.758  23.149  0.00  0.00    -0.049 C 
ATOM     22  C   UNL     1       0.271   8.748  22.447  0.00  0.00    -0.053 C 
ATOM     23  C   UNL     1       0.528   9.212  21.221  0.00  0.00    -0.004 C 
ATOM     24  H   UNL     1       1.258  10.058  18.151  0.00  0.00    +0.064 HD
ATOM     25  H   UNL     1      -0.877   9.637  24.166  0.00  0.00    +0.062 HD
ATOM     26  H   UNL     1       0.585   7.801  22.862  0.00  0.00    +0.062 HD
BRANCH  20  27
ATOM     27  C   UNL     1      -1.504  12.076  22.617  0.00  0.00    +0.418 C 
ATOM     28  F   UNL     1      -0.679  13.142  22.777  0.00  0.00    -0.166 F 
ATOM     29  F   UNL     1      -2.263  11.987  23.738  0.00  0.00    -0.166 F 
ATOM     30  F   UNL     1      -2.350  12.390  21.600  0.00  0.00    -0.166 F 
ENDBRANCH  20  27
ENDBRANCH  12  15
ENDBRANCH   5  11
BRANCH   1  31
ATOM     31  C   UNL     1       3.112   2.832  17.646  0.00  0.00    -0.012 C 
ATOM     32  H   UNL     1       2.212   2.456  17.141  0.00  0.00    +0.035 HD
BRANCH  31  33
ATOM     33  C   UNL     1       4.071   1.638  17.763  0.00  0.00    -0.058 C 
ATOM     34  H   UNL     1       5.096   1.932  17.513  0.00  0.00    +0.024 HD
ATOM     35  H   UNL     1       4.085   1.221  18.775  0.00  0.00    +0.024 HD
ATOM     36  H   UNL     1       3.783   0.836  17.073  0.00  0.00    +0.024 HD
ENDBRANCH  31  33
BRANCH  31  37
ATOM     37  C   UNL     1       3.708   3.978  16.802  0.00  0.00    +0.014 C 
ATOM     38  H   UNL     1       3.099   4.883  16.906  0.00  0.00    +0.035 HD
ATOM     39  H   UNL     1       3.672   3.709  15.738  0.00  0.00    +0.035 HD
BRANCH  37  40
ATOM     40  C   UNL     1       5.134   4.244  17.146  0.00  0.00    +0.134 A 
ATOM     41  N   UNL     1       5.593   4.588  18.334  0.00  0.00    -0.135 NA
ATOM     42  N   UNL     1       6.954   4.748  18.238  0.00  0.00    -0.138 NA
ATOM     43  C   UNL     1       7.299   4.493  16.999  0.00  0.00    +0.120 A 
ATOM     44  N   UNL     1       6.192   4.171  16.278  0.00  0.00    -0.320 N 
ATOM     45  H   UNL     1       8.301   4.527  16.598  0.00  0.00    +0.105 HD
BRANCH  44  46
ATOM     46  C   UNL     1       6.161   3.829  14.882  0.00  0.00    +0.014 C 
ATOM     47  H   UNL     1       7.141   4.040  14.449  0.00  0.00    +0.046 HD
ATOM     48  H   UNL     1       5.398   4.427  14.374  0.00  0.00    +0.046 HD
ATOM     49  H   UNL     1       5.917   2.767  14.786  0.00  0.00    +0.046 HD
ENDBRANCH  44  46
ENDBRANCH  37  40
ENDBRANCH  31  37
ENDBRANCH   1  31
TORSDOF 8
ENDMDL
MODEL 14
REMARK VINA RESULT:    -8.227      2.302      3.451
REMARK INTER + INTRA:         -11.837
REMARK INTER:                 -11.186
REMARK INTRA:                  -0.650
REMARK UNBOUND:                -0.243
REMARK  Name = 
REMARK  8 active torsions:
REMARK  status: ('A' for Active; 'I' for Inactive)
REMARK    1  A    between atoms: C_1  and  C_2
REMARK    2  A    between atoms: C_2  and  C_3
REMARK    3  A    between atoms: C_2  and  C_10
REMARK    4  A    between atoms: C_3  and  C_4
REMARK    5  A    between atoms: N_8  and  C_9
REMARK    6  A    between atoms: C_14  and  N_15
REMARK    7  A    between atoms: C_16  and  C_18
REMARK    8  A    between atoms: C_23  and  C_24
REMARK                            x       y       z     vdW  Elec       q    Type
REMARK                         _______ _______ _______ _____ _____    ______ ____
ROOT
ATOM      1  C   UNL     1      -0.433  11.986  21.873  0.00  0.00    -0.042 A 
ATOM      2  C   UNL     1      -1.128  11.520  22.996  0.00  0.00    -0.058 A 
ATOM      3  C   UNL     1      -1.045  10.180  23.369  0.00  0.00    -0.060 A 
ATOM      4  C   UNL     1      -0.273   9.284  22.625  0.00  0.00    -0.040 A 
ATOM      5  C   UNL     1       0.421   9.720  21.497  0.00  0.00    +0.034 A 
ATOM      6  C   UNL     1       0.335  11.071  21.130  0.00  0.00    -0.037 A 
ATOM      7  H   UNL     1      -1.741  12.191  23.592  0.00  0.00    +0.062 HD
ATOM      8  H   UNL     1      -1.583   9.824  24.244  0.00  0.00    +0.062 HD
ATOM      9  H   UNL     1      -0.236   8.252  22.957  0.00  0.00    +0.064 HD
ATOM     10  H   UNL     1       0.868  11.428  20.251  0.00  0.00    +0.064 HD
ENDROOT
BRANCH   5  11
ATOM     11  N   UNL     1       1.222   8.885  20.688  0.00  0.00    -0.281 N 
ATOM     12  C   UNL     1       1.327   8.901  19.312  0.00  0.00    +0.249 C 
ATOM     13  O   UNL     1       0.776   9.681  18.543  0.00  0.00    -0.270 OA
ATOM     14  H   UNL     1       1.809   8.234  21.191  0.00  0.00    +0.155 HD
BRANCH  12  15
ATOM     15  C   UNL     1       2.240   7.863  18.772  0.00  0.00    +0.046 C 
ATOM     16  C   UNL     1       3.118   7.917  17.743  0.00  0.00    -0.030 C 
ATOM     17  C   UNL     1       3.833   6.642  17.620  0.00  0.00    +0.050 C 
ATOM     18 CL   UNL     1       5.004   6.344  16.437  0.00  0.00    -0.083 Cl
ATOM     19  C   UNL     1       3.404   5.817  18.577  0.00  0.00    +0.013 C 
ATOM     20  C   UNL     1       3.560   4.507  19.134  0.00  0.00    +0.064 C 
ATOM     21  C   UNL     1       2.689   4.467  20.171  0.00  0.00    -0.049 C 
ATOM     22  C   UNL     1       1.969   5.739  20.292  0.00  0.00    -0.053 C 
ATOM     23  C   UNL     1       2.406   6.548  19.323  0.00  0.00    -0.004 C 
ATOM     24  H   UNL     1       3.325   8.761  17.102  0.00  0.00    +0.064 HD
ATOM     25  H   UNL     1       2.527   3.628  20.834  0.00  0.00    +0.062 HD
ATOM     26  H   UNL     1       1.223   5.965  21.040  0.00  0.00    +0.062 HD
BRANCH  20  27
ATOM     27  C   UNL     1       4.493   3.475  18.630  0.00  0.00    +0.418 C 
ATOM     28  F   UNL     1       4.143   3.026  17.398  0.00  0.00    -0.166 F 
ATOM     29  F   UNL     1       4.547   2.393  19.448  0.00  0.00    -0.166 F 
ATOM     30  F   UNL     1       5.764   3.945  18.525  0.00  0.00    -0.166 F 
ENDBRANCH  20  27
ENDBRANCH  12  15
ENDBRANCH   5  11
BRANCH   1  31
ATOM     31  C   UNL     1      -0.510  13.439  21.421  0.00  0.00    -0.012 C 
ATOM     32  H   UNL     1       0.292  13.608  20.690  0.00  0.00    +0.035 HD
BRANCH  31  33
ATOM     33  C   UNL     1      -0.244  14.405  22.585  0.00  0.00    -0.058 C 
ATOM     34  H   UNL     1      -0.715  15.376  22.405  0.00  0.00    +0.024 HD
ATOM     35  H   UNL     1      -0.632  14.021  23.534  0.00  0.00    +0.024 HD
ATOM     36  H   UNL     1       0.831  14.580  22.709  0.00  0.00    +0.024 HD
ENDBRANCH  31  33
BRANCH  31  37
ATOM     37  C   UNL     1      -1.866  13.711  20.738  0.00  0.00    +0.014 C 
ATOM     38  H   UNL     1      -1.935  14.761  20.432  0.00  0.00    +0.035 HD
ATOM     39  H   UNL     1      -2.680  13.551  21.457  0.00  0.00    +0.035 HD
BRANCH  37  40
ATOM     40  C   UNL     1      -2.105  12.796  19.584  0.00  0.00    +0.134 A 
ATOM     41  N   UNL     1      -3.118  11.961  19.456  0.00  0.00    -0.135 NA
ATOM     42  N   UNL     1      -2.976  11.294  18.263  0.00  0.00    -0.138 NA
ATOM     43  C   UNL     1      -1.886  11.739  17.686  0.00  0.00    +0.120 A 
ATOM     44  N   UNL     1      -1.307  12.683  18.476  0.00  0.00    -0.320 N 
ATOM     45  H   UNL     1      -1.495  11.417  16.732  0.00  0.00    +0.105 HD
BRANCH  44  46
ATOM     46  C   UNL     1      -0.097  13.402  18.188  0.00  0.00    +0.014 C 
ATOM     47  H   UNL     1      -0.306  14.140  17.411  0.00  0.00    +0.046 HD
ATOM     48  H   UNL     1       0.670  12.705  17.837  0.00  0.00    +0.046 HD
ATOM     49  H   UNL     1       0.246  13.892  19.103  0.00  0.00    +0.046 HD
ENDBRANCH  44  46
ENDBRANCH  37  40
ENDBRANCH  31  37
ENDBRANCH   1  31
TORSDOF 8
ENDMDL
MODEL 15
REMARK VINA RESULT:    -8.224      5.491      9.322
REMARK INTER + INTRA:         -11.833
REMARK INTER:                 -10.914
REMARK INTRA:                  -0.919
REMARK UNBOUND:                -0.243
REMARK  Name = 
REMARK  8 active torsions:
REMARK  status: ('A' for Active; 'I' for Inactive)
REMARK    1  A    between atoms: C_1  and  C_2
REMARK    2  A    between atoms: C_2  and  C_3
REMARK    3  A    between atoms: C_2  and  C_10
REMARK    4  A    between atoms: C_3  and  C_4
REMARK    5  A    between atoms: N_8  and  C_9
REMARK    6  A    between atoms: C_14  and  N_15
REMARK    7  A    between atoms: C_16  and  C_18
REMARK    8  A    between atoms: C_23  and  C_24
REMARK                            x       y       z     vdW  Elec       q    Type
REMARK                         _______ _______ _______ _____ _____    ______ ____
ROOT
ATOM      1  C   UNL     1       2.729   3.256  19.002  0.00  0.00    -0.042 A 
ATOM      2  C   UNL     1       2.939   2.340  20.040  0.00  0.00    -0.058 A 
ATOM      3  C   UNL     1       2.572   2.661  21.346  0.00  0.00    -0.060 A 
ATOM      4  C   UNL     1       1.996   3.899  21.636  0.00  0.00    -0.040 A 
ATOM      5  C   UNL     1       1.784   4.833  20.623  0.00  0.00    +0.034 A 
ATOM      6  C   UNL     1       2.153   4.502  19.311  0.00  0.00    -0.037 A 
ATOM      7  H   UNL     1       3.391   1.370  19.848  0.00  0.00    +0.062 HD
ATOM      8  H   UNL     1       2.733   1.944  22.148  0.00  0.00    +0.062 HD
ATOM      9  H   UNL     1       1.722   4.101  22.667  0.00  0.00    +0.064 HD
ATOM     10  H   UNL     1       1.998   5.219  18.508  0.00  0.00    +0.064 HD
ENDROOT
BRANCH   5  11
ATOM     11  N   UNL     1       1.210   6.106  20.826  0.00  0.00    -0.281 N 
ATOM     12  C   UNL     1       1.686   7.322  20.379  0.00  0.00    +0.249 C 
ATOM     13  O   UNL     1       2.675   7.510  19.680  0.00  0.00    -0.270 OA
ATOM     14  H   UNL     1       0.329   6.107  21.322  0.00  0.00    +0.155 HD
BRANCH  12  15
ATOM     15  C   UNL     1       0.853   8.478  20.796  0.00  0.00    +0.046 C 
ATOM     16  C   UNL     1       0.308   8.775  21.999  0.00  0.00    -0.030 C 
ATOM     17  C   UNL     1      -0.398  10.059  21.931  0.00  0.00    +0.050 C 
ATOM     18 CL   UNL     1      -1.208  10.745  23.247  0.00  0.00    -0.083 Cl
ATOM     19  C   UNL     1      -0.274  10.551  20.697  0.00  0.00    +0.013 C 
ATOM     20  C   UNL     1      -0.614  11.653  19.848  0.00  0.00    +0.064 C 
ATOM     21  C   UNL     1      -0.052  11.355  18.652  0.00  0.00    -0.049 C 
ATOM     22  C   UNL     1       0.650  10.068  18.717  0.00  0.00    -0.053 C 
ATOM     23  C   UNL     1       0.509   9.589  19.956  0.00  0.00    -0.004 C 
ATOM     24  H   UNL     1       0.383   8.204  22.912  0.00  0.00    +0.064 HD
ATOM     25  H   UNL     1      -0.097  11.962  17.758  0.00  0.00    +0.062 HD
ATOM     26  H   UNL     1       1.184   9.607  17.899  0.00  0.00    +0.062 HD
BRANCH  20  27
ATOM     27  C   UNL     1      -1.410  12.830  20.261  0.00  0.00    +0.418 C 
ATOM     28  F   UNL     1      -0.971  13.360  21.431  0.00  0.00    -0.166 F 
ATOM     29  F   UNL     1      -2.722  12.525  20.430  0.00  0.00    -0.166 F 
ATOM     30  F   UNL     1      -1.360  13.828  19.340  0.00  0.00    -0.166 F 
ENDBRANCH  20  27
ENDBRANCH  12  15
ENDBRANCH   5  11
BRANCH   1  31
ATOM     31  C   UNL     1       3.131   2.953  17.564  0.00  0.00    -0.012 C 
ATOM     32  H   UNL     1       2.226   2.663  17.014  0.00  0.00    +0.035 HD
BRANCH  31  33
ATOM     33  C   UNL     1       4.084   1.750  17.489  0.00  0.00    -0.058 C 
ATOM     34  H   UNL     1       5.117   2.077  17.329  0.00  0.00    +0.024 HD
ATOM     35  H   UNL     1       4.066   1.154  18.408  0.00  0.00    +0.024 HD
ATOM     36  H   UNL     1       3.816   1.090  16.656  0.00  0.00    +0.024 HD
ENDBRANCH  31  33
BRANCH  31  37
ATOM     37  C   UNL     1       3.729   4.212  16.904  0.00  0.00    +0.014 C 
ATOM     38  H   UNL     1       3.167   5.103  17.204  0.00  0.00    +0.035 HD
ATOM     39  H   UNL     1       3.623   4.141  15.813  0.00  0.00    +0.035 HD
BRANCH  37  40
ATOM     40  C   UNL     1       5.182   4.365  17.201  0.00  0.00    +0.134 A 
ATOM     41  N   UNL     1       5.706   4.653  18.376  0.00  0.00    -0.135 NA
ATOM     42  N   UNL     1       7.071   4.712  18.234  0.00  0.00    -0.138 NA
ATOM     43  C   UNL     1       7.354   4.453  16.980  0.00  0.00    +0.120 A 
ATOM     44  N   UNL     1       6.201   4.227  16.294  0.00  0.00    -0.320 N 
ATOM     45  H   UNL     1       8.341   4.419  16.544  0.00  0.00    +0.105 HD
BRANCH  44  46
ATOM     46  C   UNL     1       6.096   3.913  14.896  0.00  0.00    +0.014 C 
ATOM     47  H   UNL     1       5.879   2.847  14.792  0.00  0.00    +0.046 HD
ATOM     48  H   UNL     1       7.040   4.146  14.395  0.00  0.00    +0.046 HD
ATOM     49  H   UNL     1       5.293   4.514  14.460  0.00  0.00    +0.046 HD
ENDBRANCH  44  46
ENDBRANCH  37  40
ENDBRANCH  31  37
ENDBRANCH   1  31
TORSDOF 8
ENDMDL
MODEL 16
REMARK VINA RESULT:    -8.194      5.089      9.168
REMARK INTER + INTRA:         -11.791
REMARK INTER:                 -10.897
REMARK INTRA:                  -0.894
REMARK UNBOUND:                -0.243
REMARK  Name = 
REMARK  8 active torsions:
REMARK  status: ('A' for Active; 'I' for Inactive)
REMARK    1  A    between atoms: C_1  and  C_2
REMARK    2  A    between atoms: C_2  and  C_3
REMARK    3  A    between atoms: C_2  and  C_10
REMARK    4  A    between atoms: C_3  and  C_4
REMARK    5  A    between atoms: N_8  and  C_9
REMARK    6  A    between atoms: C_14  and  N_15
REMARK    7  A    between atoms: C_16  and  C_18
REMARK    8  A    between atoms: C_23  and  C_24
REMARK                            x       y       z     vdW  Elec       q    Type
REMARK                         _______ _______ _______ _____ _____    ______ ____
ROOT
ATOM      1  C   UNL     1       4.821   4.115  16.948  0.00  0.00    -0.042 A 
ATOM      2  C   UNL     1       4.131   2.897  16.896  0.00  0.00    -0.058 A 
ATOM      3  C   UNL     1       2.856   2.786  17.449  0.00  0.00    -0.060 A 
ATOM      4  C   UNL     1       2.253   3.885  18.065  0.00  0.00    -0.040 A 
ATOM      5  C   UNL     1       2.922   5.107  18.139  0.00  0.00    +0.034 A 
ATOM      6  C   UNL     1       4.203   5.211  17.578  0.00  0.00    -0.037 A 
ATOM      7  H   UNL     1       4.575   2.022  16.429  0.00  0.00    +0.062 HD
ATOM      8  H   UNL     1       2.323   1.840  17.401  0.00  0.00    +0.062 HD
ATOM      9  H   UNL     1       1.258   3.752  18.476  0.00  0.00    +0.064 HD
ATOM     10  H   UNL     1       4.741   6.155  17.630  0.00  0.00    +0.064 HD
ENDROOT
BRANCH   5  11
ATOM     11  N   UNL     1       2.389   6.265  18.744  0.00  0.00    -0.281 N 
ATOM     12  C   UNL     1       2.044   6.436  20.070  0.00  0.00    +0.249 C 
ATOM     13  O   UNL     1       2.182   5.622  20.975  0.00  0.00    -0.270 OA
ATOM     14  H   UNL     1       2.295   7.065  18.133  0.00  0.00    +0.155 HD
BRANCH  12  15
ATOM     15  C   UNL     1       1.480   7.777  20.369  0.00  0.00    +0.046 C 
ATOM     16  C   UNL     1       0.914   8.255  21.502  0.00  0.00    -0.030 C 
ATOM     17  C   UNL     1       0.548   9.665  21.329  0.00  0.00    +0.050 C 
ATOM     18 CL   UNL     1      -0.190  10.589  22.537  0.00  0.00    -0.083 Cl
ATOM     19  C   UNL     1       0.901  10.050  20.101  0.00  0.00    +0.013 C 
ATOM     20  C   UNL     1       0.917  11.158  19.193  0.00  0.00    +0.064 C 
ATOM     21  C   UNL     1       1.498  10.674  18.069  0.00  0.00    -0.049 C 
ATOM     22  C   UNL     1       1.859   9.263  18.238  0.00  0.00    -0.053 C 
ATOM     23  C   UNL     1       1.493   8.894  19.469  0.00  0.00    -0.004 C 
ATOM     24  H   UNL     1       0.764   7.729  22.433  0.00  0.00    +0.064 HD
ATOM     25  H   UNL     1       1.684  11.229  17.159  0.00  0.00    +0.062 HD
ATOM     26  H   UNL     1       2.339   8.648  17.492  0.00  0.00    +0.062 HD
BRANCH  20  27
ATOM     27  C   UNL     1       0.393  12.509  19.491  0.00  0.00    +0.418 C 
ATOM     28  F   UNL     1      -0.882  12.473  19.953  0.00  0.00    -0.166 F 
ATOM     29  F   UNL     1       0.398  13.312  18.397  0.00  0.00    -0.166 F 
ATOM     30  F   UNL     1       1.131  13.143  20.440  0.00  0.00    -0.166 F 
ENDBRANCH  20  27
ENDBRANCH  12  15
ENDBRANCH   5  11
BRANCH   1  31
ATOM     31  C   UNL     1       6.222   4.274  16.373  0.00  0.00    -0.012 C 
ATOM     32  H   UNL     1       6.564   3.286  16.037  0.00  0.00    +0.035 HD
BRANCH  31  33
ATOM     33  C   UNL     1       7.221   4.734  17.446  0.00  0.00    -0.058 C 
ATOM     34  H   UNL     1       7.109   4.147  18.363  0.00  0.00    +0.024 HD
ATOM     35  H   UNL     1       8.259   4.628  17.111  0.00  0.00    +0.024 HD
ATOM     36  H   UNL     1       7.058   5.786  17.707  0.00  0.00    +0.024 HD
ENDBRANCH  31  33
BRANCH  31  37
ATOM     37  C   UNL     1       6.193   5.225  15.159  0.00  0.00    +0.014 C 
ATOM     38  H   UNL     1       6.990   5.973  15.241  0.00  0.00    +0.035 HD
ATOM     39  H   UNL     1       5.250   5.787  15.154  0.00  0.00    +0.035 HD
BRANCH  37  40
ATOM     40  C   UNL     1       6.278   4.486  13.866  0.00  0.00    +0.134 A 
ATOM     41  N   UNL     1       5.449   3.546  13.456  0.00  0.00    -0.135 NA
ATOM     42  N   UNL     1       5.870   3.110  12.223  0.00  0.00    -0.138 NA
ATOM     43  C   UNL     1       6.941   3.795  11.903  0.00  0.00    +0.120 A 
ATOM     44  N   UNL     1       7.234   4.671  12.902  0.00  0.00    -0.320 N 
ATOM     45  H   UNL     1       7.513   3.694  10.993  0.00  0.00    +0.105 HD
BRANCH  44  46
ATOM     46  C   UNL     1       8.336   5.594  12.923  0.00  0.00    +0.014 C 
ATOM     47  H   UNL     1       8.167   6.355  12.158  0.00  0.00    +0.046 HD
ATOM     48  H   UNL     1       9.267   5.060  12.711  0.00  0.00    +0.046 HD
ATOM     49  H   UNL     1       8.393   6.049  13.915  0.00  0.00    +0.046 HD
ENDBRANCH  44  46
ENDBRANCH  37  40
ENDBRANCH  31  37
ENDBRANCH   1  31
TORSDOF 8
ENDMDL
MODEL 17
REMARK VINA RESULT:    -8.132      1.805      2.272
REMARK INTER + INTRA:         -11.703
REMARK INTER:                 -11.063
REMARK INTRA:                  -0.640
REMARK UNBOUND:                -0.243
REMARK  Name = 
REMARK  8 active torsions:
REMARK  status: ('A' for Active; 'I' for Inactive)
REMARK    1  A    between atoms: C_1  and  C_2
REMARK    2  A    between atoms: C_2  and  C_3
REMARK    3  A    between atoms: C_2  and  C_10
REMARK    4  A    between atoms: C_3  and  C_4
REMARK    5  A    between atoms: N_8  and  C_9
REMARK    6  A    between atoms: C_14  and  N_15
REMARK    7  A    between atoms: C_16  and  C_18
REMARK    8  A    between atoms: C_23  and  C_24
REMARK                            x       y       z     vdW  Elec       q    Type
REMARK                         _______ _______ _______ _____ _____    ______ ____
ROOT
ATOM      1  C   UNL     1       0.124  10.682  20.315  0.00  0.00    -0.042 A 
ATOM      2  C   UNL     1       0.029  10.678  21.712  0.00  0.00    -0.058 A 
ATOM      3  C   UNL     1       0.580   9.634  22.452  0.00  0.00    -0.060 A 
ATOM      4  C   UNL     1       1.229   8.576  21.811  0.00  0.00    -0.040 A 
ATOM      5  C   UNL     1       1.329   8.549  20.420  0.00  0.00    +0.034 A 
ATOM      6  C   UNL     1       0.774   9.606  19.683  0.00  0.00    -0.037 A 
ATOM      7  H   UNL     1      -0.473  11.484  22.241  0.00  0.00    +0.062 HD
ATOM      8  H   UNL     1       0.508   9.639  23.537  0.00  0.00    +0.062 HD
ATOM      9  H   UNL     1       1.646   7.788  22.430  0.00  0.00    +0.064 HD
ATOM     10  H   UNL     1       0.840   9.600  18.596  0.00  0.00    +0.064 HD
ENDROOT
BRANCH   5  11
ATOM     11  N   UNL     1       1.963   7.521  19.691  0.00  0.00    -0.281 N 
ATOM     12  C   UNL     1       2.014   6.178  20.006  0.00  0.00    +0.249 C 
ATOM     13  O   UNL     1       1.473   5.626  20.958  0.00  0.00    -0.270 OA
ATOM     14  H   UNL     1       2.389   7.810  18.821  0.00  0.00    +0.155 HD
BRANCH  12  15
ATOM     15  C   UNL     1       2.794   5.368  19.037  0.00  0.00    +0.046 C 
ATOM     16  C   UNL     1       2.845   4.027  18.857  0.00  0.00    -0.030 C 
ATOM     17  C   UNL     1       3.733   3.701  17.735  0.00  0.00    +0.050 C 
ATOM     18 CL   UNL     1       4.044   2.119  17.226  0.00  0.00    -0.083 Cl
ATOM     19  C   UNL     1       4.211   4.837  17.223  0.00  0.00    +0.013 C 
ATOM     20  C   UNL     1       5.056   5.385  16.205  0.00  0.00    +0.064 C 
ATOM     21  C   UNL     1       4.987   6.726  16.383  0.00  0.00    -0.049 C 
ATOM     22  C   UNL     1       4.104   7.054  17.508  0.00  0.00    -0.053 C 
ATOM     23  C   UNL     1       3.641   5.906  18.011  0.00  0.00    -0.004 C 
ATOM     24  H   UNL     1       2.306   3.271  19.406  0.00  0.00    +0.064 HD
ATOM     25  H   UNL     1       5.498   7.474  15.793  0.00  0.00    +0.062 HD
ATOM     26  H   UNL     1       3.877   8.052  17.853  0.00  0.00    +0.062 HD
BRANCH  20  27
ATOM     27  C   UNL     1       5.809   4.592  15.208  0.00  0.00    +0.418 C 
ATOM     28  F   UNL     1       5.004   4.097  14.234  0.00  0.00    -0.166 F 
ATOM     29  F   UNL     1       6.448   3.535  15.773  0.00  0.00    -0.166 F 
ATOM     30  F   UNL     1       6.763   5.332  14.584  0.00  0.00    -0.166 F 
ENDBRANCH  20  27
ENDBRANCH  12  15
ENDBRANCH   5  11
BRANCH   1  31
ATOM     31  C   UNL     1      -0.480  11.794  19.467  0.00  0.00    -0.012 C 
ATOM     32  H   UNL     1      -1.140  11.330  18.722  0.00  0.00    +0.035 HD
BRANCH  31  33
ATOM     33  C   UNL     1       0.600  12.547  18.676  0.00  0.00    -0.058 C 
ATOM     34  H   UNL     1       1.193  13.190  19.334  0.00  0.00    +0.024 HD
ATOM     35  H   UNL     1       1.291  11.863  18.172  0.00  0.00    +0.024 HD
ATOM     36  H   UNL     1       0.148  13.189  17.911  0.00  0.00    +0.024 HD
ENDBRANCH  31  33
BRANCH  31  37
ATOM     37  C   UNL     1      -1.319  12.739  20.351  0.00  0.00    +0.014 C 
ATOM     38  H   UNL     1      -1.037  13.782  20.170  0.00  0.00    +0.035 HD
ATOM     39  H   UNL     1      -1.099  12.545  21.410  0.00  0.00    +0.035 HD
BRANCH  37  40
ATOM     40  C   UNL     1      -2.784  12.535  20.156  0.00  0.00    +0.134 A 
ATOM     41  N   UNL     1      -3.368  12.130  19.046  0.00  0.00    -0.135 NA
ATOM     42  N   UNL     1      -4.722  12.075  19.268  0.00  0.00    -0.138 NA
ATOM     43  C   UNL     1      -4.937  12.440  20.509  0.00  0.00    +0.120 A 
ATOM     44  N   UNL     1      -3.751  12.736  21.106  0.00  0.00    -0.320 N 
ATOM     45  H   UNL     1      -5.899  12.501  20.997  0.00  0.00    +0.105 HD
BRANCH  44  46
ATOM     46  C   UNL     1      -3.573  13.175  22.463  0.00  0.00    +0.014 C 
ATOM     47  H   UNL     1      -2.550  13.539  22.580  0.00  0.00    +0.046 HD
ATOM     48  H   UNL     1      -3.746  12.338  23.146  0.00  0.00    +0.046 HD
ATOM     49  H   UNL     1      -4.293  13.972  22.671  0.00  0.00    +0.046 HD
ENDBRANCH  44  46
ENDBRANCH  37  40
ENDBRANCH  31  37
ENDBRANCH   1  31
TORSDOF 8
ENDMDL
MODEL 18
REMARK VINA RESULT:    -8.055      3.579      5.021
REMARK INTER + INTRA:         -11.594
REMARK INTER:                 -10.550
REMARK INTRA:                  -1.044
REMARK UNBOUND:                -0.243
REMARK  Name = 
REMARK  8 active torsions:
REMARK  status: ('A' for Active; 'I' for Inactive)
REMARK    1  A    between atoms: C_1  and  C_2
REMARK    2  A    between atoms: C_2  and  C_3
REMARK    3  A    between atoms: C_2  and  C_10
REMARK    4  A    between atoms: C_3  and  C_4
REMARK    5  A    between atoms: N_8  and  C_9
REMARK    6  A    between atoms: C_14  and  N_15
REMARK    7  A    between atoms: C_16  and  C_18
REMARK    8  A    between atoms: C_23  and  C_24
REMARK                            x       y       z     vdW  Elec       q    Type
REMARK                         _______ _______ _______ _____ _____    ______ ____
ROOT
ATOM      1  C   UNL     1      -1.039  12.154  20.229  0.00  0.00    -0.042 A 
ATOM      2  C   UNL     1      -2.131  12.339  19.372  0.00  0.00    -0.058 A 
ATOM      3  C   UNL     1      -2.347  11.465  18.308  0.00  0.00    -0.060 A 
ATOM      4  C   UNL     1      -1.474  10.398  18.079  0.00  0.00    -0.040 A 
ATOM      5  C   UNL     1      -0.373  10.197  18.911  0.00  0.00    +0.034 A 
ATOM      6  C   UNL     1      -0.165  11.080  19.981  0.00  0.00    -0.037 A 
ATOM      7  H   UNL     1      -2.825  13.162  19.520  0.00  0.00    +0.062 HD
ATOM      8  H   UNL     1      -3.200  11.610  17.649  0.00  0.00    +0.062 HD
ATOM      9  H   UNL     1      -1.687   9.742  17.242  0.00  0.00    +0.064 HD
ATOM     10  H   UNL     1       0.691  10.940  20.638  0.00  0.00    +0.064 HD
ENDROOT
BRANCH   5  11
ATOM     11  N   UNL     1       0.558   9.149  18.752  0.00  0.00    -0.281 N 
ATOM     12  C   UNL     1       1.825   9.228  18.210  0.00  0.00    +0.249 C 
ATOM     13  O   UNL     1       2.390  10.239  17.809  0.00  0.00    -0.270 OA
ATOM     14  H   UNL     1       0.265   8.254  19.119  0.00  0.00    +0.155 HD
BRANCH  12  15
ATOM     15  C   UNL     1       2.535   7.925  18.163  0.00  0.00    +0.046 C 
ATOM     16  C   UNL     1       3.485   7.475  17.310  0.00  0.00    -0.030 C 
ATOM     17  C   UNL     1       3.917   6.128  17.698  0.00  0.00    +0.050 C 
ATOM     18 CL   UNL     1       5.088   5.249  16.854  0.00  0.00    -0.083 Cl
ATOM     19  C   UNL     1       3.246   5.762  18.792  0.00  0.00    +0.013 C 
ATOM     20  C   UNL     1       3.072   4.710  19.748  0.00  0.00    +0.064 C 
ATOM     21  C   UNL     1       2.132   5.175  20.606  0.00  0.00    -0.049 C 
ATOM     22  C   UNL     1       1.694   6.519  20.215  0.00  0.00    -0.053 C 
ATOM     23  C   UNL     1       2.371   6.865  19.117  0.00  0.00    -0.004 C 
ATOM     24  H   UNL     1       3.918   8.003  16.474  0.00  0.00    +0.064 HD
ATOM     25  H   UNL     1       1.741   4.651  21.468  0.00  0.00    +0.062 HD
ATOM     26  H   UNL     1       0.956   7.111  20.737  0.00  0.00    +0.062 HD
BRANCH  20  27
ATOM     27  C   UNL     1       3.800   3.422  19.736  0.00  0.00    +0.418 C 
ATOM     28  F   UNL     1       3.562   2.690  20.854  0.00  0.00    -0.166 F 
ATOM     29  F   UNL     1       5.143   3.595  19.650  0.00  0.00    -0.166 F 
ATOM     30  F   UNL     1       3.441   2.644  18.681  0.00  0.00    -0.166 F 
ENDBRANCH  20  27
ENDBRANCH  12  15
ENDBRANCH   5  11
BRANCH   1  31
ATOM     31  C   UNL     1      -0.756  13.096  21.392  0.00  0.00    -0.012 C 
ATOM     32  H   UNL     1      -1.424  13.963  21.294  0.00  0.00    +0.035 HD
BRANCH  31  33
ATOM     33  C   UNL     1       0.676  13.647  21.334  0.00  0.00    -0.058 C 
ATOM     34  H   UNL     1       1.278  13.100  20.602  0.00  0.00    +0.024 HD
ATOM     35  H   UNL     1       0.698  14.706  21.054  0.00  0.00    +0.024 HD
ATOM     36  H   UNL     1       1.173  13.547  22.307  0.00  0.00    +0.024 HD
ENDBRANCH  31  33
BRANCH  31  37
ATOM     37  C   UNL     1      -1.056  12.391  22.731  0.00  0.00    +0.014 C 
ATOM     38  H   UNL     1      -0.205  12.493  23.414  0.00  0.00    +0.035 HD
ATOM     39  H   UNL     1      -1.180  11.314  22.560  0.00  0.00    +0.035 HD
BRANCH  37  40
ATOM     40  C   UNL     1      -2.314  12.891  23.357  0.00  0.00    +0.134 A 
ATOM     41  N   UNL     1      -3.500  12.322  23.272  0.00  0.00    -0.135 NA
ATOM     42  N   UNL     1      -4.397  13.088  23.976  0.00  0.00    -0.138 NA
ATOM     43  C   UNL     1      -3.740  14.104  24.483  0.00  0.00    +0.120 A 
ATOM     44  N   UNL     1      -2.430  14.022  24.122  0.00  0.00    -0.320 N 
ATOM     45  H   UNL     1      -4.157  14.891  25.093  0.00  0.00    +0.105 HD
BRANCH  44  46
ATOM     46  C   UNL     1      -1.394  14.950  24.481  0.00  0.00    +0.014 C 
ATOM     47  H   UNL     1      -0.979  15.381  23.568  0.00  0.00    +0.046 HD
ATOM     48  H   UNL     1      -0.606  14.428  25.032  0.00  0.00    +0.046 HD
ATOM     49  H   UNL     1      -1.826  15.731  25.114  0.00  0.00    +0.046 HD
ENDBRANCH  44  46
ENDBRANCH  37  40
ENDBRANCH  31  37
ENDBRANCH   1  31
TORSDOF 8
ENDMDL
MODEL 19
REMARK VINA RESULT:    -8.048      2.522      3.452
REMARK INTER + INTRA:         -11.585
REMARK INTER:                 -10.902
REMARK INTRA:                  -0.683
REMARK UNBOUND:                -0.243
REMARK  Name = 
REMARK  8 active torsions:
REMARK  status: ('A' for Active; 'I' for Inactive)
REMARK    1  A    between atoms: C_1  and  C_2
REMARK    2  A    between atoms: C_2  and  C_3
REMARK    3  A    between atoms: C_2  and  C_10
REMARK    4  A    between atoms: C_3  and  C_4
REMARK    5  A    between atoms: N_8  and  C_9
REMARK    6  A    between atoms: C_14  and  N_15
REMARK    7  A    between atoms: C_16  and  C_18
REMARK    8  A    between atoms: C_23  and  C_24
REMARK                            x       y       z     vdW  Elec       q    Type
REMARK                         _______ _______ _______ _____ _____    ______ ____
ROOT
ATOM      1  C   UNL     1      -0.593  11.040  20.835  0.00  0.00    -0.042 A 
ATOM      2  C   UNL     1      -0.945  11.013  22.190  0.00  0.00    -0.058 A 
ATOM      3  C   UNL     1      -0.443  10.018  23.028  0.00  0.00    -0.060 A 
ATOM      4  C   UNL     1       0.412   9.034  22.526  0.00  0.00    -0.040 A 
ATOM      5  C   UNL     1       0.770   9.032  21.178  0.00  0.00    +0.034 A 
ATOM      6  C   UNL     1       0.264  10.038  20.343  0.00  0.00    -0.037 A 
ATOM      7  H   UNL     1      -1.612  11.761  22.610  0.00  0.00    +0.062 HD
ATOM      8  H   UNL     1      -0.716  10.005  24.080  0.00  0.00    +0.062 HD
ATOM      9  H   UNL     1       0.781   8.284  23.217  0.00  0.00    +0.064 HD
ATOM     10  H   UNL     1       0.530  10.051  19.288  0.00  0.00    +0.064 HD
ENDROOT
BRANCH   5  11
ATOM     11  N   UNL     1       1.625   8.077  20.588  0.00  0.00    -0.281 N 
ATOM     12  C   UNL     1       1.978   7.977  19.257  0.00  0.00    +0.249 C 
ATOM     13  O   UNL     1       1.647   8.733  18.351  0.00  0.00    -0.270 OA
ATOM     14  H   UNL     1       2.052   7.425  21.232  0.00  0.00    +0.155 HD
BRANCH  12  15
ATOM     15  C   UNL     1       2.876   6.832  18.964  0.00  0.00    +0.046 C 
ATOM     16  C   UNL     1       3.029   5.651  19.609  0.00  0.00    -0.030 C 
ATOM     17  C   UNL     1       4.013   4.817  18.910  0.00  0.00    +0.050 C 
ATOM     18 CL   UNL     1       4.462   3.274  19.435  0.00  0.00    -0.083 Cl
ATOM     19  C   UNL     1       4.449   5.478  17.836  0.00  0.00    +0.013 C 
ATOM     20  C   UNL     1       5.325   5.404  16.706  0.00  0.00    +0.064 C 
ATOM     21  C   UNL     1       5.155   6.582  16.060  0.00  0.00    -0.049 C 
ATOM     22  C   UNL     1       4.176   7.420  16.760  0.00  0.00    -0.053 C 
ATOM     23  C   UNL     1       3.756   6.746  17.833  0.00  0.00    -0.004 C 
ATOM     24  H   UNL     1       2.503   5.312  20.488  0.00  0.00    +0.064 HD
ATOM     25  H   UNL     1       5.656   6.888  15.151  0.00  0.00    +0.062 HD
ATOM     26  H   UNL     1       3.860   8.405  16.447  0.00  0.00    +0.062 HD
BRANCH  20  27
ATOM     27  C   UNL     1       6.198   4.254  16.380  0.00  0.00    +0.418 C 
ATOM     28  F   UNL     1       6.861   4.430  15.209  0.00  0.00    -0.166 F 
ATOM     29  F   UNL     1       5.497   3.096  16.272  0.00  0.00    -0.166 F 
ATOM     30  F   UNL     1       7.143   4.046  17.334  0.00  0.00    -0.166 F 
ENDBRANCH  20  27
ENDBRANCH  12  15
ENDBRANCH   5  11
BRANCH   1  31
ATOM     31  C   UNL     1      -1.133  12.098  19.882  0.00  0.00    -0.012 C 
ATOM     32  H   UNL     1      -1.063  13.073  20.384  0.00  0.00    +0.035 HD
BRANCH  31  33
ATOM     33  C   UNL     1      -2.622  11.875  19.579  0.00  0.00    -0.058 C 
ATOM     34  H   UNL     1      -3.198  12.791  19.748  0.00  0.00    +0.024 HD
ATOM     35  H   UNL     1      -2.788  11.568  18.541  0.00  0.00    +0.024 HD
ATOM     36  H   UNL     1      -3.041  11.099  20.230  0.00  0.00    +0.024 HD
ENDBRANCH  31  33
BRANCH  31  37
ATOM     37  C   UNL     1      -0.278  12.143  18.599  0.00  0.00    +0.014 C 
ATOM     38  H   UNL     1      -0.922  12.182  17.713  0.00  0.00    +0.035 HD
ATOM     39  H   UNL     1       0.303  11.215  18.510  0.00  0.00    +0.035 HD
BRANCH  37  40
ATOM     40  C   UNL     1       0.692  13.276  18.611  0.00  0.00    +0.134 A 
ATOM     41  N   UNL     1       0.428  14.518  18.965  0.00  0.00    -0.135 NA
ATOM     42  N   UNL     1       1.578  15.257  18.832  0.00  0.00    -0.138 NA
ATOM     43  C   UNL     1       2.522  14.451  18.407  0.00  0.00    +0.120 A 
ATOM     44  N   UNL     1       2.014  13.198  18.255  0.00  0.00    -0.320 N 
ATOM     45  H   UNL     1       3.547  14.723  18.204  0.00  0.00    +0.105 HD
BRANCH  44  46
ATOM     46  C   UNL     1       2.737  12.041  17.805  0.00  0.00    +0.014 C 
ATOM     47  H   UNL     1       3.176  12.261  16.830  0.00  0.00    +0.046 HD
ATOM     48  H   UNL     1       2.053  11.191  17.718  0.00  0.00    +0.046 HD
ATOM     49  H   UNL     1       3.516  11.809  18.537  0.00  0.00    +0.046 HD
ENDBRANCH  44  46
ENDBRANCH  37  40
ENDBRANCH  31  37
ENDBRANCH   1  31
TORSDOF 8
ENDMDL
MODEL 20
REMARK VINA RESULT:    -8.030      2.029      3.147
REMARK INTER + INTRA:         -11.560
REMARK INTER:                 -10.594
REMARK INTRA:                  -0.966
REMARK UNBOUND:                -0.243
REMARK  Name = 
REMARK  8 active torsions:
REMARK  status: ('A' for Active; 'I' for Inactive)
REMARK    1  A    between atoms: C_1  and  C_2
REMARK    2  A    between atoms: C_2  and  C_3
REMARK    3  A    between atoms: C_2  and  C_10
REMARK    4  A    between atoms: C_3  and  C_4
REMARK    5  A    between atoms: N_8  and  C_9
REMARK    6  A    between atoms: C_14  and  N_15
REMARK    7  A    between atoms: C_16  and  C_18
REMARK    8  A    between atoms: C_23  and  C_24
REMARK                            x       y       z     vdW  Elec       q    Type
REMARK                         _______ _______ _______ _____ _____    ______ ____
ROOT
ATOM      1  C   UNL     1      -0.527  10.719  19.796  0.00  0.00    -0.042 A 
ATOM      2  C   UNL     1      -0.372  11.018  21.155  0.00  0.00    -0.058 A 
ATOM      3  C   UNL     1       0.490  10.263  21.949  0.00  0.00    -0.060 A 
ATOM      4  C   UNL     1       1.205   9.195  21.400  0.00  0.00    -0.040 A 
ATOM      5  C   UNL     1       1.062   8.870  20.052  0.00  0.00    +0.034 A 
ATOM      6  C   UNL     1       0.195   9.637  19.260  0.00  0.00    -0.037 A 
ATOM      7  H   UNL     1      -0.918  11.839  21.614  0.00  0.00    +0.062 HD
ATOM      8  H   UNL     1       0.611  10.503  23.002  0.00  0.00    +0.062 HD
ATOM      9  H   UNL     1       1.868   8.640  22.056  0.00  0.00    +0.064 HD
ATOM     10  H   UNL     1       0.068   9.395  18.206  0.00  0.00    +0.064 HD
ENDROOT
BRANCH   5  11
ATOM     11  N   UNL     1       1.743   7.809  19.417  0.00  0.00    -0.281 N 
ATOM     12  C   UNL     1       1.947   6.534  19.903  0.00  0.00    +0.249 C 
ATOM     13  O   UNL     1       1.532   6.076  20.961  0.00  0.00    -0.270 OA
ATOM     14  H   UNL     1       2.077   8.010  18.484  0.00  0.00    +0.155 HD
BRANCH  12  15
ATOM     15  C   UNL     1       2.735   5.668  18.989  0.00  0.00    +0.046 C 
ATOM     16  C   UNL     1       2.772   4.319  18.876  0.00  0.00    -0.030 C 
ATOM     17  C   UNL     1       3.675   3.927  17.788  0.00  0.00    +0.050 C 
ATOM     18 CL   UNL     1       3.974   2.318  17.363  0.00  0.00    -0.083 Cl
ATOM     19  C   UNL     1       4.176   5.031  17.230  0.00  0.00    +0.013 C 
ATOM     20  C   UNL     1       5.047   5.517  16.202  0.00  0.00    +0.064 C 
ATOM     21  C   UNL     1       4.992   6.866  16.313  0.00  0.00    -0.049 C 
ATOM     22  C   UNL     1       4.093   7.260  17.404  0.00  0.00    -0.053 C 
ATOM     23  C   UNL     1       3.607   6.144  17.954  0.00  0.00    -0.004 C 
ATOM     24  H   UNL     1       2.212   3.597  19.452  0.00  0.00    +0.064 HD
ATOM     25  H   UNL     1       5.523   7.578  15.696  0.00  0.00    +0.062 HD
ATOM     26  H   UNL     1       3.873   8.277  17.695  0.00  0.00    +0.062 HD
BRANCH  20  27
ATOM     27  C   UNL     1       5.808   4.667  15.260  0.00  0.00    +0.418 C 
ATOM     28  F   UNL     1       6.714   5.381  14.545  0.00  0.00    -0.166 F 
ATOM     29  F   UNL     1       4.998   4.044  14.366  0.00  0.00    -0.166 F 
ATOM     30  F   UNL     1       6.502   3.691  15.901  0.00  0.00    -0.166 F 
ENDBRANCH  20  27
ENDBRANCH  12  15
ENDBRANCH   5  11
BRANCH   1  31
ATOM     31  C   UNL     1      -1.472  11.507  18.899  0.00  0.00    -0.012 C 
ATOM     32  H   UNL     1      -2.099  12.140  19.542  0.00  0.00    +0.035 HD
BRANCH  31  33
ATOM     33  C   UNL     1      -2.431  10.579  18.139  0.00  0.00    -0.058 C 
ATOM     34  H   UNL     1      -3.300  11.133  17.767  0.00  0.00    +0.024 HD
ATOM     35  H   UNL     1      -1.948  10.106  17.278  0.00  0.00    +0.024 HD
ATOM     36  H   UNL     1      -2.805   9.784  18.794  0.00  0.00    +0.024 HD
ENDBRANCH  31  33
BRANCH  31  37
ATOM     37  C   UNL     1      -0.666  12.416  17.948  0.00  0.00    +0.014 C 
ATOM     38  H   UNL     1      -1.329  12.872  17.203  0.00  0.00    +0.035 HD
ATOM     39  H   UNL     1       0.054  11.811  17.382  0.00  0.00    +0.035 HD
BRANCH  37  40
ATOM     40  C   UNL     1       0.109  13.454  18.687  0.00  0.00    +0.134 A 
ATOM     41  N   UNL     1      -0.398  14.485  19.334  0.00  0.00    -0.135 NA
ATOM     42  N   UNL     1       0.639  15.207  19.873  0.00  0.00    -0.138 NA
ATOM     43  C   UNL     1       1.756  14.599  19.552  0.00  0.00    +0.120 A 
ATOM     44  N   UNL     1       1.474  13.494  18.810  0.00  0.00    -0.320 N 
ATOM     45  H   UNL     1       2.752  14.913  19.826  0.00  0.00    +0.105 HD
BRANCH  44  46
ATOM     46  C   UNL     1       2.432  12.571  18.269  0.00  0.00    +0.014 C 
ATOM     47  H   UNL     1       3.192  12.372  19.028  0.00  0.00    +0.046 HD
ATOM     48  H   UNL     1       2.903  13.006  17.383  0.00  0.00    +0.046 HD
ATOM     49  H   UNL     1       1.913  11.649  17.992  0.00  0.00    +0.046 HD
ENDBRANCH  44  46
ENDBRANCH  37  40
ENDBRANCH  31  37
ENDBRANCH   1  31
TORSDOF 8
ENDMDL
MODEL 21
REMARK VINA RESULT:    -8.024      2.508      3.789
REMARK INTER + INTRA:         -11.551
REMARK INTER:                 -10.348
REMARK INTRA:                  -1.203
REMARK UNBOUND:                -0.243
REMARK  Name = 
REMARK  8 active torsions:
REMARK  status: ('A' for Active; 'I' for Inactive)
REMARK    1  A    between atoms: C_1  and  C_2
REMARK    2  A    between atoms: C_2  and  C_3
REMARK    3  A    between atoms: C_2  and  C_10
REMARK    4  A    between atoms: C_3  and  C_4
REMARK    5  A    between atoms: N_8  and  C_9
REMARK    6  A    between atoms: C_14  and  N_15
REMARK    7  A    between atoms: C_16  and  C_18
REMARK    8  A    between atoms: C_23  and  C_24
REMARK                            x       y       z     vdW  Elec       q    Type
REMARK                         _______ _______ _______ _____ _____    ______ ____
ROOT
ATOM      1  C   UNL     1       0.424  11.965  18.967  0.00  0.00    -0.042 A 
ATOM      2  C   UNL     1      -0.874  11.914  18.444  0.00  0.00    -0.058 A 
ATOM      3  C   UNL     1      -1.361  10.733  17.885  0.00  0.00    -0.060 A 
ATOM      4  C   UNL     1      -0.560   9.590  17.834  0.00  0.00    -0.040 A 
ATOM      5  C   UNL     1       0.740   9.617  18.338  0.00  0.00    +0.034 A 
ATOM      6  C   UNL     1       1.221  10.808  18.902  0.00  0.00    -0.037 A 
ATOM      7  H   UNL     1      -1.520  12.787  18.464  0.00  0.00    +0.062 HD
ATOM      8  H   UNL     1      -2.372  10.697  17.485  0.00  0.00    +0.062 HD
ATOM      9  H   UNL     1      -0.985   8.694  17.394  0.00  0.00    +0.064 HD
ATOM     10  H   UNL     1       2.234  10.848  19.297  0.00  0.00    +0.064 HD
ENDROOT
BRANCH   5  11
ATOM     11  N   UNL     1       1.617   8.511  18.326  0.00  0.00    -0.281 N 
ATOM     12  C   UNL     1       2.034   7.760  19.406  0.00  0.00    +0.249 C 
ATOM     13  O   UNL     1       1.678   7.890  20.571  0.00  0.00    -0.270 OA
ATOM     14  H   UNL     1       1.935   8.224  17.410  0.00  0.00    +0.155 HD
BRANCH  12  15
ATOM     15  C   UNL     1       2.988   6.681  19.047  0.00  0.00    +0.046 C 
ATOM     16  C   UNL     1       3.231   5.491  19.646  0.00  0.00    -0.030 C 
ATOM     17  C   UNL     1       4.239   4.740  18.890  0.00  0.00    +0.050 C 
ATOM     18 CL   UNL     1       4.796   3.211  19.349  0.00  0.00    -0.083 Cl
ATOM     19  C   UNL     1       4.601   5.460  17.826  0.00  0.00    +0.013 C 
ATOM     20  C   UNL     1       5.442   5.475  16.668  0.00  0.00    +0.064 C 
ATOM     21  C   UNL     1       5.182   6.661  16.067  0.00  0.00    -0.049 C 
ATOM     22  C   UNL     1       4.178   7.416  16.825  0.00  0.00    -0.053 C 
ATOM     23  C   UNL     1       3.834   6.684  17.888  0.00  0.00    -0.004 C 
ATOM     24  H   UNL     1       2.755   5.093  20.530  0.00  0.00    +0.064 HD
ATOM     25  H   UNL     1       5.634   7.026  15.155  0.00  0.00    +0.062 HD
ATOM     26  H   UNL     1       3.795   8.389  16.555  0.00  0.00    +0.062 HD
BRANCH  20  27
ATOM     27  C   UNL     1       6.370   4.391  16.277  0.00  0.00    +0.418 C 
ATOM     28  F   UNL     1       7.101   4.714  15.180  0.00  0.00    -0.166 F 
ATOM     29  F   UNL     1       5.715   3.236  15.994  0.00  0.00    -0.166 F 
ATOM     30  F   UNL     1       7.259   4.101  17.264  0.00  0.00    -0.166 F 
ENDBRANCH  20  27
ENDBRANCH  12  15
ENDBRANCH   5  11
BRANCH   1  31
ATOM     31  C   UNL     1       1.002  13.239  19.570  0.00  0.00    -0.012 C 
ATOM     32  H   UNL     1       0.279  14.049  19.403  0.00  0.00    +0.035 HD
BRANCH  31  33
ATOM     33  C   UNL     1       2.295  13.662  18.858  0.00  0.00    -0.058 C 
ATOM     34  H   UNL     1       3.148  13.634  19.545  0.00  0.00    +0.024 HD
ATOM     35  H   UNL     1       2.531  13.007  18.013  0.00  0.00    +0.024 HD
ATOM     36  H   UNL     1       2.215  14.686  18.477  0.00  0.00    +0.024 HD
ENDBRANCH  31  33
BRANCH  31  37
ATOM     37  C   UNL     1       1.203  13.063  21.089  0.00  0.00    +0.014 C 
ATOM     38  H   UNL     1       1.861  13.848  21.479  0.00  0.00    +0.035 HD
ATOM     39  H   UNL     1       1.716  12.112  21.285  0.00  0.00    +0.035 HD
BRANCH  37  40
ATOM     40  C   UNL     1      -0.093  13.031  21.826  0.00  0.00    +0.134 A 
ATOM     41  N   UNL     1      -0.863  14.069  22.086  0.00  0.00    -0.135 NA
ATOM     42  N   UNL     1      -1.958  13.628  22.787  0.00  0.00    -0.138 NA
ATOM     43  C   UNL     1      -1.840  12.330  22.935  0.00  0.00    +0.120 A 
ATOM     44  N   UNL     1      -0.687  11.911  22.348  0.00  0.00    -0.320 N 
ATOM     45  H   UNL     1      -2.539  11.681  23.441  0.00  0.00    +0.105 HD
BRANCH  44  46
ATOM     46  C   UNL     1      -0.205  10.558  22.300  0.00  0.00    +0.014 C 
ATOM     47  H   UNL     1      -0.147  10.244  21.256  0.00  0.00    +0.046 HD
ATOM     48  H   UNL     1      -0.892   9.903  22.844  0.00  0.00    +0.046 HD
ATOM     49  H   UNL     1       0.783  10.520  22.769  0.00  0.00    +0.046 HD
ENDBRANCH  44  46
ENDBRANCH  37  40
ENDBRANCH  31  37
ENDBRANCH   1  31
TORSDOF 8
ENDMDL
MODEL 22
REMARK VINA RESULT:    -8.001      3.546      5.435
REMARK INTER + INTRA:         -11.518
REMARK INTER:                 -10.509
REMARK INTRA:                  -1.009
REMARK UNBOUND:                -0.243
REMARK  Name = 
REMARK  8 active torsions:
REMARK  status: ('A' for Active; 'I' for Inactive)
REMARK    1  A    between atoms: C_1  and  C_2
REMARK    2  A    between atoms: C_2  and  C_3
REMARK    3  A    between atoms: C_2  and  C_10
REMARK    4  A    between atoms: C_3  and  C_4
REMARK    5  A    between atoms: N_8  and  C_9
REMARK    6  A    between atoms: C_14  and  N_15
REMARK    7  A    between atoms: C_16  and  C_18
REMARK    8  A    between atoms: C_23  and  C_24
REMARK                            x       y       z     vdW  Elec       q    Type
REMARK                         _______ _______ _______ _____ _____    ______ ____
ROOT
ATOM      1  C   UNL     1       0.362  12.739  19.047  0.00  0.00    -0.042 A 
ATOM      2  C   UNL     1      -1.032  12.781  18.915  0.00  0.00    -0.058 A 
ATOM      3  C   UNL     1      -1.748  11.618  18.635  0.00  0.00    -0.060 A 
ATOM      4  C   UNL     1      -1.084  10.399  18.477  0.00  0.00    -0.040 A 
ATOM      5  C   UNL     1       0.304  10.331  18.593  0.00  0.00    +0.034 A 
ATOM      6  C   UNL     1       1.016  11.505  18.878  0.00  0.00    -0.037 A 
ATOM      7  H   UNL     1      -1.577  13.715  19.027  0.00  0.00    +0.062 HD
ATOM      8  H   UNL     1      -2.830  11.655  18.539  0.00  0.00    +0.062 HD
ATOM      9  H   UNL     1      -1.684   9.520  18.265  0.00  0.00    +0.064 HD
ATOM     10  H   UNL     1       2.100  11.472  18.969  0.00  0.00    +0.064 HD
ENDROOT
BRANCH   5  11
ATOM     11  N   UNL     1       1.054   9.144  18.447  0.00  0.00    -0.281 N 
ATOM     12  C   UNL     1       1.605   8.372  19.450  0.00  0.00    +0.249 C 
ATOM     13  O   UNL     1       1.502   8.555  20.658  0.00  0.00    -0.270 OA
ATOM     14  H   UNL     1       1.155   8.813  17.498  0.00  0.00    +0.155 HD
BRANCH  12  15
ATOM     15  C   UNL     1       2.364   7.199  18.949  0.00  0.00    +0.046 C 
ATOM     16  C   UNL     1       3.324   7.118  17.998  0.00  0.00    -0.030 C 
ATOM     17  C   UNL     1       3.811   5.739  17.886  0.00  0.00    +0.050 C 
ATOM     18 CL   UNL     1       5.009   5.262  16.793  0.00  0.00    -0.083 Cl
ATOM     19  C   UNL     1       3.161   4.983  18.774  0.00  0.00    +0.013 C 
ATOM     20  C   UNL     1       3.035   3.654  19.292  0.00  0.00    +0.064 C 
ATOM     21  C   UNL     1       2.083   3.748  20.252  0.00  0.00    -0.049 C 
ATOM     22  C   UNL     1       1.591   5.125  20.361  0.00  0.00    -0.053 C 
ATOM     23  C   UNL     1       2.247   5.864  19.463  0.00  0.00    -0.004 C 
ATOM     24  H   UNL     1       3.731   7.925  17.407  0.00  0.00    +0.064 HD
ATOM     25  H   UNL     1       1.719   2.937  20.869  0.00  0.00    +0.062 HD
ATOM     26  H   UNL     1       0.835   5.464  21.054  0.00  0.00    +0.062 HD
BRANCH  20  27
ATOM     27  C   UNL     1       3.811   2.483  18.829  0.00  0.00    +0.418 C 
ATOM     28  F   UNL     1       4.963   2.324  19.529  0.00  0.00    -0.166 F 
ATOM     29  F   UNL     1       4.151   2.582  17.518  0.00  0.00    -0.166 F 
ATOM     30  F   UNL     1       3.114   1.324  18.962  0.00  0.00    -0.166 F 
ENDBRANCH  20  27
ENDBRANCH  12  15
ENDBRANCH   5  11
BRANCH   1  31
ATOM     31  C   UNL     1       1.183  13.989  19.334  0.00  0.00    -0.012 C 
ATOM     32  H   UNL     1       1.326  14.057  20.421  0.00  0.00    +0.035 HD
BRANCH  31  33
ATOM     33  C   UNL     1       0.432  15.263  18.919  0.00  0.00    -0.058 C 
ATOM     34  H   UNL     1       1.035  16.156  19.115  0.00  0.00    +0.024 HD
ATOM     35  H   UNL     1       0.182  15.262  17.852  0.00  0.00    +0.024 HD
ATOM     36  H   UNL     1      -0.502  15.368  19.482  0.00  0.00    +0.024 HD
ENDBRANCH  31  33
BRANCH  31  37
ATOM     37  C   UNL     1       2.566  13.882  18.661  0.00  0.00    +0.014 C 
ATOM     38  H   UNL     1       2.557  14.388  17.688  0.00  0.00    +0.035 HD
ATOM     39  H   UNL     1       2.794  12.828  18.452  0.00  0.00    +0.035 HD
BRANCH  37  40
ATOM     40  C   UNL     1       3.656  14.409  19.532  0.00  0.00    +0.134 A 
ATOM     41  N   UNL     1       3.607  14.532  20.844  0.00  0.00    -0.135 NA
ATOM     42  N   UNL     1       4.802  15.059  21.271  0.00  0.00    -0.138 NA
ATOM     43  C   UNL     1       5.557  15.242  20.214  0.00  0.00    +0.120 A 
ATOM     44  N   UNL     1       4.881  14.847  19.101  0.00  0.00    -0.320 N 
ATOM     45  H   UNL     1       6.560  15.641  20.210  0.00  0.00    +0.105 HD
BRANCH  44  46
ATOM     46  C   UNL     1       5.373  14.893  17.752  0.00  0.00    +0.014 C 
ATOM     47  H   UNL     1       6.346  14.398  17.718  0.00  0.00    +0.046 HD
ATOM     48  H   UNL     1       5.478  15.934  17.434  0.00  0.00    +0.046 HD
ATOM     49  H   UNL     1       4.658  14.382  17.100  0.00  0.00    +0.046 HD
ENDBRANCH  44  46
ENDBRANCH  37  40
ENDBRANCH  31  37
ENDBRANCH   1  31
TORSDOF 8
ENDMDL
MODEL 23
REMARK VINA RESULT:    -7.955      2.772      4.129
REMARK INTER + INTRA:         -11.454
REMARK INTER:                 -10.760
REMARK INTRA:                  -0.694
REMARK UNBOUND:                -0.243
REMARK  Name = 
REMARK  8 active torsions:
REMARK  status: ('A' for Active; 'I' for Inactive)
REMARK    1  A    between atoms: C_1  and  C_2
REMARK    2  A    between atoms: C_2  and  C_3
REMARK    3  A    between atoms: C_2  and  C_10
REMARK    4  A    between atoms: C_3  and  C_4
REMARK    5  A    between atoms: N_8  and  C_9
REMARK    6  A    between atoms: C_14  and  N_15
REMARK    7  A    between atoms: C_16  and  C_18
REMARK    8  A    between atoms: C_23  and  C_24
REMARK                            x       y       z     vdW  Elec       q    Type
REMARK                         _______ _______ _______ _____ _____    ______ ____
ROOT
ATOM      1  C   UNL     1      -0.766  11.119  19.917  0.00  0.00    -0.042 A 
ATOM      2  C   UNL     1      -0.706  11.454  21.275  0.00  0.00    -0.058 A 
ATOM      3  C   UNL     1       0.091  10.714  22.148  0.00  0.00    -0.060 A 
ATOM      4  C   UNL     1       0.834   9.628  21.680  0.00  0.00    -0.040 A 
ATOM      5  C   UNL     1       0.785   9.267  20.334  0.00  0.00    +0.034 A 
ATOM      6  C   UNL     1      -0.017  10.018  19.462  0.00  0.00    -0.037 A 
ATOM      7  H   UNL     1      -1.277  12.290  21.671  0.00  0.00    +0.062 HD
ATOM      8  H   UNL     1       0.138  10.982  23.201  0.00  0.00    +0.062 HD
ATOM      9  H   UNL     1       1.444   9.087  22.396  0.00  0.00    +0.064 HD
ATOM     10  H   UNL     1      -0.070   9.749  18.409  0.00  0.00    +0.064 HD
ENDROOT
BRANCH   5  11
ATOM     11  N   UNL     1       1.501   8.186  19.778  0.00  0.00    -0.281 N 
ATOM     12  C   UNL     1       2.209   8.170  18.593  0.00  0.00    +0.249 C 
ATOM     13  O   UNL     1       2.383   9.113  17.829  0.00  0.00    -0.270 OA
ATOM     14  H   UNL     1       1.522   7.348  20.342  0.00  0.00    +0.155 HD
BRANCH  12  15
ATOM     15  C   UNL     1       2.822   6.854  18.284  0.00  0.00    +0.046 C 
ATOM     16  C   UNL     1       3.865   6.541  17.478  0.00  0.00    -0.030 C 
ATOM     17  C   UNL     1       4.131   5.100  17.533  0.00  0.00    +0.050 C 
ATOM     18 CL   UNL     1       5.360   4.348  16.647  0.00  0.00    -0.083 Cl
ATOM     19  C   UNL     1       3.266   4.536  18.378  0.00  0.00    +0.013 C 
ATOM     20  C   UNL     1       2.864   3.295  18.970  0.00  0.00    +0.064 C 
ATOM     21  C   UNL     1       1.832   3.620  19.784  0.00  0.00    -0.049 C 
ATOM     22  C   UNL     1       1.559   5.060  19.727  0.00  0.00    -0.053 C 
ATOM     23  C   UNL     1       2.430   5.606  18.873  0.00  0.00    -0.004 C 
ATOM     24  H   UNL     1       4.465   7.219  16.891  0.00  0.00    +0.064 HD
ATOM     25  H   UNL     1       1.269   2.935  20.404  0.00  0.00    +0.062 HD
ATOM     26  H   UNL     1       0.790   5.573  20.285  0.00  0.00    +0.062 HD
BRANCH  20  27
ATOM     27  C   UNL     1       3.491   1.983  18.701  0.00  0.00    +0.418 C 
ATOM     28  F   UNL     1       2.643   0.951  18.944  0.00  0.00    -0.166 F 
ATOM     29  F   UNL     1       4.596   1.779  19.462  0.00  0.00    -0.166 F 
ATOM     30  F   UNL     1       3.886   1.862  17.406  0.00  0.00    -0.166 F 
ENDBRANCH  20  27
ENDBRANCH  12  15
ENDBRANCH   5  11
BRANCH   1  31
ATOM     31  C   UNL     1      -1.638  11.889  18.934  0.00  0.00    -0.012 C 
ATOM     32  H   UNL     1      -2.295  12.552  19.512  0.00  0.00    +0.035 HD
BRANCH  31  33
ATOM     33  C   UNL     1      -2.562  10.948  18.146  0.00  0.00    -0.058 C 
ATOM     34  H   UNL     1      -3.396  11.500  17.699  0.00  0.00    +0.024 HD
ATOM     35  H   UNL     1      -2.032  10.438  17.334  0.00  0.00    +0.024 HD
ATOM     36  H   UNL     1      -2.991  10.181  18.801  0.00  0.00    +0.024 HD
ENDBRANCH  31  33
BRANCH  31  37
ATOM     37  C   UNL     1      -0.758  12.752  18.007  0.00  0.00    +0.014 C 
ATOM     38  H   UNL     1      -1.383  13.313  17.302  0.00  0.00    +0.035 HD
ATOM     39  H   UNL     1      -0.120  12.101  17.394  0.00  0.00    +0.035 HD
BRANCH  37  40
ATOM     40  C   UNL     1       0.140  13.662  18.774  0.00  0.00    +0.134 A 
ATOM     41  N   UNL     1      -0.242  14.677  19.523  0.00  0.00    -0.135 NA
ATOM     42  N   UNL     1       0.879  15.267  20.054  0.00  0.00    -0.138 NA
ATOM     43  C   UNL     1       1.922  14.597  19.624  0.00  0.00    +0.120 A 
ATOM     44  N   UNL     1       1.508  13.581  18.820  0.00  0.00    -0.320 N 
ATOM     45  H   UNL     1       2.954  14.806  19.862  0.00  0.00    +0.105 HD
BRANCH  44  46
ATOM     46  C   UNL     1       2.354  12.627  18.158  0.00  0.00    +0.014 C 
ATOM     47  H   UNL     1       2.050  11.622  18.458  0.00  0.00    +0.046 HD
ATOM     48  H   UNL     1       3.396  12.798  18.445  0.00  0.00    +0.046 HD
ATOM     49  H   UNL     1       2.248  12.756  17.077  0.00  0.00    +0.046 HD
ENDBRANCH  44  46
ENDBRANCH  37  40
ENDBRANCH  31  37
ENDBRANCH   1  31
TORSDOF 8
ENDMDL
MODEL 24
REMARK VINA RESULT:    -7.950      2.033      2.948
REMARK INTER + INTRA:         -11.447
REMARK INTER:                 -10.396
REMARK INTRA:                  -1.051
REMARK UNBOUND:                -0.243
REMARK  Name = 
REMARK  8 active torsions:
REMARK  status: ('A' for Active; 'I' for Inactive)
REMARK    1  A    between atoms: C_1  and  C_2
REMARK    2  A    between atoms: C_2  and  C_3
REMARK    3  A    between atoms: C_2  and  C_10
REMARK    4  A    between atoms: C_3  and  C_4
REMARK    5  A    between atoms: N_8  and  C_9
REMARK    6  A    between atoms: C_14  and  N_15
REMARK    7  A    between atoms: C_16  and  C_18
REMARK    8  A    between atoms: C_23  and  C_24
REMARK                            x       y       z     vdW  Elec       q    Type
REMARK                         _______ _______ _______ _____ _____    ______ ____
ROOT
ATOM      1  C   UNL     1       0.122  12.379  18.941  0.00  0.00    -0.042 A 
ATOM      2  C   UNL     1       1.133  13.160  18.367  0.00  0.00    -0.058 A 
ATOM      3  C   UNL     1       2.331  12.574  17.962  0.00  0.00    -0.060 A 
ATOM      4  C   UNL     1       2.541  11.203  18.129  0.00  0.00    -0.040 A 
ATOM      5  C   UNL     1       1.556  10.404  18.707  0.00  0.00    +0.034 A 
ATOM      6  C   UNL     1       0.351  11.001  19.109  0.00  0.00    -0.037 A 
ATOM      7  H   UNL     1       1.003  14.230  18.228  0.00  0.00    +0.062 HD
ATOM      8  H   UNL     1       3.111  13.184  17.512  0.00  0.00    +0.062 HD
ATOM      9  H   UNL     1       3.488  10.792  17.793  0.00  0.00    +0.064 HD
ATOM     10  H   UNL     1      -0.428  10.393  19.565  0.00  0.00    +0.064 HD
ENDROOT
BRANCH   5  11
ATOM     11  N   UNL     1       1.684   9.014  18.915  0.00  0.00    -0.281 N 
ATOM     12  C   UNL     1       1.710   8.345  20.122  0.00  0.00    +0.249 C 
ATOM     13  O   UNL     1       1.580   8.838  21.237  0.00  0.00    -0.270 OA
ATOM     14  H   UNL     1       1.718   8.454  18.073  0.00  0.00    +0.155 HD
BRANCH  12  15
ATOM     15  C   UNL     1       1.889   6.878  19.986  0.00  0.00    +0.046 C 
ATOM     16  C   UNL     1       1.350   5.860  20.698  0.00  0.00    -0.030 C 
ATOM     17  C   UNL     1       1.794   4.572  20.155  0.00  0.00    +0.050 C 
ATOM     18 CL   UNL     1       1.324   3.081  20.799  0.00  0.00    -0.083 Cl
ATOM     19  C   UNL     1       2.588   4.800  19.107  0.00  0.00    +0.013 C 
ATOM     20  C   UNL     1       3.373   4.170  18.088  0.00  0.00    +0.064 C 
ATOM     21  C   UNL     1       3.895   5.195  17.372  0.00  0.00    -0.049 C 
ATOM     22  C   UNL     1       3.458   6.484  17.918  0.00  0.00    -0.053 C 
ATOM     23  C   UNL     1       2.670   6.236  18.967  0.00  0.00    -0.004 C 
ATOM     24  H   UNL     1       0.663   5.932  21.528  0.00  0.00    +0.064 HD
ATOM     25  H   UNL     1       4.546   5.105  16.513  0.00  0.00    +0.062 HD
ATOM     26  H   UNL     1       3.731   7.453  17.525  0.00  0.00    +0.062 HD
BRANCH  20  27
ATOM     27  C   UNL     1       3.529   2.709  17.917  0.00  0.00    +0.418 C 
ATOM     28  F   UNL     1       4.454   2.401  16.972  0.00  0.00    -0.166 F 
ATOM     29  F   UNL     1       2.368   2.111  17.548  0.00  0.00    -0.166 F 
ATOM     30  F   UNL     1       3.930   2.102  19.064  0.00  0.00    -0.166 F 
ENDBRANCH  20  27
ENDBRANCH  12  15
ENDBRANCH   5  11
BRANCH   1  31
ATOM     31  C   UNL     1      -1.194  12.982  19.414  0.00  0.00    -0.012 C 
ATOM     32  H   UNL     1      -1.591  13.604  18.600  0.00  0.00    +0.035 HD
BRANCH  31  33
ATOM     33  C   UNL     1      -0.985  13.920  20.611  0.00  0.00    -0.058 C 
ATOM     34  H   UNL     1      -0.466  14.836  20.307  0.00  0.00    +0.024 HD
ATOM     35  H   UNL     1      -1.934  14.216  21.071  0.00  0.00    +0.024 HD
ATOM     36  H   UNL     1      -0.374  13.439  21.383  0.00  0.00    +0.024 HD
ENDBRANCH  31  33
BRANCH  31  37
ATOM     37  C   UNL     1      -2.211  11.864  19.720  0.00  0.00    +0.014 C 
ATOM     38  H   UNL     1      -2.659  12.017  20.708  0.00  0.00    +0.035 HD
ATOM     39  H   UNL     1      -1.691  10.897  19.771  0.00  0.00    +0.035 HD
BRANCH  37  40
ATOM     40  C   UNL     1      -3.257  11.752  18.664  0.00  0.00    +0.134 A 
ATOM     41  N   UNL     1      -3.108  11.187  17.482  0.00  0.00    -0.135 NA
ATOM     42  N   UNL     1      -4.295  11.295  16.801  0.00  0.00    -0.138 NA
ATOM     43  C   UNL     1      -5.147  11.917  17.580  0.00  0.00    +0.120 A 
ATOM     44  N   UNL     1      -4.541  12.222  18.760  0.00  0.00    -0.320 N 
ATOM     45  H   UNL     1      -6.172  12.156  17.340  0.00  0.00    +0.105 HD
BRANCH  44  46
ATOM     46  C   UNL     1      -5.147  12.905  19.870  0.00  0.00    +0.014 C 
ATOM     47  H   UNL     1      -5.872  12.237  20.338  0.00  0.00    +0.046 HD
ATOM     48  H   UNL     1      -5.654  13.807  19.514  0.00  0.00    +0.046 HD
ATOM     49  H   UNL     1      -4.363  13.183  20.580  0.00  0.00    +0.046 HD
ENDBRANCH  44  46
ENDBRANCH  37  40
ENDBRANCH  31  37
ENDBRANCH   1  31
TORSDOF 8
ENDMDL
MODEL 25
REMARK VINA RESULT:    -7.880      3.342      5.092
REMARK INTER + INTRA:         -11.348
REMARK INTER:                 -10.131
REMARK INTRA:                  -1.218
REMARK UNBOUND:                -0.243
REMARK  Name = 
REMARK  8 active torsions:
REMARK  status: ('A' for Active; 'I' for Inactive)
REMARK    1  A    between atoms: C_1  and  C_2
REMARK    2  A    between atoms: C_2  and  C_3
REMARK    3  A    between atoms: C_2  and  C_10
REMARK    4  A    between atoms: C_3  and  C_4
REMARK    5  A    between atoms: N_8  and  C_9
REMARK    6  A    between atoms: C_14  and  N_15
REMARK    7  A    between atoms: C_16  and  C_18
REMARK    8  A    between atoms: C_23  and  C_24
REMARK                            x       y       z     vdW  Elec       q    Type
REMARK                         _______ _______ _______ _____ _____    ______ ____
ROOT
ATOM      1  C   UNL     1      -0.640  12.117  20.816  0.00  0.00    -0.042 A 
ATOM      2  C   UNL     1      -1.774  12.376  20.037  0.00  0.00    -0.058 A 
ATOM      3  C   UNL     1      -2.094  11.548  18.962  0.00  0.00    -0.060 A 
ATOM      4  C   UNL     1      -1.285  10.453  18.646  0.00  0.00    -0.040 A 
ATOM      5  C   UNL     1      -0.145  10.178  19.400  0.00  0.00    +0.034 A 
ATOM      6  C   UNL     1       0.168  11.015  20.481  0.00  0.00    -0.037 A 
ATOM      7  H   UNL     1      -2.420  13.223  20.253  0.00  0.00    +0.062 HD
ATOM      8  H   UNL     1      -2.979  11.751  18.363  0.00  0.00    +0.062 HD
ATOM      9  H   UNL     1      -1.578   9.835  17.804  0.00  0.00    +0.064 HD
ATOM     10  H   UNL     1       1.056  10.818  21.079  0.00  0.00    +0.064 HD
ENDROOT
BRANCH   5  11
ATOM     11  N   UNL     1       0.727   9.097  19.151  0.00  0.00    -0.281 N 
ATOM     12  C   UNL     1       1.876   9.106  18.386  0.00  0.00    +0.249 C 
ATOM     13  O   UNL     1       2.374  10.073  17.820  0.00  0.00    -0.270 OA
ATOM     14  H   UNL     1       0.493   8.237  19.627  0.00  0.00    +0.155 HD
BRANCH  12  15
ATOM     15  C   UNL     1       2.547   7.784  18.305  0.00  0.00    +0.046 C 
ATOM     16  C   UNL     1       3.442   7.310  17.406  0.00  0.00    -0.030 C 
ATOM     17  C   UNL     1       3.856   5.951  17.773  0.00  0.00    +0.050 C 
ATOM     18 CL   UNL     1       4.960   5.042  16.872  0.00  0.00    -0.083 Cl
ATOM     19  C   UNL     1       3.229   5.602  18.898  0.00  0.00    +0.013 C 
ATOM     20  C   UNL     1       3.073   4.554  19.861  0.00  0.00    +0.064 C 
ATOM     21  C   UNL     1       2.189   5.043  20.763  0.00  0.00    -0.049 C 
ATOM     22  C   UNL     1       1.769   6.399  20.395  0.00  0.00    -0.053 C 
ATOM     23  C   UNL     1       2.401   6.728  19.265  0.00  0.00    -0.004 C 
ATOM     24  H   UNL     1       3.848   7.827  16.550  0.00  0.00    +0.064 HD
ATOM     25  H   UNL     1       1.827   4.528  21.643  0.00  0.00    +0.062 HD
ATOM     26  H   UNL     1       1.074   7.010  20.952  0.00  0.00    +0.062 HD
BRANCH  20  27
ATOM     27  C   UNL     1       3.764   3.246  19.813  0.00  0.00    +0.418 C 
ATOM     28  F   UNL     1       3.326   2.473  18.788  0.00  0.00    -0.166 F 
ATOM     29  F   UNL     1       3.587   2.533  20.955  0.00  0.00    -0.166 F 
ATOM     30  F   UNL     1       5.106   3.385  19.648  0.00  0.00    -0.166 F 
ENDBRANCH  20  27
ENDBRANCH  12  15
ENDBRANCH   5  11
BRANCH   1  31
ATOM     31  C   UNL     1      -0.245  13.007  21.987  0.00  0.00    -0.012 C 
ATOM     32  H   UNL     1       0.628  12.554  22.476  0.00  0.00    +0.035 HD
BRANCH  31  33
ATOM     33  C   UNL     1      -1.352  13.063  23.050  0.00  0.00    -0.058 C 
ATOM     34  H   UNL     1      -2.269  12.587  22.687  0.00  0.00    +0.024 HD
ATOM     35  H   UNL     1      -1.059  12.555  23.975  0.00  0.00    +0.024 HD
ATOM     36  H   UNL     1      -1.600  14.101  23.302  0.00  0.00    +0.024 HD
ENDBRANCH  31  33
BRANCH  31  37
ATOM     37  C   UNL     1       0.147  14.410  21.479  0.00  0.00    +0.014 C 
ATOM     38  H   UNL     1      -0.132  15.173  22.214  0.00  0.00    +0.035 HD
ATOM     39  H   UNL     1      -0.421  14.644  20.569  0.00  0.00    +0.035 HD
BRANCH  37  40
ATOM     40  C   UNL     1       1.596  14.497  21.135  0.00  0.00    +0.134 A 
ATOM     41  N   UNL     1       2.578  14.749  21.977  0.00  0.00    -0.135 NA
ATOM     42  N   UNL     1       3.758  14.752  21.274  0.00  0.00    -0.138 NA
ATOM     43  C   UNL     1       3.474  14.495  20.019  0.00  0.00    +0.120 A 
ATOM     44  N   UNL     1       2.130  14.326  19.885  0.00  0.00    -0.320 N 
ATOM     45  H   UNL     1       4.183  14.424  19.208  0.00  0.00    +0.105 HD
BRANCH  44  46
ATOM     46  C   UNL     1       1.433  14.032  18.663  0.00  0.00    +0.014 C 
ATOM     47  H   UNL     1       2.158  13.992  17.848  0.00  0.00    +0.046 HD
ATOM     48  H   UNL     1       0.697  14.816  18.462  0.00  0.00    +0.046 HD
ATOM     49  H   UNL     1       0.923  13.071  18.773  0.00  0.00    +0.046 HD
ENDBRANCH  44  46
ENDBRANCH  37  40
ENDBRANCH  31  37
ENDBRANCH   1  31
TORSDOF 8
ENDMDL
MODEL 26
REMARK VINA RESULT:    -7.834      5.713      9.298
REMARK INTER + INTRA:         -11.284
REMARK INTER:                 -10.603
REMARK INTRA:                  -0.680
REMARK UNBOUND:                -0.243
REMARK  Name = 
REMARK  8 active torsions:
REMARK  status: ('A' for Active; 'I' for Inactive)
REMARK    1  A    between atoms: C_1  and  C_2
REMARK    2  A    between atoms: C_2  and  C_3
REMARK    3  A    between atoms: C_2  and  C_10
REMARK    4  A    between atoms: C_3  and  C_4
REMARK    5  A    between atoms: N_8  and  C_9
REMARK    6  A    between atoms: C_14  and  N_15
REMARK    7  A    between atoms: C_16  and  C_18
REMARK    8  A    between atoms: C_23  and  C_24
REMARK                            x       y       z     vdW  Elec       q    Type
REMARK                         _______ _______ _______ _____ _____    ______ ____
ROOT
ATOM      1  C   UNL     1       2.854   3.683  19.035  0.00  0.00    -0.042 A 
ATOM      2  C   UNL     1       2.920   2.858  20.165  0.00  0.00    -0.058 A 
ATOM      3  C   UNL     1       2.498   3.330  21.406  0.00  0.00    -0.060 A 
ATOM      4  C   UNL     1       2.008   4.632  21.540  0.00  0.00    -0.040 A 
ATOM      5  C   UNL     1       1.941   5.477  20.434  0.00  0.00    +0.034 A 
ATOM      6  C   UNL     1       2.365   4.993  19.187  0.00  0.00    -0.037 A 
ATOM      7  H   UNL     1       3.301   1.842  20.095  0.00  0.00    +0.062 HD
ATOM      8  H   UNL     1       2.546   2.684  22.280  0.00  0.00    +0.062 HD
ATOM      9  H   UNL     1       1.686   4.952  22.526  0.00  0.00    +0.064 HD
ATOM     10  H   UNL     1       2.323   5.640  18.313  0.00  0.00    +0.064 HD
ENDROOT
BRANCH   5  11
ATOM     11  N   UNL     1       1.463   6.804  20.478  0.00  0.00    -0.281 N 
ATOM     12  C   UNL     1       1.849   7.862  19.679  0.00  0.00    +0.249 C 
ATOM     13  O   UNL     1       2.647   7.826  18.750  0.00  0.00    -0.270 OA
ATOM     14  H   UNL     1       0.726   6.973  21.149  0.00  0.00    +0.155 HD
BRANCH  12  15
ATOM     15  C   UNL     1       1.168   9.138  20.012  0.00  0.00    +0.046 C 
ATOM     16  C   UNL     1       1.007  10.263  19.276  0.00  0.00    -0.030 C 
ATOM     17  C   UNL     1       0.217  11.248  20.022  0.00  0.00    +0.050 C 
ATOM     18 CL   UNL     1      -0.177  12.776  19.415  0.00  0.00    -0.083 Cl
ATOM     19  C   UNL     1      -0.116  10.723  21.203  0.00  0.00    +0.013 C 
ATOM     20  C   UNL     1      -0.818  10.972  22.427  0.00  0.00    +0.064 C 
ATOM     21  C   UNL     1      -0.664   9.837  23.150  0.00  0.00    -0.049 C 
ATOM     22  C   UNL     1       0.131   8.853  22.407  0.00  0.00    -0.053 C 
ATOM     23  C   UNL     1       0.459   9.398  21.233  0.00  0.00    -0.004 C 
ATOM     24  H   UNL     1       1.358  10.444  18.271  0.00  0.00    +0.064 HD
ATOM     25  H   UNL     1      -1.063   9.653  24.139  0.00  0.00    +0.062 HD
ATOM     26  H   UNL     1       0.391   7.866  22.761  0.00  0.00    +0.062 HD
BRANCH  20  27
ATOM     27  C   UNL     1      -1.533  12.224  22.756  0.00  0.00    +0.418 C 
ATOM     28  F   UNL     1      -2.328  12.087  23.848  0.00  0.00    -0.166 F 
ATOM     29  F   UNL     1      -2.325  12.644  21.736  0.00  0.00    -0.166 F 
ATOM     30  F   UNL     1      -0.677  13.244  23.026  0.00  0.00    -0.166 F 
ENDBRANCH  20  27
ENDBRANCH  12  15
ENDBRANCH   5  11
BRANCH   1  31
ATOM     31  C   UNL     1       3.322   3.212  17.664  0.00  0.00    -0.012 C 
ATOM     32  H   UNL     1       2.809   3.819  16.906  0.00  0.00    +0.035 HD
BRANCH  31  33
ATOM     33  C   UNL     1       2.914   1.756  17.399  0.00  0.00    -0.058 C 
ATOM     34  H   UNL     1       3.304   1.091  18.177  0.00  0.00    +0.024 HD
ATOM     35  H   UNL     1       1.826   1.633  17.376  0.00  0.00    +0.024 HD
ATOM     36  H   UNL     1       3.312   1.406  16.439  0.00  0.00    +0.024 HD
ENDBRANCH  31  33
BRANCH  31  37
ATOM     37  C   UNL     1       4.843   3.427  17.520  0.00  0.00    +0.014 C 
ATOM     38  H   UNL     1       5.260   2.722  16.791  0.00  0.00    +0.035 HD
ATOM     39  H   UNL     1       5.338   3.203  18.474  0.00  0.00    +0.035 HD
BRANCH  37  40
ATOM     40  C   UNL     1       5.179   4.835  17.163  0.00  0.00    +0.134 A 
ATOM     41  N   UNL     1       4.862   5.446  16.039  0.00  0.00    -0.135 NA
ATOM     42  N   UNL     1       5.356   6.726  16.090  0.00  0.00    -0.138 NA
ATOM     43  C   UNL     1       5.959   6.874  17.246  0.00  0.00    +0.120 A 
ATOM     44  N   UNL     1       5.872   5.715  17.953  0.00  0.00    -0.320 N 
ATOM     45  H   UNL     1       6.451   7.769  17.598  0.00  0.00    +0.105 HD
BRANCH  44  46
ATOM     46  C   UNL     1       6.412   5.481  19.265  0.00  0.00    +0.014 C 
ATOM     47  H   UNL     1       6.789   6.427  19.660  0.00  0.00    +0.046 HD
ATOM     48  H   UNL     1       7.228   4.756  19.203  0.00  0.00    +0.046 HD
ATOM     49  H   UNL     1       5.618   5.085  19.905  0.00  0.00    +0.046 HD
ENDBRANCH  44  46
ENDBRANCH  37  40
ENDBRANCH  31  37
ENDBRANCH   1  31
TORSDOF 8
ENDMDL
MODEL 27
REMARK VINA RESULT:    -7.827      5.650      9.495
REMARK INTER + INTRA:         -11.273
REMARK INTER:                 -10.866
REMARK INTRA:                  -0.407
REMARK UNBOUND:                -0.243
REMARK  Name = 
REMARK  8 active torsions:
REMARK  status: ('A' for Active; 'I' for Inactive)
REMARK    1  A    between atoms: C_1  and  C_2
REMARK    2  A    between atoms: C_2  and  C_3
REMARK    3  A    between atoms: C_2  and  C_10
REMARK    4  A    between atoms: C_3  and  C_4
REMARK    5  A    between atoms: N_8  and  C_9
REMARK    6  A    between atoms: C_14  and  N_15
REMARK    7  A    between atoms: C_16  and  C_18
REMARK    8  A    between atoms: C_23  and  C_24
REMARK                            x       y       z     vdW  Elec       q    Type
REMARK                         _______ _______ _______ _____ _____    ______ ____
ROOT
ATOM      1  C   UNL     1       3.124   4.672  17.443  0.00  0.00    -0.042 A 
ATOM      2  C   UNL     1       4.482   4.795  17.122  0.00  0.00    -0.058 A 
ATOM      3  C   UNL     1       5.147   6.003  17.325  0.00  0.00    -0.060 A 
ATOM      4  C   UNL     1       4.467   7.107  17.845  0.00  0.00    -0.040 A 
ATOM      5  C   UNL     1       3.112   7.015  18.164  0.00  0.00    +0.034 A 
ATOM      6  C   UNL     1       2.452   5.795  17.960  0.00  0.00    -0.037 A 
ATOM      7  H   UNL     1       5.038   3.957  16.711  0.00  0.00    +0.062 HD
ATOM      8  H   UNL     1       6.202   6.092  17.079  0.00  0.00    +0.062 HD
ATOM      9  H   UNL     1       5.028   8.025  17.990  0.00  0.00    +0.064 HD
ATOM     10  H   UNL     1       1.394   5.705  18.199  0.00  0.00    +0.064 HD
ENDROOT
BRANCH   5  11
ATOM     11  N   UNL     1       2.349   8.078  18.691  0.00  0.00    -0.281 N 
ATOM     12  C   UNL     1       1.683   8.114  19.900  0.00  0.00    +0.249 C 
ATOM     13  O   UNL     1       1.674   7.240  20.759  0.00  0.00    -0.270 OA
ATOM     14  H   UNL     1       2.331   8.917  18.126  0.00  0.00    +0.155 HD
BRANCH  12  15
ATOM     15  C   UNL     1       0.945   9.380  20.136  0.00  0.00    +0.046 C 
ATOM     16  C   UNL     1       0.723  10.431  19.312  0.00  0.00    -0.030 C 
ATOM     17  C   UNL     1      -0.106  11.436  19.986  0.00  0.00    +0.050 C 
ATOM     18 CL   UNL     1      -0.578  12.889  19.261  0.00  0.00    -0.083 Cl
ATOM     19  C   UNL     1      -0.400  10.996  21.211  0.00  0.00    +0.013 C 
ATOM     20  C   UNL     1      -1.100  11.313  22.420  0.00  0.00    +0.064 C 
ATOM     21  C   UNL     1      -0.885  10.251  23.232  0.00  0.00    -0.049 C 
ATOM     22  C   UNL     1      -0.052   9.247  22.561  0.00  0.00    -0.053 C 
ATOM     23  C   UNL     1       0.238   9.707  21.341  0.00  0.00    -0.004 C 
ATOM     24  H   UNL     1       1.054  10.545  18.290  0.00  0.00    +0.064 HD
ATOM     25  H   UNL     1      -1.264  10.131  24.238  0.00  0.00    +0.062 HD
ATOM     26  H   UNL     1       0.260   8.306  22.992  0.00  0.00    +0.062 HD
BRANCH  20  27
ATOM     27  C   UNL     1      -1.871  12.554  22.655  0.00  0.00    +0.418 C 
ATOM     28  F   UNL     1      -1.069  13.646  22.742  0.00  0.00    -0.166 F 
ATOM     29  F   UNL     1      -2.593  12.497  23.803  0.00  0.00    -0.166 F 
ATOM     30  F   UNL     1      -2.756  12.802  21.654  0.00  0.00    -0.166 F 
ENDBRANCH  20  27
ENDBRANCH  12  15
ENDBRANCH   5  11
BRANCH   1  31
ATOM     31  C   UNL     1       2.356   3.376  17.220  0.00  0.00    -0.012 C 
ATOM     32  H   UNL     1       2.503   3.072  16.175  0.00  0.00    +0.035 HD
BRANCH  31  33
ATOM     33  C   UNL     1       0.845   3.580  17.401  0.00  0.00    -0.058 C 
ATOM     34  H   UNL     1       0.370   2.671  17.785  0.00  0.00    +0.024 HD
ATOM     35  H   UNL     1       0.622   4.391  18.103  0.00  0.00    +0.024 HD
ATOM     36  H   UNL     1       0.366   3.822  16.446  0.00  0.00    +0.024 HD
ENDBRANCH  31  33
BRANCH  31  37
ATOM     37  C   UNL     1       2.909   2.267  18.138  0.00  0.00    +0.014 C 
ATOM     38  H   UNL     1       3.999   2.202  18.044  0.00  0.00    +0.035 HD
ATOM     39  H   UNL     1       2.519   1.292  17.814  0.00  0.00    +0.035 HD
BRANCH  37  40
ATOM     40  C   UNL     1       2.500   2.460  19.559  0.00  0.00    +0.134 A 
ATOM     41  N   UNL     1       1.277   2.702  19.987  0.00  0.00    -0.135 NA
ATOM     42  N   UNL     1       1.316   2.823  21.355  0.00  0.00    -0.138 NA
ATOM     43  C   UNL     1       2.559   2.646  21.735  0.00  0.00    +0.120 A 
ATOM     44  N   UNL     1       3.338   2.414  20.643  0.00  0.00    -0.320 N 
ATOM     45  H   UNL     1       2.924   2.676  22.750  0.00  0.00    +0.105 HD
BRANCH  44  46
ATOM     46  C   UNL     1       4.755   2.175  20.650  0.00  0.00    +0.014 C 
ATOM     47  H   UNL     1       4.938   1.174  21.046  0.00  0.00    +0.046 HD
ATOM     48  H   UNL     1       5.249   2.917  21.283  0.00  0.00    +0.046 HD
ATOM     49  H   UNL     1       5.129   2.260  19.626  0.00  0.00    +0.046 HD
ENDBRANCH  44  46
ENDBRANCH  37  40
ENDBRANCH  31  37
ENDBRANCH   1  31
TORSDOF 8
ENDMDL
MODEL 28
REMARK VINA RESULT:    -7.785      5.370      9.075
REMARK INTER + INTRA:         -11.214
REMARK INTER:                 -10.334
REMARK INTRA:                  -0.880
REMARK UNBOUND:                -0.243
REMARK  Name = 
REMARK  8 active torsions:
REMARK  status: ('A' for Active; 'I' for Inactive)
REMARK    1  A    between atoms: C_1  and  C_2
REMARK    2  A    between atoms: C_2  and  C_3
REMARK    3  A    between atoms: C_2  and  C_10
REMARK    4  A    between atoms: C_3  and  C_4
REMARK    5  A    between atoms: N_8  and  C_9
REMARK    6  A    between atoms: C_14  and  N_15
REMARK    7  A    between atoms: C_16  and  C_18
REMARK    8  A    between atoms: C_23  and  C_24
REMARK                            x       y       z     vdW  Elec       q    Type
REMARK                         _______ _______ _______ _____ _____    ______ ____
ROOT
ATOM      1  C   UNL     1       2.634   4.918  18.668  0.00  0.00    -0.042 A 
ATOM      2  C   UNL     1       2.327   4.013  19.691  0.00  0.00    -0.058 A 
ATOM      3  C   UNL     1       1.780   4.465  20.891  0.00  0.00    -0.060 A 
ATOM      4  C   UNL     1       1.536   5.826  21.089  0.00  0.00    -0.040 A 
ATOM      5  C   UNL     1       1.842   6.750  20.091  0.00  0.00    +0.034 A 
ATOM      6  C   UNL     1       2.389   6.286  18.886  0.00  0.00    -0.037 A 
ATOM      7  H   UNL     1       2.510   2.948  19.570  0.00  0.00    +0.062 HD
ATOM      8  H   UNL     1       1.539   3.757  21.680  0.00  0.00    +0.062 HD
ATOM      9  H   UNL     1       1.104   6.130  22.038  0.00  0.00    +0.064 HD
ATOM     10  H   UNL     1       2.637   6.994  18.096  0.00  0.00    +0.064 HD
ENDROOT
BRANCH   5  11
ATOM     11  N   UNL     1       1.630   8.141  20.207  0.00  0.00    -0.281 N 
ATOM     12  C   UNL     1       0.543   8.780  20.769  0.00  0.00    +0.249 C 
ATOM     13  O   UNL     1      -0.419   8.250  21.313  0.00  0.00    -0.270 OA
ATOM     14  H   UNL     1       2.389   8.720  19.874  0.00  0.00    +0.155 HD
BRANCH  12  15
ATOM     15  C   UNL     1       0.623  10.261  20.701  0.00  0.00    +0.046 C 
ATOM     16  C   UNL     1       0.224  11.201  21.589  0.00  0.00    -0.030 C 
ATOM     17  C   UNL     1       0.559  12.540  21.093  0.00  0.00    +0.050 C 
ATOM     18 CL   UNL     1       0.202  13.960  21.939  0.00  0.00    -0.083 Cl
ATOM     19  C   UNL     1       1.171  12.419  19.913  0.00  0.00    +0.013 C 
ATOM     20  C   UNL     1       1.781  13.149  18.843  0.00  0.00    +0.064 C 
ATOM     21  C   UNL     1       2.190  12.200  17.967  0.00  0.00    -0.049 C 
ATOM     22  C   UNL     1       1.851  10.861  18.459  0.00  0.00    -0.053 C 
ATOM     23  C   UNL     1       1.234  11.003  19.635  0.00  0.00    -0.004 C 
ATOM     24  H   UNL     1      -0.242  11.040  22.549  0.00  0.00    +0.064 HD
ATOM     25  H   UNL     1       2.699  12.377  17.029  0.00  0.00    +0.062 HD
ATOM     26  H   UNL     1       2.072   9.934  17.949  0.00  0.00    +0.062 HD
BRANCH  20  27
ATOM     27  C   UNL     1       1.902  14.623  18.780  0.00  0.00    +0.418 C 
ATOM     28  F   UNL     1       2.481  15.137  19.894  0.00  0.00    -0.166 F 
ATOM     29  F   UNL     1       0.695  15.228  18.642  0.00  0.00    -0.166 F 
ATOM     30  F   UNL     1       2.660  15.027  17.727  0.00  0.00    -0.166 F 
ENDBRANCH  20  27
ENDBRANCH  12  15
ENDBRANCH   5  11
BRANCH   1  31
ATOM     31  C   UNL     1       3.249   4.468  17.349  0.00  0.00    -0.012 C 
ATOM     32  H   UNL     1       2.445   4.409  16.604  0.00  0.00    +0.035 HD
BRANCH  31  33
ATOM     33  C   UNL     1       3.840   3.055  17.458  0.00  0.00    -0.058 C 
ATOM     34  H   UNL     1       4.670   3.030  18.173  0.00  0.00    +0.024 HD
ATOM     35  H   UNL     1       3.096   2.324  17.791  0.00  0.00    +0.024 HD
ATOM     36  H   UNL     1       4.231   2.719  16.491  0.00  0.00    +0.024 HD
ENDBRANCH  31  33
BRANCH  31  37
ATOM     37  C   UNL     1       4.291   5.500  16.870  0.00  0.00    +0.014 C 
ATOM     38  H   UNL     1       3.951   6.517  17.095  0.00  0.00    +0.035 HD
ATOM     39  H   UNL     1       4.386   5.447  15.777  0.00  0.00    +0.035 HD
BRANCH  37  40
ATOM     40  C   UNL     1       5.642   5.242  17.447  0.00  0.00    +0.134 A 
ATOM     41  N   UNL     1       6.015   5.491  18.687  0.00  0.00    -0.135 NA
ATOM     42  N   UNL     1       7.331   5.122  18.823  0.00  0.00    -0.138 NA
ATOM     43  C   UNL     1       7.733   4.649  17.667  0.00  0.00    +0.120 A 
ATOM     44  N   UNL     1       6.708   4.703  16.774  0.00  0.00    -0.320 N 
ATOM     45  H   UNL     1       8.719   4.272  17.442  0.00  0.00    +0.105 HD
BRANCH  44  46
ATOM     46  C   UNL     1       6.757   4.279  15.402  0.00  0.00    +0.014 C 
ATOM     47  H   UNL     1       7.547   4.834  14.893  0.00  0.00    +0.046 HD
ATOM     48  H   UNL     1       5.796   4.480  14.920  0.00  0.00    +0.046 HD
ATOM     49  H   UNL     1       6.962   3.204  15.375  0.00  0.00    +0.046 HD
ENDBRANCH  44  46
ENDBRANCH  37  40
ENDBRANCH  31  37
ENDBRANCH   1  31
TORSDOF 8
ENDMDL
MODEL 29
REMARK VINA RESULT:    -7.750      2.892      3.759
REMARK INTER + INTRA:         -11.165
REMARK INTER:                 -10.922
REMARK INTRA:                  -0.243
REMARK UNBOUND:                -0.243
REMARK  Name = 
REMARK  8 active torsions:
REMARK  status: ('A' for Active; 'I' for Inactive)
REMARK    1  A    between atoms: C_1  and  C_2
REMARK    2  A    between atoms: C_2  and  C_3
REMARK    3  A    between atoms: C_2  and  C_10
REMARK    4  A    between atoms: C_3  and  C_4
REMARK    5  A    between atoms: N_8  and  C_9
REMARK    6  A    between atoms: C_14  and  N_15
REMARK    7  A    between atoms: C_16  and  C_18
REMARK    8  A    between atoms: C_23  and  C_24
REMARK                            x       y       z     vdW  Elec       q    Type
REMARK                         _______ _______ _______ _____ _____    ______ ____
ROOT
ATOM      1  C   UNL     1      -0.311  11.442  21.358  0.00  0.00    -0.042 A 
ATOM      2  C   UNL     1      -0.799  11.211  22.650  0.00  0.00    -0.058 A 
ATOM      3  C   UNL     1      -0.559   9.995  23.286  0.00  0.00    -0.060 A 
ATOM      4  C   UNL     1       0.166   8.989  22.642  0.00  0.00    -0.040 A 
ATOM      5  C   UNL     1       0.656   9.189  21.352  0.00  0.00    +0.034 A 
ATOM      6  C   UNL     1       0.412  10.418  20.720  0.00  0.00    -0.037 A 
ATOM      7  H   UNL     1      -1.372  11.971  23.176  0.00  0.00    +0.062 HD
ATOM      8  H   UNL     1      -0.937   9.822  24.292  0.00  0.00    +0.062 HD
ATOM      9  H   UNL     1       0.332   8.062  23.180  0.00  0.00    +0.064 HD
ATOM     10  H   UNL     1       0.784  10.590  19.712  0.00  0.00    +0.064 HD
ENDROOT
BRANCH   5  11
ATOM     11  N   UNL     1       1.396   8.230  20.628  0.00  0.00    -0.281 N 
ATOM     12  C   UNL     1       1.755   8.279  19.296  0.00  0.00    +0.249 C 
ATOM     13  O   UNL     1       1.535   9.193  18.510  0.00  0.00    -0.270 OA
ATOM     14  H   UNL     1       1.727   7.444  21.170  0.00  0.00    +0.155 HD
BRANCH  12  15
ATOM     15  C   UNL     1       2.509   7.085  18.839  0.00  0.00    +0.046 C 
ATOM     16  C   UNL     1       3.547   6.982  17.975  0.00  0.00    -0.030 C 
ATOM     17  C   UNL     1       3.987   5.586  17.878  0.00  0.00    +0.050 C 
ATOM     18 CL   UNL     1       5.259   5.080  16.885  0.00  0.00    -0.083 Cl
ATOM     19  C   UNL     1       3.232   4.841  18.688  0.00  0.00    +0.013 C 
ATOM     20  C   UNL     1       3.008   3.510  19.166  0.00  0.00    +0.064 C 
ATOM     21  C   UNL     1       1.979   3.625  20.039  0.00  0.00    -0.049 C 
ATOM     22  C   UNL     1       1.534   5.019  20.134  0.00  0.00    -0.053 C 
ATOM     23  C   UNL     1       2.295   5.747  19.312  0.00  0.00    -0.004 C 
ATOM     24  H   UNL     1       4.036   7.782  17.440  0.00  0.00    +0.064 HD
ATOM     25  H   UNL     1       1.530   2.819  20.604  0.00  0.00    +0.062 HD
ATOM     26  H   UNL     1       0.732   5.377  20.764  0.00  0.00    +0.062 HD
BRANCH  20  27
ATOM     27  C   UNL     1       3.777   2.316  18.748  0.00  0.00    +0.418 C 
ATOM     28  F   UNL     1       4.927   2.176  19.454  0.00  0.00    -0.166 F 
ATOM     29  F   UNL     1       4.118   2.363  17.435  0.00  0.00    -0.166 F 
ATOM     30  F   UNL     1       3.071   1.169  18.925  0.00  0.00    -0.166 F 
ENDBRANCH  20  27
ENDBRANCH  12  15
ENDBRANCH   5  11
BRANCH   1  31
ATOM     31  C   UNL     1      -0.566  12.750  20.620  0.00  0.00    -0.012 C 
ATOM     32  H   UNL     1      -0.911  12.504  19.607  0.00  0.00    +0.035 HD
BRANCH  31  33
ATOM     33  C   UNL     1       0.727  13.561  20.450  0.00  0.00    -0.058 C 
ATOM     34  H   UNL     1       1.603  12.905  20.433  0.00  0.00    +0.024 HD
ATOM     35  H   UNL     1       0.729  14.139  19.520  0.00  0.00    +0.024 HD
ATOM     36  H   UNL     1       0.860  14.264  21.281  0.00  0.00    +0.024 HD
ENDBRANCH  31  33
BRANCH  31  37
ATOM     37  C   UNL     1      -1.670  13.556  21.335  0.00  0.00    +0.014 C 
ATOM     38  H   UNL     1      -1.559  14.625  21.122  0.00  0.00    +0.035 HD
ATOM     39  H   UNL     1      -1.558  13.450  22.422  0.00  0.00    +0.035 HD
BRANCH  37  40
ATOM     40  C   UNL     1      -3.036  13.073  20.979  0.00  0.00    +0.134 A 
ATOM     41  N   UNL     1      -3.428  12.671  19.786  0.00  0.00    -0.135 NA
ATOM     42  N   UNL     1      -4.752  12.314  19.867  0.00  0.00    -0.138 NA
ATOM     43  C   UNL     1      -5.139  12.500  21.107  0.00  0.00    +0.120 A 
ATOM     44  N   UNL     1      -4.096  12.974  21.841  0.00  0.00    -0.320 N 
ATOM     45  H   UNL     1      -6.127  12.310  21.500  0.00  0.00    +0.105 HD
BRANCH  44  46
ATOM     46  C   UNL     1      -4.126  13.301  23.240  0.00  0.00    +0.014 C 
ATOM     47  H   UNL     1      -4.775  12.587  23.752  0.00  0.00    +0.046 HD
ATOM     48  H   UNL     1      -4.516  14.314  23.372  0.00  0.00    +0.046 HD
ATOM     49  H   UNL     1      -3.107  13.247  23.634  0.00  0.00    +0.046 HD
ENDBRANCH  44  46
ENDBRANCH  37  40
ENDBRANCH  31  37
ENDBRANCH   1  31
TORSDOF 8
ENDMDL
MODEL 30
REMARK VINA RESULT:    -7.743      5.430      9.346
REMARK INTER + INTRA:         -11.155
REMARK INTER:                 -10.503
REMARK INTRA:                  -0.653
REMARK UNBOUND:                -0.243
REMARK  Name = 
REMARK  8 active torsions:
REMARK  status: ('A' for Active; 'I' for Inactive)
REMARK    1  A    between atoms: C_1  and  C_2
REMARK    2  A    between atoms: C_2  and  C_3
REMARK    3  A    between atoms: C_2  and  C_10
REMARK    4  A    between atoms: C_3  and  C_4
REMARK    5  A    between atoms: N_8  and  C_9
REMARK    6  A    between atoms: C_14  and  N_15
REMARK    7  A    between atoms: C_16  and  C_18
REMARK    8  A    between atoms: C_23  and  C_24
REMARK                            x       y       z     vdW  Elec       q    Type
REMARK                         _______ _______ _______ _____ _____    ______ ____
ROOT
ATOM      1  C   UNL     1       3.014   4.425  18.906  0.00  0.00    -0.042 A 
ATOM      2  C   UNL     1       2.558   3.754  20.047  0.00  0.00    -0.058 A 
ATOM      3  C   UNL     1       1.872   4.446  21.044  0.00  0.00    -0.060 A 
ATOM      4  C   UNL     1       1.637   5.818  20.920  0.00  0.00    -0.040 A 
ATOM      5  C   UNL     1       2.089   6.512  19.798  0.00  0.00    +0.034 A 
ATOM      6  C   UNL     1       2.775   5.807  18.799  0.00  0.00    -0.037 A 
ATOM      7  H   UNL     1       2.729   2.688  20.176  0.00  0.00    +0.062 HD
ATOM      8  H   UNL     1       1.515   3.919  21.926  0.00  0.00    +0.062 HD
ATOM      9  H   UNL     1       1.094   6.312  21.719  0.00  0.00    +0.064 HD
ATOM     10  H   UNL     1       3.138   6.333  17.918  0.00  0.00    +0.064 HD
ENDROOT
BRANCH   5  11
ATOM     11  N   UNL     1       1.897   7.895  19.592  0.00  0.00    -0.281 N 
ATOM     12  C   UNL     1       1.900   8.572  18.389  0.00  0.00    +0.249 C 
ATOM     13  O   UNL     1       2.024   8.083  17.272  0.00  0.00    -0.270 OA
ATOM     14  H   UNL     1       1.695   8.430  20.426  0.00  0.00    +0.155 HD
BRANCH  12  15
ATOM     15  C   UNL     1       1.697  10.036  18.530  0.00  0.00    +0.046 C 
ATOM     16  C   UNL     1       2.458  11.070  18.100  0.00  0.00    -0.030 C 
ATOM     17  C   UNL     1       1.816  12.345  18.440  0.00  0.00    +0.050 C 
ATOM     18 CL   UNL     1       2.486  13.851  18.064  0.00  0.00    -0.083 Cl
ATOM     19  C   UNL     1       0.663  12.092  19.061  0.00  0.00    +0.013 C 
ATOM     20  C   UNL     1      -0.484  12.697  19.668  0.00  0.00    +0.064 C 
ATOM     21  C   UNL     1      -1.246  11.655  20.081  0.00  0.00    -0.049 C 
ATOM     22  C   UNL     1      -0.603  10.379  19.748  0.00  0.00    -0.053 C 
ATOM     23  C   UNL     1       0.551  10.653  19.133  0.00  0.00    -0.004 C 
ATOM     24  H   UNL     1       3.388  11.018  17.554  0.00  0.00    +0.064 HD
ATOM     25  H   UNL     1      -2.200  11.724  20.587  0.00  0.00    +0.062 HD
ATOM     26  H   UNL     1      -1.008   9.401  19.965  0.00  0.00    +0.062 HD
BRANCH  20  27
ATOM     27  C   UNL     1      -0.718  14.153  19.781  0.00  0.00    +0.418 C 
ATOM     28  F   UNL     1       0.148  14.744  20.644  0.00  0.00    -0.166 F 
ATOM     29  F   UNL     1      -1.971  14.438  20.217  0.00  0.00    -0.166 F 
ATOM     30  F   UNL     1      -0.569  14.787  18.588  0.00  0.00    -0.166 F 
ENDBRANCH  20  27
ENDBRANCH  12  15
ENDBRANCH   5  11
BRANCH   1  31
ATOM     31  C   UNL     1       3.783   3.710  17.802  0.00  0.00    -0.012 C 
ATOM     32  H   UNL     1       3.406   4.074  16.837  0.00  0.00    +0.035 HD
BRANCH  31  33
ATOM     33  C   UNL     1       3.520   2.196  17.824  0.00  0.00    -0.058 C 
ATOM     34  H   UNL     1       2.508   1.979  18.183  0.00  0.00    +0.024 HD
ATOM     35  H   UNL     1       3.620   1.749  16.829  0.00  0.00    +0.024 HD
ATOM     36  H   UNL     1       4.222   1.687  18.493  0.00  0.00    +0.024 HD
ENDBRANCH  31  33
BRANCH  31  37
ATOM     37  C   UNL     1       5.286   4.041  17.902  0.00  0.00    +0.014 C 
ATOM     38  H   UNL     1       5.811   3.264  18.468  0.00  0.00    +0.035 HD
ATOM     39  H   UNL     1       5.421   4.972  18.469  0.00  0.00    +0.035 HD
BRANCH  37  40
ATOM     40  C   UNL     1       5.905   4.243  16.560  0.00  0.00    +0.134 A 
ATOM     41  N   UNL     1       5.737   3.469  15.506  0.00  0.00    -0.135 NA
ATOM     42  N   UNL     1       6.479   3.986  14.471  0.00  0.00    -0.138 NA
ATOM     43  C   UNL     1       7.078   5.066  14.912  0.00  0.00    +0.120 A 
ATOM     44  N   UNL     1       6.747   5.268  16.216  0.00  0.00    -0.320 N 
ATOM     45  H   UNL     1       7.733   5.708  14.342  0.00  0.00    +0.105 HD
BRANCH  44  46
ATOM     46  C   UNL     1       7.205   6.347  17.048  0.00  0.00    +0.014 C 
ATOM     47  H   UNL     1       7.324   7.238  16.429  0.00  0.00    +0.046 HD
ATOM     48  H   UNL     1       8.165   6.081  17.499  0.00  0.00    +0.046 HD
ATOM     49  H   UNL     1       6.466   6.519  17.836  0.00  0.00    +0.046 HD
ENDBRANCH  44  46
ENDBRANCH  37  40
ENDBRANCH  31  37
ENDBRANCH   1  31
TORSDOF 8
ENDMDL
MODEL 31
REMARK VINA RESULT:    -7.684      3.078      4.653
REMARK INTER + INTRA:         -11.072
REMARK INTER:                 -10.132
REMARK INTRA:                  -0.940
REMARK UNBOUND:                -0.243
REMARK  Name = 
REMARK  8 active torsions:
REMARK  status: ('A' for Active; 'I' for Inactive)
REMARK    1  A    between atoms: C_1  and  C_2
REMARK    2  A    between atoms: C_2  and  C_3
REMARK    3  A    between atoms: C_2  and  C_10
REMARK    4  A    between atoms: C_3  and  C_4
REMARK    5  A    between atoms: N_8  and  C_9
REMARK    6  A    between atoms: C_14  and  N_15
REMARK    7  A    between atoms: C_16  and  C_18
REMARK    8  A    between atoms: C_23  and  C_24
REMARK                            x       y       z     vdW  Elec       q    Type
REMARK                         _______ _______ _______ _____ _____    ______ ____
ROOT
ATOM      1  C   UNL     1       0.527  11.903  19.676  0.00  0.00    -0.042 A 
ATOM      2  C   UNL     1      -0.698  12.016  19.006  0.00  0.00    -0.058 A 
ATOM      3  C   UNL     1      -1.164  10.971  18.210  0.00  0.00    -0.060 A 
ATOM      4  C   UNL     1      -0.413   9.802  18.065  0.00  0.00    -0.040 A 
ATOM      5  C   UNL     1       0.814   9.667  18.712  0.00  0.00    +0.034 A 
ATOM      6  C   UNL     1       1.275  10.722  19.514  0.00  0.00    -0.037 A 
ATOM      7  H   UNL     1      -1.303  12.914  19.094  0.00  0.00    +0.062 HD
ATOM      8  H   UNL     1      -2.118  11.062  17.696  0.00  0.00    +0.062 HD
ATOM      9  H   UNL     1      -0.819   9.014  17.439  0.00  0.00    +0.064 HD
ATOM     10  H   UNL     1       2.232  10.636  20.024  0.00  0.00    +0.064 HD
ENDROOT
BRANCH   5  11
ATOM     11  N   UNL     1       1.637   8.524  18.620  0.00  0.00    -0.281 N 
ATOM     12  C   UNL     1       1.985   7.657  19.637  0.00  0.00    +0.249 C 
ATOM     13  O   UNL     1       1.601   7.698  20.800  0.00  0.00    -0.270 OA
ATOM     14  H   UNL     1       1.968   8.306  17.690  0.00  0.00    +0.155 HD
BRANCH  12  15
ATOM     15  C   UNL     1       2.896   6.568  19.204  0.00  0.00    +0.046 C 
ATOM     16  C   UNL     1       3.098   5.335  19.727  0.00  0.00    -0.030 C 
ATOM     17  C   UNL     1       4.073   4.597  18.918  0.00  0.00    +0.050 C 
ATOM     18 CL   UNL     1       4.576   3.022  19.277  0.00  0.00    -0.083 Cl
ATOM     19  C   UNL     1       4.456   5.368  17.898  0.00  0.00    +0.013 C 
ATOM     20  C   UNL     1       5.291   5.424  16.736  0.00  0.00    +0.064 C 
ATOM     21  C   UNL     1       5.072   6.654  16.212  0.00  0.00    -0.049 C 
ATOM     22  C   UNL     1       4.101   7.397  17.023  0.00  0.00    -0.053 C 
ATOM     23  C   UNL     1       3.736   6.612  18.041  0.00  0.00    -0.004 C 
ATOM     24  H   UNL     1       2.613   4.901  20.587  0.00  0.00    +0.064 HD
ATOM     25  H   UNL     1       5.532   7.058  15.321  0.00  0.00    +0.062 HD
ATOM     26  H   UNL     1       3.752   8.398  16.817  0.00  0.00    +0.062 HD
BRANCH  20  27
ATOM     27  C   UNL     1       6.176   4.333  16.272  0.00  0.00    +0.418 C 
ATOM     28  F   UNL     1       6.778   4.629  15.092  0.00  0.00    -0.166 F 
ATOM     29  F   UNL     1       5.500   3.169  16.094  0.00  0.00    -0.166 F 
ATOM     30  F   UNL     1       7.171   4.071  17.159  0.00  0.00    -0.166 F 
ENDBRANCH  20  27
ENDBRANCH  12  15
ENDBRANCH   5  11
BRANCH   1  31
ATOM     31  C   UNL     1       1.081  13.027  20.541  0.00  0.00    -0.012 C 
ATOM     32  H   UNL     1       1.883  12.610  21.164  0.00  0.00    +0.035 HD
BRANCH  31  33
ATOM     33  C   UNL     1       0.018  13.567  21.510  0.00  0.00    -0.058 C 
ATOM     34  H   UNL     1       0.033  14.661  21.539  0.00  0.00    +0.024 HD
ATOM     35  H   UNL     1      -0.993  13.258  21.223  0.00  0.00    +0.024 HD
ATOM     36  H   UNL     1       0.201  13.209  22.530  0.00  0.00    +0.024 HD
ENDBRANCH  31  33
BRANCH  31  37
ATOM     37  C   UNL     1       1.675  14.138  19.651  0.00  0.00    +0.014 C 
ATOM     38  H   UNL     1       1.046  15.034  19.688  0.00  0.00    +0.035 HD
ATOM     39  H   UNL     1       1.673  13.811  18.603  0.00  0.00    +0.035 HD
BRANCH  37  40
ATOM     40  C   UNL     1       3.086  14.454  20.017  0.00  0.00    +0.134 A 
ATOM     41  N   UNL     1       3.630  14.303  21.208  0.00  0.00    -0.135 NA
ATOM     42  N   UNL     1       4.939  14.711  21.138  0.00  0.00    -0.138 NA
ATOM     43  C   UNL     1       5.171  15.095  19.906  0.00  0.00    +0.120 A 
ATOM     44  N   UNL     1       4.039  14.951  19.166  0.00  0.00    -0.320 N 
ATOM     45  H   UNL     1       6.109  15.470  19.522  0.00  0.00    +0.105 HD
BRANCH  44  46
ATOM     46  C   UNL     1       3.893  15.267  17.771  0.00  0.00    +0.014 C 
ATOM     47  H   UNL     1       2.849  15.123  17.488  0.00  0.00    +0.046 HD
ATOM     48  H   UNL     1       4.531  14.607  17.176  0.00  0.00    +0.046 HD
ATOM     49  H   UNL     1       4.196  16.306  17.614  0.00  0.00    +0.046 HD
ENDBRANCH  44  46
ENDBRANCH  37  40
ENDBRANCH  31  37
ENDBRANCH   1  31
TORSDOF 8
ENDMDL
MODEL 32
REMARK VINA RESULT:    -7.666      3.115      4.506
REMARK INTER + INTRA:         -11.046
REMARK INTER:                  -9.777
REMARK INTRA:                  -1.269
REMARK UNBOUND:                -0.243
REMARK  Name = 
REMARK  8 active torsions:
REMARK  status: ('A' for Active; 'I' for Inactive)
REMARK    1  A    between atoms: C_1  and  C_2
REMARK    2  A    between atoms: C_2  and  C_3
REMARK    3  A    between atoms: C_2  and  C_10
REMARK    4  A    between atoms: C_3  and  C_4
REMARK    5  A    between atoms: N_8  and  C_9
REMARK    6  A    between atoms: C_14  and  N_15
REMARK    7  A    between atoms: C_16  and  C_18
REMARK    8  A    between atoms: C_23  and  C_24
REMARK                            x       y       z     vdW  Elec       q    Type
REMARK                         _______ _______ _______ _____ _____    ______ ____
ROOT
ATOM      1  C   UNL     1       0.053  12.471  19.578  0.00  0.00    -0.042 A 
ATOM      2  C   UNL     1      -0.925  12.658  18.595  0.00  0.00    -0.058 A 
ATOM      3  C   UNL     1      -1.388  11.577  17.847  0.00  0.00    -0.060 A 
ATOM      4  C   UNL     1      -0.878  10.295  18.065  0.00  0.00    -0.040 A 
ATOM      5  C   UNL     1       0.105  10.082  19.031  0.00  0.00    +0.034 A 
ATOM      6  C   UNL     1       0.563  11.175  19.781  0.00  0.00    -0.037 A 
ATOM      7  H   UNL     1      -1.339  13.644  18.397  0.00  0.00    +0.062 HD
ATOM      8  H   UNL     1      -2.152  11.727  17.088  0.00  0.00    +0.062 HD
ATOM      9  H   UNL     1      -1.273   9.483  17.462  0.00  0.00    +0.064 HD
ATOM     10  H   UNL     1       1.331  11.029  20.538  0.00  0.00    +0.064 HD
ENDROOT
BRANCH   5  11
ATOM     11  N   UNL     1       0.676   8.823  19.316  0.00  0.00    -0.281 N 
ATOM     12  C   UNL     1       1.870   8.318  18.842  0.00  0.00    +0.249 C 
ATOM     13  O   UNL     1       2.676   8.894  18.121  0.00  0.00    -0.270 OA
ATOM     14  H   UNL     1       0.161   8.256  19.976  0.00  0.00    +0.155 HD
BRANCH  12  15
ATOM     15  C   UNL     1       2.163   6.942  19.315  0.00  0.00    +0.046 C 
ATOM     16  C   UNL     1       1.859   6.335  20.487  0.00  0.00    -0.030 C 
ATOM     17  C   UNL     1       2.323   4.943  20.471  0.00  0.00    +0.050 C 
ATOM     18 CL   UNL     1       2.121   3.882  21.771  0.00  0.00    -0.083 Cl
ATOM     19  C   UNL     1       2.896   4.696  19.291  0.00  0.00    +0.013 C 
ATOM     20  C   UNL     1       3.546   3.691  18.506  0.00  0.00    +0.064 C 
ATOM     21  C   UNL     1       3.833   4.302  17.331  0.00  0.00    -0.049 C 
ATOM     22  C   UNL     1       3.375   5.695  17.347  0.00  0.00    -0.053 C 
ATOM     23  C   UNL     1       2.812   5.925  18.536  0.00  0.00    -0.004 C 
ATOM     24  H   UNL     1       1.325   6.757  21.324  0.00  0.00    +0.064 HD
ATOM     25  H   UNL     1       4.328   3.850  16.482  0.00  0.00    +0.062 HD
ATOM     26  H   UNL     1       3.480   6.396  16.532  0.00  0.00    +0.062 HD
BRANCH  20  27
ATOM     27  C   UNL     1       3.811   2.304  18.950  0.00  0.00    +0.418 C 
ATOM     28  F   UNL     1       4.111   1.483  17.911  0.00  0.00    -0.166 F 
ATOM     29  F   UNL     1       2.745   1.762  19.592  0.00  0.00    -0.166 F 
ATOM     30  F   UNL     1       4.858   2.237  19.813  0.00  0.00    -0.166 F 
ENDBRANCH  20  27
ENDBRANCH  12  15
ENDBRANCH   5  11
BRANCH   1  31
ATOM     31  C   UNL     1       0.599  13.628  20.404  0.00  0.00    -0.012 C 
ATOM     32  H   UNL     1       0.027  14.529  20.143  0.00  0.00    +0.035 HD
BRANCH  31  33
ATOM     33  C   UNL     1       2.063  13.930  20.051  0.00  0.00    -0.058 C 
ATOM     34  H   UNL     1       2.654  14.117  20.954  0.00  0.00    +0.024 HD
ATOM     35  H   UNL     1       2.535  13.100  19.515  0.00  0.00    +0.024 HD
ATOM     36  H   UNL     1       2.137  14.823  19.420  0.00  0.00    +0.024 HD
ENDBRANCH  31  33
BRANCH  31  37
ATOM     37  C   UNL     1       0.409  13.343  21.908  0.00  0.00    +0.014 C 
ATOM     38  H   UNL     1       0.917  14.107  22.508  0.00  0.00    +0.035 HD
ATOM     39  H   UNL     1       0.889  12.389  22.166  0.00  0.00    +0.035 HD
BRANCH  37  40
ATOM     40  C   UNL     1      -1.031  13.232  22.280  0.00  0.00    +0.134 A 
ATOM     41  N   UNL     1      -1.933  14.188  22.176  0.00  0.00    -0.135 NA
ATOM     42  N   UNL     1      -3.134  13.696  22.626  0.00  0.00    -0.138 NA
ATOM     43  C   UNL     1      -2.943  12.450  22.989  0.00  0.00    +0.120 A 
ATOM     44  N   UNL     1      -1.640  12.115  22.789  0.00  0.00    -0.320 N 
ATOM     45  H   UNL     1      -3.692  11.781  23.386  0.00  0.00    +0.105 HD
BRANCH  44  46
ATOM     46  C   UNL     1      -1.042  10.838  23.067  0.00  0.00    +0.014 C 
ATOM     47  H   UNL     1      -0.110  10.999  23.612  0.00  0.00    +0.046 HD
ATOM     48  H   UNL     1      -0.835  10.317  22.128  0.00  0.00    +0.046 HD
ATOM     49  H   UNL     1      -1.741  10.247  23.666  0.00  0.00    +0.046 HD
ENDBRANCH  44  46
ENDBRANCH  37  40
ENDBRANCH  31  37
ENDBRANCH   1  31
TORSDOF 8
ENDMDL
MODEL 33
REMARK VINA RESULT:    -7.626      2.756      4.099
REMARK INTER + INTRA:         -10.990
REMARK INTER:                  -9.943
REMARK INTRA:                  -1.047
REMARK UNBOUND:                -0.243
REMARK  Name = 
REMARK  8 active torsions:
REMARK  status: ('A' for Active; 'I' for Inactive)
REMARK    1  A    between atoms: C_1  and  C_2
REMARK    2  A    between atoms: C_2  and  C_3
REMARK    3  A    between atoms: C_2  and  C_10
REMARK    4  A    between atoms: C_3  and  C_4
REMARK    5  A    between atoms: N_8  and  C_9
REMARK    6  A    between atoms: C_14  and  N_15
REMARK    7  A    between atoms: C_16  and  C_18
REMARK    8  A    between atoms: C_23  and  C_24
REMARK                            x       y       z     vdW  Elec       q    Type
REMARK                         _______ _______ _______ _____ _____    ______ ____
ROOT
ATOM      1  C   UNL     1      -0.404  12.534  19.609  0.00  0.00    -0.042 A 
ATOM      2  C   UNL     1      -1.581  12.625  18.857  0.00  0.00    -0.058 A 
ATOM      3  C   UNL     1      -2.045  11.523  18.139  0.00  0.00    -0.060 A 
ATOM      4  C   UNL     1      -1.338  10.318  18.156  0.00  0.00    -0.040 A 
ATOM      5  C   UNL     1      -0.157  10.204  18.889  0.00  0.00    +0.034 A 
ATOM      6  C   UNL     1       0.301  11.316  19.610  0.00  0.00    -0.037 A 
ATOM      7  H   UNL     1      -2.152  13.549  18.819  0.00  0.00    +0.062 HD
ATOM      8  H   UNL     1      -2.963  11.597  17.561  0.00  0.00    +0.062 HD
ATOM      9  H   UNL     1      -1.741   9.487  17.586  0.00  0.00    +0.064 HD
ATOM     10  H   UNL     1       1.222  11.246  20.185  0.00  0.00    +0.064 HD
ENDROOT
BRANCH   5  11
ATOM     11  N   UNL     1       0.620   9.028  18.960  0.00  0.00    -0.281 N 
ATOM     12  C   UNL     1       1.257   8.510  20.070  0.00  0.00    +0.249 C 
ATOM     13  O   UNL     1       1.224   8.957  21.210  0.00  0.00    -0.270 OA
ATOM     14  H   UNL     1       0.672   8.494  18.103  0.00  0.00    +0.155 HD
BRANCH  12  15
ATOM     15  C   UNL     1       2.020   7.267  19.792  0.00  0.00    +0.046 C 
ATOM     16  C   UNL     1       2.009   6.072  20.428  0.00  0.00    -0.030 C 
ATOM     17  C   UNL     1       2.907   5.130  19.751  0.00  0.00    +0.050 C 
ATOM     18 CL   UNL     1       3.151   3.541  20.273  0.00  0.00    -0.083 Cl
ATOM     19  C   UNL     1       3.453   5.742  18.698  0.00  0.00    +0.013 C 
ATOM     20  C   UNL     1       4.349   5.571  17.594  0.00  0.00    +0.064 C 
ATOM     21  C   UNL     1       4.342   6.765  16.956  0.00  0.00    -0.049 C 
ATOM     22  C   UNL     1       3.450   7.710  17.635  0.00  0.00    -0.053 C 
ATOM     23  C   UNL     1       2.918   7.084  18.688  0.00  0.00    -0.004 C 
ATOM     24  H   UNL     1       1.419   5.792  21.288  0.00  0.00    +0.064 HD
ATOM     25  H   UNL     1       4.905   7.015  16.066  0.00  0.00    +0.062 HD
ATOM     26  H   UNL     1       3.264   8.728  17.323  0.00  0.00    +0.062 HD
BRANCH  20  27
ATOM     27  C   UNL     1       5.087   4.326  17.283  0.00  0.00    +0.418 C 
ATOM     28  F   UNL     1       5.786   4.423  16.123  0.00  0.00    -0.166 F 
ATOM     29  F   UNL     1       4.258   3.258  17.162  0.00  0.00    -0.166 F 
ATOM     30  F   UNL     1       5.986   4.011  18.252  0.00  0.00    -0.166 F 
ENDBRANCH  20  27
ENDBRANCH  12  15
ENDBRANCH   5  11
BRANCH   1  31
ATOM     31  C   UNL     1       0.147  13.718  20.392  0.00  0.00    -0.012 C 
ATOM     32  H   UNL     1      -0.528  14.570  20.235  0.00  0.00    +0.035 HD
BRANCH  31  33
ATOM     33  C   UNL     1       1.521  14.154  19.862  0.00  0.00    -0.058 C 
ATOM     34  H   UNL     1       1.464  14.431  18.804  0.00  0.00    +0.024 HD
ATOM     35  H   UNL     1       1.917  15.016  20.408  0.00  0.00    +0.024 HD
ATOM     36  H   UNL     1       2.249  13.339  19.948  0.00  0.00    +0.024 HD
ENDBRANCH  31  33
BRANCH  31  37
ATOM     37  C   UNL     1       0.182  13.389  21.899  0.00  0.00    +0.014 C 
ATOM     38  H   UNL     1       0.730  14.164  22.446  0.00  0.00    +0.035 HD
ATOM     39  H   UNL     1       0.738  12.455  22.059  0.00  0.00    +0.035 HD
BRANCH  37  40
ATOM     40  C   UNL     1      -1.186  13.195  22.462  0.00  0.00    +0.134 A 
ATOM     41  N   UNL     1      -2.119  14.120  22.566  0.00  0.00    -0.135 NA
ATOM     42  N   UNL     1      -3.228  13.550  23.140  0.00  0.00    -0.138 NA
ATOM     43  C   UNL     1      -2.953  12.288  23.369  0.00  0.00    +0.120 A 
ATOM     44  N   UNL     1      -1.684  12.019  22.959  0.00  0.00    -0.320 N 
ATOM     45  H   UNL     1      -3.619  11.562  23.812  0.00  0.00    +0.105 HD
BRANCH  44  46
ATOM     46  C   UNL     1      -1.019  10.748  23.044  0.00  0.00    +0.014 C 
ATOM     47  H   UNL     1       0.057  10.910  22.953  0.00  0.00    +0.046 HD
ATOM     48  H   UNL     1      -1.363  10.098  22.234  0.00  0.00    +0.046 HD
ATOM     49  H   UNL     1      -1.260  10.290  24.007  0.00  0.00    +0.046 HD
ENDBRANCH  44  46
ENDBRANCH  37  40
ENDBRANCH  31  37
ENDBRANCH   1  31
TORSDOF 8
ENDMDL
