MODEL 1
REMARK VINA RESULT:    -8.164      0.000      0.000
REMARK INTER + INTRA:          -9.698
REMARK INTER:                  -9.669
REMARK INTRA:                  -0.030
REMARK UNBOUND:                -0.102
REMARK  Name = 
REMARK  4 active torsions:
REMARK  status: ('A' for Active; 'I' for Inactive)
REMARK    1  A    between atoms: C_1  and  C_2
REMARK    2  A    between atoms: C_7  and  C_8
REMARK    3  A    between atoms: C_13  and  O_14
REMARK    4  A    between atoms: C_13  and  C_15
REMARK                            x       y       z     vdW  Elec       q    Type
REMARK                         _______ _______ _______ _____ _____    ______ ____
ROOT
ATOM      1  C   UNL     1       2.934   7.406  18.132  0.00  0.00    +0.265 C 
ATOM      2  O   UNL     1       3.670   7.922  17.287  0.00  0.00    -0.268 OA
ATOM      3  N   UNL     1       3.007   6.036  18.424  0.00  0.00    -0.296 N 
ATOM      4  C   UNL     1       2.001   5.304  19.195  0.00  0.00    +0.018 C 
ATOM      5  C   UNL     1       1.956   3.827  18.819  0.00  0.00    +0.000 C 
ATOM      6  C   UNL     1       3.328   3.144  18.986  0.00  0.00    +0.163 C 
ATOM      7  C   UNL     1       4.500   4.118  18.753  0.00  0.00    +0.000 C 
ATOM      8  C   UNL     1       4.101   5.268  17.839  0.00  0.00    +0.018 C 
ATOM      9  H   UNL     1       2.250   5.415  20.257  0.00  0.00    +0.047 HD
ATOM     10  H   UNL     1       1.012   5.741  19.019  0.00  0.00    +0.047 HD
ATOM     11  H   UNL     1       1.200   3.321  19.434  0.00  0.00    +0.031 HD
ATOM     12  H   UNL     1       1.622   3.758  17.776  0.00  0.00    +0.031 HD
ATOM     13  H   UNL     1       5.366   3.592  18.332  0.00  0.00    +0.031 HD
ATOM     14  H   UNL     1       4.845   4.532  19.709  0.00  0.00    +0.031 HD
ATOM     15  H   UNL     1       4.966   5.918  17.669  0.00  0.00    +0.047 HD
ATOM     16  H   UNL     1       3.768   4.904  16.860  0.00  0.00    +0.047 HD
ENDROOT
BRANCH   1  22
ATOM     17  C   UNL     1      -0.779  10.684  22.265  0.00  0.00    -0.050 A 
ATOM     18  C   UNL     1       0.002   9.739  22.930  0.00  0.00    -0.057 A 
ATOM     19  C   UNL     1       0.873   8.911  22.213  0.00  0.00    -0.035 A 
ATOM     20  C   UNL     1       1.000   9.004  20.835  0.00  0.00    +0.072 A 
ATOM     21  N   UNL     1       1.850   8.183  20.195  0.00  0.00    -0.242 NA
ATOM     22  C   UNL     1       1.953   8.295  18.845  0.00  0.00    +0.126 A 
ATOM     23  C   UNL     1       1.241   9.226  18.102  0.00  0.00    -0.031 A 
ATOM     24  C   UNL     1       0.361  10.071  18.771  0.00  0.00    -0.050 A 
ATOM     25  C   UNL     1       0.224   9.971  20.160  0.00  0.00    +0.001 A 
ATOM     26  C   UNL     1      -0.653  10.804  20.877  0.00  0.00    -0.050 A 
ATOM     27  H   UNL     1      -0.058   9.635  24.012  0.00  0.00    +0.062 HD
ATOM     28  H   UNL     1       1.471   8.179  22.749  0.00  0.00    +0.064 HD
ATOM     29  H   UNL     1       1.368   9.298  17.026  0.00  0.00    +0.064 HD
ATOM     30  H   UNL     1      -0.208  10.804  18.205  0.00  0.00    +0.062 HD
ATOM     31  H   UNL     1      -1.242  11.552  20.349  0.00  0.00    +0.063 HD
BRANCH  17  32
ATOM     32  C   UNL     1      -1.689  11.599  23.030  0.00  0.00    -0.040 C 
ATOM     33  H   UNL     1      -2.413  12.078  22.362  0.00  0.00    +0.028 HD
ATOM     34  H   UNL     1      -1.120  12.398  23.516  0.00  0.00    +0.028 HD
ATOM     35  H   UNL     1      -2.232  11.034  23.794  0.00  0.00    +0.028 HD
ENDBRANCH  17  32
ENDBRANCH   1  22
BRANCH   6  36
ATOM     36  C   UNL     1       3.417   1.960  17.990  0.00  0.00    +0.418 C 
ATOM     37  F   UNL     1       4.334   2.208  17.023  0.00  0.00    -0.168 F 
ATOM     38  F   UNL     1       2.235   1.736  17.371  0.00  0.00    -0.168 F 
ATOM     39  F   UNL     1       3.787   0.813  18.602  0.00  0.00    -0.168 F 
ENDBRANCH   6  36
BRANCH   6  40
ATOM     40  O   UNL     1       3.424   2.663  20.348  0.00  0.00    -0.380 OA
ATOM     41  H   UNL     1       2.906   1.842  20.427  0.00  0.00    +0.211 HD
ENDBRANCH   6  40
TORSDOF 4
ENDMDL
MODEL 2
REMARK VINA RESULT:    -7.578      5.074      8.185
REMARK INTER + INTRA:          -9.010
REMARK INTER:                  -8.823
REMARK INTRA:                  -0.187
REMARK UNBOUND:                -0.102
REMARK  Name = 
REMARK  4 active torsions:
REMARK  status: ('A' for Active; 'I' for Inactive)
REMARK    1  A    between atoms: C_1  and  C_2
REMARK    2  A    between atoms: C_7  and  C_8
REMARK    3  A    between atoms: C_13  and  O_14
REMARK    4  A    between atoms: C_13  and  C_15
REMARK                            x       y       z     vdW  Elec       q    Type
REMARK                         _______ _______ _______ _____ _____    ______ ____
ROOT
ATOM      1  C   UNL     1       0.609   9.949  19.710  0.00  0.00    +0.265 C 
ATOM      2  O   UNL     1       0.860  10.528  20.771  0.00  0.00    -0.268 OA
ATOM      3  N   UNL     1      -0.474  10.335  18.907  0.00  0.00    -0.296 N 
ATOM      4  C   UNL     1      -0.999   9.540  17.796  0.00  0.00    +0.018 C 
ATOM      5  C   UNL     1      -2.477   9.816  17.544  0.00  0.00    +0.000 C 
ATOM      6  C   UNL     1      -2.751  11.310  17.281  0.00  0.00    +0.163 C 
ATOM      7  C   UNL     1      -1.756  12.227  18.019  0.00  0.00    +0.000 C 
ATOM      8  C   UNL     1      -1.189  11.557  19.262  0.00  0.00    +0.018 C 
ATOM      9  H   UNL     1      -0.413   9.786  16.904  0.00  0.00    +0.047 HD
ATOM     10  H   UNL     1      -0.875   8.474  18.015  0.00  0.00    +0.047 HD
ATOM     11  H   UNL     1      -2.818   9.209  16.696  0.00  0.00    +0.031 HD
ATOM     12  H   UNL     1      -3.036   9.477  18.427  0.00  0.00    +0.031 HD
ATOM     13  H   UNL     1      -2.231  13.177  18.294  0.00  0.00    +0.031 HD
ATOM     14  H   UNL     1      -0.925  12.497  17.354  0.00  0.00    +0.031 HD
ATOM     15  H   UNL     1      -0.514  12.249  19.776  0.00  0.00    +0.047 HD
ATOM     16  H   UNL     1      -1.982  11.287  19.968  0.00  0.00    +0.047 HD
ENDROOT
BRANCH   1  22
ATOM     17  C   UNL     1       3.905   4.455  18.950  0.00  0.00    -0.050 A 
ATOM     18  C   UNL     1       3.107   4.410  20.093  0.00  0.00    -0.057 A 
ATOM     19  C   UNL     1       2.317   5.509  20.447  0.00  0.00    -0.035 A 
ATOM     20  C   UNL     1       2.288   6.665  19.682  0.00  0.00    +0.072 A 
ATOM     21  N   UNL     1       1.514   7.693  20.070  0.00  0.00    -0.242 NA
ATOM     22  C   UNL     1       1.506   8.814  19.301  0.00  0.00    +0.126 A 
ATOM     23  C   UNL     1       2.242   8.938  18.131  0.00  0.00    -0.031 A 
ATOM     24  C   UNL     1       3.043   7.872  17.738  0.00  0.00    -0.050 A 
ATOM     25  C   UNL     1       3.081   6.709  18.515  0.00  0.00    +0.001 A 
ATOM     26  C   UNL     1       3.877   5.607  18.155  0.00  0.00    -0.050 A 
ATOM     27  H   UNL     1       3.091   3.521  20.720  0.00  0.00    +0.062 HD
ATOM     28  H   UNL     1       1.704   5.456  21.344  0.00  0.00    +0.064 HD
ATOM     29  H   UNL     1       2.191   9.844  17.533  0.00  0.00    +0.064 HD
ATOM     30  H   UNL     1       3.628   7.954  16.825  0.00  0.00    +0.062 HD
ATOM     31  H   UNL     1       4.479   5.646  17.249  0.00  0.00    +0.063 HD
BRANCH  17  32
ATOM     32  C   UNL     1       4.728   3.268  18.543  0.00  0.00    -0.040 C 
ATOM     33  H   UNL     1       4.099   2.496  18.087  0.00  0.00    +0.028 HD
ATOM     34  H   UNL     1       5.216   2.816  19.413  0.00  0.00    +0.028 HD
ATOM     35  H   UNL     1       5.494   3.573  17.823  0.00  0.00    +0.028 HD
ENDBRANCH  17  32
ENDBRANCH   1  22
BRANCH   6  36
ATOM     36  C   UNL     1      -4.200  11.635  17.726  0.00  0.00    +0.418 C 
ATOM     37  F   UNL     1      -4.881  10.502  18.026  0.00  0.00    -0.168 F 
ATOM     38  F   UNL     1      -4.893  12.271  16.753  0.00  0.00    -0.168 F 
ATOM     39  F   UNL     1      -4.226  12.417  18.829  0.00  0.00    -0.168 F 
ENDBRANCH   6  36
BRANCH   6  40
ATOM     40  O   UNL     1      -2.597  11.548  15.862  0.00  0.00    -0.380 OA
ATOM     41  H   UNL     1      -2.053  12.346  15.735  0.00  0.00    +0.211 HD
ENDBRANCH   6  40
TORSDOF 4
ENDMDL
MODEL 3
REMARK VINA RESULT:    -7.563      1.171      2.076
REMARK INTER + INTRA:          -8.991
REMARK INTER:                  -9.187
REMARK INTRA:                   0.196
REMARK UNBOUND:                -0.102
REMARK  Name = 
REMARK  4 active torsions:
REMARK  status: ('A' for Active; 'I' for Inactive)
REMARK    1  A    between atoms: C_1  and  C_2
REMARK    2  A    between atoms: C_7  and  C_8
REMARK    3  A    between atoms: C_13  and  O_14
REMARK    4  A    between atoms: C_13  and  C_15
REMARK                            x       y       z     vdW  Elec       q    Type
REMARK                         _______ _______ _______ _____ _____    ______ ____
ROOT
ATOM      1  C   UNL     1       2.297   7.538  19.158  0.00  0.00    +0.265 C 
ATOM      2  O   UNL     1       2.839   8.077  18.189  0.00  0.00    -0.268 OA
ATOM      3  N   UNL     1       2.386   6.154  19.367  0.00  0.00    -0.296 N 
ATOM      4  C   UNL     1       1.556   5.411  20.317  0.00  0.00    +0.018 C 
ATOM      5  C   UNL     1       1.373   3.956  19.900  0.00  0.00    +0.000 C 
ATOM      6  C   UNL     1       2.721   3.231  19.717  0.00  0.00    +0.163 C 
ATOM      7  C   UNL     1       3.843   4.185  19.263  0.00  0.00    +0.000 C 
ATOM      8  C   UNL     1       3.288   5.388  18.514  0.00  0.00    +0.018 C 
ATOM      9  H   UNL     1       2.045   5.463  21.297  0.00  0.00    +0.047 HD
ATOM     10  H   UNL     1       0.570   5.881  20.391  0.00  0.00    +0.047 HD
ATOM     11  H   UNL     1       0.760   3.440  20.649  0.00  0.00    +0.031 HD
ATOM     12  H   UNL     1       0.807   3.948  18.959  0.00  0.00    +0.031 HD
ATOM     13  H   UNL     1       4.571   3.658  18.632  0.00  0.00    +0.031 HD
ATOM     14  H   UNL     1       4.413   4.542  20.131  0.00  0.00    +0.031 HD
ATOM     15  H   UNL     1       4.115   6.023  18.178  0.00  0.00    +0.047 HD
ATOM     16  H   UNL     1       2.728   5.082  17.623  0.00  0.00    +0.047 HD
ENDROOT
BRANCH   1  22
ATOM     17  C   UNL     1      -1.471  11.813  22.182  0.00  0.00    -0.050 A 
ATOM     18  C   UNL     1      -1.528  11.981  20.798  0.00  0.00    -0.057 A 
ATOM     19  C   UNL     1      -0.773  11.158  19.955  0.00  0.00    -0.035 A 
ATOM     20  C   UNL     1       0.041  10.152  20.453  0.00  0.00    +0.072 A 
ATOM     21  N   UNL     1       0.747   9.393  19.598  0.00  0.00    -0.242 NA
ATOM     22  C   UNL     1       1.538   8.416  20.114  0.00  0.00    +0.126 A 
ATOM     23  C   UNL     1       1.634   8.154  21.473  0.00  0.00    -0.031 A 
ATOM     24  C   UNL     1       0.903   8.945  22.352  0.00  0.00    -0.050 A 
ATOM     25  C   UNL     1       0.089   9.968  21.851  0.00  0.00    +0.001 A 
ATOM     26  C   UNL     1      -0.668  10.793  22.703  0.00  0.00    -0.050 A 
ATOM     27  H   UNL     1      -2.160  12.751  20.361  0.00  0.00    +0.062 HD
ATOM     28  H   UNL     1      -0.830  11.307  18.879  0.00  0.00    +0.064 HD
ATOM     29  H   UNL     1       2.262   7.348  21.844  0.00  0.00    +0.064 HD
ATOM     30  H   UNL     1       0.969   8.757  23.421  0.00  0.00    +0.062 HD
ATOM     31  H   UNL     1      -0.631  10.638  23.780  0.00  0.00    +0.063 HD
BRANCH  17  32
ATOM     32  C   UNL     1      -2.305  12.667  23.092  0.00  0.00    -0.040 C 
ATOM     33  H   UNL     1      -3.103  12.078  23.556  0.00  0.00    +0.028 HD
ATOM     34  H   UNL     1      -2.783  13.478  22.534  0.00  0.00    +0.028 HD
ATOM     35  H   UNL     1      -1.678  13.097  23.879  0.00  0.00    +0.028 HD
ENDBRANCH  17  32
ENDBRANCH   1  22
BRANCH   6  36
ATOM     36  C   UNL     1       2.537   2.096  18.678  0.00  0.00    +0.418 C 
ATOM     37  F   UNL     1       1.425   1.369  18.945  0.00  0.00    -0.168 F 
ATOM     38  F   UNL     1       3.584   1.238  18.682  0.00  0.00    -0.168 F 
ATOM     39  F   UNL     1       2.404   2.579  17.422  0.00  0.00    -0.168 F 
ENDBRANCH   6  36
BRANCH   6  40
ATOM     40  O   UNL     1       3.108   2.680  20.999  0.00  0.00    -0.380 OA
ATOM     41  H   UNL     1       3.126   3.399  21.656  0.00  0.00    +0.211 HD
ENDBRANCH   6  40
TORSDOF 4
ENDMDL
MODEL 4
REMARK VINA RESULT:    -7.337      4.560      8.263
REMARK INTER + INTRA:          -8.726
REMARK INTER:                  -8.634
REMARK INTRA:                  -0.092
REMARK UNBOUND:                -0.102
REMARK  Name = 
REMARK  4 active torsions:
REMARK  status: ('A' for Active; 'I' for Inactive)
REMARK    1  A    between atoms: C_1  and  C_2
REMARK    2  A    between atoms: C_7  and  C_8
REMARK    3  A    between atoms: C_13  and  O_14
REMARK    4  A    between atoms: C_13  and  C_15
REMARK                            x       y       z     vdW  Elec       q    Type
REMARK                         _______ _______ _______ _____ _____    ______ ____
ROOT
ATOM      1  C   UNL     1       1.794   7.522  20.105  0.00  0.00    +0.265 C 
ATOM      2  O   UNL     1       1.716   7.154  21.280  0.00  0.00    -0.268 OA
ATOM      3  N   UNL     1       1.268   8.753  19.689  0.00  0.00    -0.296 N 
ATOM      4  C   UNL     1       1.074   9.135  18.289  0.00  0.00    +0.018 C 
ATOM      5  C   UNL     1      -0.053  10.148  18.124  0.00  0.00    +0.000 C 
ATOM      6  C   UNL     1       0.175  11.413  18.975  0.00  0.00    +0.163 C 
ATOM      7  C   UNL     1       0.965  11.118  20.265  0.00  0.00    +0.000 C 
ATOM      8  C   UNL     1       0.787   9.675  20.714  0.00  0.00    +0.018 C 
ATOM      9  H   UNL     1       2.018   9.559  17.926  0.00  0.00    +0.047 HD
ATOM     10  H   UNL     1       0.837   8.247  17.695  0.00  0.00    +0.047 HD
ATOM     11  H   UNL     1      -0.148  10.413  17.063  0.00  0.00    +0.031 HD
ATOM     12  H   UNL     1      -0.990   9.656  18.418  0.00  0.00    +0.031 HD
ATOM     13  H   UNL     1       0.662  11.798  21.071  0.00  0.00    +0.031 HD
ATOM     14  H   UNL     1       2.034  11.309  20.107  0.00  0.00    +0.031 HD
ATOM     15  H   UNL     1       1.334   9.512  21.649  0.00  0.00    +0.047 HD
ATOM     16  H   UNL     1      -0.266   9.441  20.906  0.00  0.00    +0.047 HD
ENDROOT
BRANCH   1  22
ATOM     17  C   UNL     1       5.416   4.651  15.603  0.00  0.00    -0.050 A 
ATOM     18  C   UNL     1       5.668   6.022  15.655  0.00  0.00    -0.057 A 
ATOM     19  C   UNL     1       4.977   6.835  16.560  0.00  0.00    -0.035 A 
ATOM     20  C   UNL     1       4.035   6.316  17.435  0.00  0.00    +0.072 A 
ATOM     21  N   UNL     1       3.398   7.142  18.283  0.00  0.00    -0.242 NA
ATOM     22  C   UNL     1       2.478   6.606  19.128  0.00  0.00    +0.126 A 
ATOM     23  C   UNL     1       2.184   5.251  19.171  0.00  0.00    -0.031 A 
ATOM     24  C   UNL     1       2.845   4.403  18.290  0.00  0.00    -0.050 A 
ATOM     25  C   UNL     1       3.788   4.927  17.399  0.00  0.00    +0.001 A 
ATOM     26  C   UNL     1       4.481   4.106  16.490  0.00  0.00    -0.050 A 
ATOM     27  H   UNL     1       6.405   6.473  14.993  0.00  0.00    +0.062 HD
ATOM     28  H   UNL     1       5.186   7.902  16.582  0.00  0.00    +0.064 HD
ATOM     29  H   UNL     1       1.458   4.859  19.878  0.00  0.00    +0.064 HD
ATOM     30  H   UNL     1       2.625   3.338  18.308  0.00  0.00    +0.062 HD
ATOM     31  H   UNL     1       4.290   3.035  16.474  0.00  0.00    +0.063 HD
BRANCH  17  32
ATOM     32  C   UNL     1       6.178   3.767  14.661  0.00  0.00    -0.040 C 
ATOM     33  H   UNL     1       6.197   4.196  13.653  0.00  0.00    +0.028 HD
ATOM     34  H   UNL     1       5.708   2.782  14.584  0.00  0.00    +0.028 HD
ATOM     35  H   UNL     1       7.207   3.644  15.013  0.00  0.00    +0.028 HD
ENDBRANCH  17  32
ENDBRANCH   1  22
BRANCH   6  36
ATOM     36  C   UNL     1      -1.203  12.029  19.327  0.00  0.00    +0.418 C 
ATOM     37  F   UNL     1      -2.213  11.210  18.944  0.00  0.00    -0.168 F 
ATOM     38  F   UNL     1      -1.396  13.216  18.706  0.00  0.00    -0.168 F 
ATOM     39  F   UNL     1      -1.340  12.232  20.657  0.00  0.00    -0.168 F 
ENDBRANCH   6  36
BRANCH   6  40
ATOM     40  O   UNL     1       0.954  12.345  18.188  0.00  0.00    -0.380 OA
ATOM     41  H   UNL     1       0.389  12.709  17.483  0.00  0.00    +0.211 HD
ENDBRANCH   6  40
TORSDOF 4
ENDMDL
MODEL 5
REMARK VINA RESULT:    -7.237      2.167      3.328
REMARK INTER + INTRA:          -8.609
REMARK INTER:                  -8.962
REMARK INTRA:                   0.354
REMARK UNBOUND:                -0.102
REMARK  Name = 
REMARK  4 active torsions:
REMARK  status: ('A' for Active; 'I' for Inactive)
REMARK    1  A    between atoms: C_1  and  C_2
REMARK    2  A    between atoms: C_7  and  C_8
REMARK    3  A    between atoms: C_13  and  O_14
REMARK    4  A    between atoms: C_13  and  C_15
REMARK                            x       y       z     vdW  Elec       q    Type
REMARK                         _______ _______ _______ _____ _____    ______ ____
ROOT
ATOM      1  C   UNL     1       2.734   6.005  19.222  0.00  0.00    +0.265 C 
ATOM      2  O   UNL     1       2.437   5.025  19.910  0.00  0.00    -0.268 OA
ATOM      3  N   UNL     1       3.676   5.913  18.188  0.00  0.00    -0.296 N 
ATOM      4  C   UNL     1       4.279   7.066  17.518  0.00  0.00    +0.018 C 
ATOM      5  C   UNL     1       5.661   6.746  16.960  0.00  0.00    +0.000 C 
ATOM      6  C   UNL     1       5.630   5.547  15.991  0.00  0.00    +0.163 C 
ATOM      7  C   UNL     1       4.523   4.535  16.344  0.00  0.00    +0.000 C 
ATOM      8  C   UNL     1       4.165   4.587  17.822  0.00  0.00    +0.018 C 
ATOM      9  H   UNL     1       3.606   7.370  16.708  0.00  0.00    +0.047 HD
ATOM     10  H   UNL     1       4.372   7.897  18.227  0.00  0.00    +0.047 HD
ATOM     11  H   UNL     1       6.062   7.634  16.456  0.00  0.00    +0.031 HD
ATOM     12  H   UNL     1       6.322   6.531  17.809  0.00  0.00    +0.031 HD
ATOM     13  H   UNL     1       4.824   3.516  16.071  0.00  0.00    +0.031 HD
ATOM     14  H   UNL     1       3.619   4.741  15.755  0.00  0.00    +0.031 HD
ATOM     15  H   UNL     1       3.401   3.833  18.041  0.00  0.00    +0.047 HD
ATOM     16  H   UNL     1       5.033   4.366  18.452  0.00  0.00    +0.047 HD
ENDROOT
BRANCH   1  22
ATOM     17  C   UNL     1      -0.242  11.146  21.740  0.00  0.00    -0.050 A 
ATOM     18  C   UNL     1      -0.079  10.141  22.693  0.00  0.00    -0.057 A 
ATOM     19  C   UNL     1       0.537   8.933  22.348  0.00  0.00    -0.035 A 
ATOM     20  C   UNL     1       1.011   8.695  21.067  0.00  0.00    +0.072 A 
ATOM     21  N   UNL     1       1.592   7.515  20.789  0.00  0.00    -0.242 NA
ATOM     22  C   UNL     1       2.046   7.308  19.525  0.00  0.00    +0.126 A 
ATOM     23  C   UNL     1       1.957   8.260  18.519  0.00  0.00    -0.031 A 
ATOM     24  C   UNL     1       1.352   9.477  18.814  0.00  0.00    -0.050 A 
ATOM     25  C   UNL     1       0.863   9.715  20.103  0.00  0.00    +0.001 A 
ATOM     26  C   UNL     1       0.245  10.931  20.446  0.00  0.00    -0.050 A 
ATOM     27  H   UNL     1      -0.427  10.287  23.714  0.00  0.00    +0.062 HD
ATOM     28  H   UNL     1       0.653   8.161  23.105  0.00  0.00    +0.064 HD
ATOM     29  H   UNL     1       2.352   8.063  17.527  0.00  0.00    +0.064 HD
ATOM     30  H   UNL     1       1.270  10.234  18.037  0.00  0.00    +0.062 HD
ATOM     31  H   UNL     1       0.142  11.715  19.698  0.00  0.00    +0.063 HD
BRANCH  17  32
ATOM     32  C   UNL     1      -0.869  12.458  22.110  0.00  0.00    -0.040 C 
ATOM     33  H   UNL     1      -1.045  13.071  21.220  0.00  0.00    +0.028 HD
ATOM     34  H   UNL     1      -0.212  13.031  22.773  0.00  0.00    +0.028 HD
ATOM     35  H   UNL     1      -1.823  12.287  22.617  0.00  0.00    +0.028 HD
ENDBRANCH  17  32
ENDBRANCH   1  22
BRANCH   6  36
ATOM     36  C   UNL     1       7.014   4.849  16.021  0.00  0.00    +0.418 C 
ATOM     37  F   UNL     1       6.884   3.508  15.876  0.00  0.00    -0.168 F 
ATOM     38  F   UNL     1       7.658   5.063  17.192  0.00  0.00    -0.168 F 
ATOM     39  F   UNL     1       7.818   5.281  15.024  0.00  0.00    -0.168 F 
ENDBRANCH   6  36
BRANCH   6  40
ATOM     40  O   UNL     1       5.353   6.054  14.663  0.00  0.00    -0.380 OA
ATOM     41  H   UNL     1       6.177   6.410  14.286  0.00  0.00    +0.211 HD
ENDBRANCH   6  40
TORSDOF 4
ENDMDL
MODEL 6
REMARK VINA RESULT:    -7.096      5.178      8.346
REMARK INTER + INTRA:          -8.443
REMARK INTER:                  -8.254
REMARK INTRA:                  -0.189
REMARK UNBOUND:                -0.102
REMARK  Name = 
REMARK  4 active torsions:
REMARK  status: ('A' for Active; 'I' for Inactive)
REMARK    1  A    between atoms: C_1  and  C_2
REMARK    2  A    between atoms: C_7  and  C_8
REMARK    3  A    between atoms: C_13  and  O_14
REMARK    4  A    between atoms: C_13  and  C_15
REMARK                            x       y       z     vdW  Elec       q    Type
REMARK                         _______ _______ _______ _____ _____    ______ ____
ROOT
ATOM      1  C   UNL     1       0.227   9.858  20.150  0.00  0.00    +0.265 C 
ATOM      2  O   UNL     1       0.368  10.440  21.229  0.00  0.00    -0.268 OA
ATOM      3  N   UNL     1      -0.739  10.267  19.220  0.00  0.00    -0.296 N 
ATOM      4  C   UNL     1      -1.153   9.476  18.060  0.00  0.00    +0.018 C 
ATOM      5  C   UNL     1      -2.581   9.793  17.631  0.00  0.00    +0.000 C 
ATOM      6  C   UNL     1      -2.776  11.292  17.327  0.00  0.00    +0.163 C 
ATOM      7  C   UNL     1      -1.848  12.187  18.172  0.00  0.00    +0.000 C 
ATOM      8  C   UNL     1      -1.454  11.513  19.479  0.00  0.00    +0.018 C 
ATOM      9  H   UNL     1      -0.456   9.696  17.243  0.00  0.00    +0.047 HD
ATOM     10  H   UNL     1      -1.087   8.410  18.299  0.00  0.00    +0.047 HD
ATOM     11  H   UNL     1      -2.836   9.188  16.752  0.00  0.00    +0.031 HD
ATOM     12  H   UNL     1      -3.250   9.480  18.443  0.00  0.00    +0.031 HD
ATOM     13  H   UNL     1      -2.324  13.154  18.382  0.00  0.00    +0.031 HD
ATOM     14  H   UNL     1      -0.936  12.426  17.610  0.00  0.00    +0.031 HD
ATOM     15  H   UNL     1      -0.825  12.191  20.065  0.00  0.00    +0.047 HD
ATOM     16  H   UNL     1      -2.334  11.274  20.087  0.00  0.00    +0.047 HD
ENDROOT
BRANCH   1  22
ATOM     17  C   UNL     1       4.517   5.592  17.908  0.00  0.00    -0.050 A 
ATOM     18  C   UNL     1       4.420   6.700  17.065  0.00  0.00    -0.057 A 
ATOM     19  C   UNL     1       3.534   7.741  17.366  0.00  0.00    -0.035 A 
ATOM     20  C   UNL     1       2.738   7.718  18.501  0.00  0.00    +0.072 A 
ATOM     21  N   UNL     1       1.902   8.743  18.740  0.00  0.00    -0.242 NA
ATOM     22  C   UNL     1       1.132   8.693  19.859  0.00  0.00    +0.126 A 
ATOM     23  C   UNL     1       1.184   7.648  20.771  0.00  0.00    -0.031 A 
ATOM     24  C   UNL     1       2.048   6.590  20.515  0.00  0.00    -0.050 A 
ATOM     25  C   UNL     1       2.845   6.607  19.365  0.00  0.00    +0.001 A 
ATOM     26  C   UNL     1       3.733   5.558  19.067  0.00  0.00    -0.050 A 
ATOM     27  H   UNL     1       5.031   6.766  16.168  0.00  0.00    +0.062 HD
ATOM     28  H   UNL     1       3.471   8.594  16.695  0.00  0.00    +0.064 HD
ATOM     29  H   UNL     1       0.567   7.657  21.665  0.00  0.00    +0.064 HD
ATOM     30  H   UNL     1       2.099   5.761  21.218  0.00  0.00    +0.062 HD
ATOM     31  H   UNL     1       3.815   4.709  19.743  0.00  0.00    +0.063 HD
BRANCH  17  32
ATOM     32  C   UNL     1       5.489   4.489  17.612  0.00  0.00    -0.040 C 
ATOM     33  H   UNL     1       6.221   4.804  16.861  0.00  0.00    +0.028 HD
ATOM     34  H   UNL     1       4.972   3.611  17.211  0.00  0.00    +0.028 HD
ATOM     35  H   UNL     1       6.020   4.203  18.526  0.00  0.00    +0.028 HD
ENDBRANCH  17  32
ENDBRANCH   1  22
BRANCH   6  36
ATOM     36  C   UNL     1      -4.257  11.664  17.594  0.00  0.00    +0.418 C 
ATOM     37  F   UNL     1      -4.997  10.556  17.844  0.00  0.00    -0.168 F 
ATOM     38  F   UNL     1      -4.817  12.286  16.530  0.00  0.00    -0.168 F 
ATOM     39  F   UNL     1      -4.388  12.479  18.664  0.00  0.00    -0.168 F 
ENDBRANCH   6  36
BRANCH   6  40
ATOM     40  O   UNL     1      -2.446  11.511  15.935  0.00  0.00    -0.380 OA
ATOM     41  H   UNL     1      -3.245  11.812  15.467  0.00  0.00    +0.211 HD
ENDBRANCH   6  40
TORSDOF 4
ENDMDL
MODEL 7
REMARK VINA RESULT:    -6.953      2.216      3.734
REMARK INTER + INTRA:          -8.275
REMARK INTER:                  -8.365
REMARK INTRA:                   0.090
REMARK UNBOUND:                -0.102
REMARK  Name = 
REMARK  4 active torsions:
REMARK  status: ('A' for Active; 'I' for Inactive)
REMARK    1  A    between atoms: C_1  and  C_2
REMARK    2  A    between atoms: C_7  and  C_8
REMARK    3  A    between atoms: C_13  and  O_14
REMARK    4  A    between atoms: C_13  and  C_15
REMARK                            x       y       z     vdW  Elec       q    Type
REMARK                         _______ _______ _______ _____ _____    ______ ____
ROOT
ATOM      1  C   UNL     1       2.609   5.780  19.257  0.00  0.00    +0.265 C 
ATOM      2  O   UNL     1       2.194   4.734  19.764  0.00  0.00    -0.268 OA
ATOM      3  N   UNL     1       3.583   5.765  18.248  0.00  0.00    -0.296 N 
ATOM      4  C   UNL     1       4.318   6.947  17.796  0.00  0.00    +0.018 C 
ATOM      5  C   UNL     1       5.688   6.587  17.231  0.00  0.00    +0.000 C 
ATOM      6  C   UNL     1       5.588   5.570  16.076  0.00  0.00    +0.163 C 
ATOM      7  C   UNL     1       4.377   4.629  16.225  0.00  0.00    +0.000 C 
ATOM      8  C   UNL     1       3.962   4.474  17.681  0.00  0.00    +0.018 C 
ATOM      9  H   UNL     1       3.712   7.443  17.030  0.00  0.00    +0.047 HD
ATOM     10  H   UNL     1       4.457   7.637  18.635  0.00  0.00    +0.047 HD
ATOM     11  H   UNL     1       6.191   7.501  16.893  0.00  0.00    +0.031 HD
ATOM     12  H   UNL     1       6.289   6.172  18.050  0.00  0.00    +0.031 HD
ATOM     13  H   UNL     1       4.594   3.643  15.795  0.00  0.00    +0.031 HD
ATOM     14  H   UNL     1       3.523   5.016  15.654  0.00  0.00    +0.031 HD
ATOM     15  H   UNL     1       3.123   3.774  17.751  0.00  0.00    +0.047 HD
ATOM     16  H   UNL     1       4.778   4.069  18.290  0.00  0.00    +0.047 HD
ENDROOT
BRANCH   1  22
ATOM     17  C   UNL     1       0.193  11.697  20.137  0.00  0.00    -0.050 A 
ATOM     18  C   UNL     1       0.596  11.508  18.815  0.00  0.00    -0.057 A 
ATOM     19  C   UNL     1       1.160  10.292  18.414  0.00  0.00    -0.035 A 
ATOM     20  C   UNL     1       1.328   9.238  19.300  0.00  0.00    +0.072 A 
ATOM     21  N   UNL     1       1.878   8.092  18.863  0.00  0.00    -0.242 NA
ATOM     22  C   UNL     1       2.033   7.077  19.753  0.00  0.00    +0.126 A 
ATOM     23  C   UNL     1       1.633   7.161  21.080  0.00  0.00    -0.031 A 
ATOM     24  C   UNL     1       1.068   8.351  21.525  0.00  0.00    -0.050 A 
ATOM     25  C   UNL     1       0.907   9.418  20.635  0.00  0.00    +0.001 A 
ATOM     26  C   UNL     1       0.340  10.640  21.042  0.00  0.00    -0.050 A 
ATOM     27  H   UNL     1       0.476  12.304  18.082  0.00  0.00    +0.062 HD
ATOM     28  H   UNL     1       1.470  10.165  17.380  0.00  0.00    +0.064 HD
ATOM     29  H   UNL     1       1.754   6.318  21.754  0.00  0.00    +0.064 HD
ATOM     30  H   UNL     1       0.752   8.436  22.562  0.00  0.00    +0.062 HD
ATOM     31  H   UNL     1       0.011  10.767  22.071  0.00  0.00    +0.063 HD
BRANCH  17  32
ATOM     32  C   UNL     1      -0.444  12.985  20.566  0.00  0.00    -0.040 C 
ATOM     33  H   UNL     1      -1.537  12.908  20.537  0.00  0.00    +0.028 HD
ATOM     34  H   UNL     1      -0.159  13.803  19.897  0.00  0.00    +0.028 HD
ATOM     35  H   UNL     1      -0.134  13.235  21.586  0.00  0.00    +0.028 HD
ENDBRANCH  17  32
ENDBRANCH   1  22
BRANCH   6  36
ATOM     36  C   UNL     1       6.899   4.744  16.028  0.00  0.00    +0.418 C 
ATOM     37  F   UNL     1       6.635   3.424  15.876  0.00  0.00    -0.168 F 
ATOM     38  F   UNL     1       7.618   4.879  17.166  0.00  0.00    -0.168 F 
ATOM     39  F   UNL     1       7.690   5.112  14.995  0.00  0.00    -0.168 F 
ENDBRANCH   6  36
BRANCH   6  40
ATOM     40  O   UNL     1       5.417   6.311  14.844  0.00  0.00    -0.380 OA
ATOM     41  H   UNL     1       4.724   6.982  14.976  0.00  0.00    +0.211 HD
ENDBRANCH   6  40
TORSDOF 4
ENDMDL
MODEL 8
REMARK VINA RESULT:    -6.930      5.029      8.269
REMARK INTER + INTRA:          -8.248
REMARK INTER:                  -8.301
REMARK INTRA:                   0.054
REMARK UNBOUND:                -0.102
REMARK  Name = 
REMARK  4 active torsions:
REMARK  status: ('A' for Active; 'I' for Inactive)
REMARK    1  A    between atoms: C_1  and  C_2
REMARK    2  A    between atoms: C_7  and  C_8
REMARK    3  A    between atoms: C_13  and  O_14
REMARK    4  A    between atoms: C_13  and  C_15
REMARK                            x       y       z     vdW  Elec       q    Type
REMARK                         _______ _______ _______ _____ _____    ______ ____
ROOT
ATOM      1  C   UNL     1       1.296   8.811  21.021  0.00  0.00    +0.265 C 
ATOM      2  O   UNL     1       1.636   8.908  22.203  0.00  0.00    -0.268 OA
ATOM      3  N   UNL     1       0.507   9.793  20.405  0.00  0.00    -0.296 N 
ATOM      4  C   UNL     1      -0.160   9.623  19.114  0.00  0.00    +0.018 C 
ATOM      5  C   UNL     1      -1.408  10.491  18.996  0.00  0.00    +0.000 C 
ATOM      6  C   UNL     1      -1.099  11.984  19.223  0.00  0.00    +0.163 C 
ATOM      7  C   UNL     1       0.084  12.199  20.187  0.00  0.00    +0.000 C 
ATOM      8  C   UNL     1       0.249  11.026  21.143  0.00  0.00    +0.018 C 
ATOM      9  H   UNL     1       0.559   9.889  18.331  0.00  0.00    +0.047 HD
ATOM     10  H   UNL     1      -0.449   8.575  18.984  0.00  0.00    +0.047 HD
ATOM     11  H   UNL     1      -1.862  10.339  18.009  0.00  0.00    +0.031 HD
ATOM     12  H   UNL     1      -2.133  10.136  19.741  0.00  0.00    +0.031 HD
ATOM     13  H   UNL     1      -0.042  13.128  20.757  0.00  0.00    +0.031 HD
ATOM     14  H   UNL     1       1.016  12.326  19.621  0.00  0.00    +0.031 HD
ATOM     15  H   UNL     1       1.076  11.230  21.832  0.00  0.00    +0.047 HD
ATOM     16  H   UNL     1      -0.651  10.872  21.747  0.00  0.00    +0.047 HD
ENDROOT
BRANCH   1  22
ATOM     17  C   UNL     1       2.728   2.963  18.702  0.00  0.00    -0.050 A 
ATOM     18  C   UNL     1       2.129   2.874  19.959  0.00  0.00    -0.057 A 
ATOM     19  C   UNL     1       1.749   4.033  20.644  0.00  0.00    -0.035 A 
ATOM     20  C   UNL     1       1.940   5.296  20.105  0.00  0.00    +0.072 A 
ATOM     21  N   UNL     1       1.559   6.377  20.807  0.00  0.00    -0.242 NA
ATOM     22  C   UNL     1       1.760   7.603  20.255  0.00  0.00    +0.126 A 
ATOM     23  C   UNL     1       2.318   7.788  18.998  0.00  0.00    -0.031 A 
ATOM     24  C   UNL     1       2.713   6.666  18.279  0.00  0.00    -0.050 A 
ATOM     25  C   UNL     1       2.530   5.391  18.826  0.00  0.00    +0.001 A 
ATOM     26  C   UNL     1       2.915   4.228  18.134  0.00  0.00    -0.050 A 
ATOM     27  H   UNL     1       1.951   1.904  20.418  0.00  0.00    +0.062 HD
ATOM     28  H   UNL     1       1.286   3.943  21.624  0.00  0.00    +0.064 HD
ATOM     29  H   UNL     1       2.442   8.784  18.583  0.00  0.00    +0.064 HD
ATOM     30  H   UNL     1       3.155   6.792  17.294  0.00  0.00    +0.062 HD
ATOM     31  H   UNL     1       3.362   4.310  17.145  0.00  0.00    +0.063 HD
BRANCH  17  32
ATOM     32  C   UNL     1       3.107   1.724  17.945  0.00  0.00    -0.040 C 
ATOM     33  H   UNL     1       2.367   1.501  17.168  0.00  0.00    +0.028 HD
ATOM     34  H   UNL     1       3.147   0.857  18.612  0.00  0.00    +0.028 HD
ATOM     35  H   UNL     1       4.086   1.858  17.475  0.00  0.00    +0.028 HD
ENDBRANCH  17  32
ENDBRANCH   1  22
BRANCH   6  36
ATOM     36  C   UNL     1      -2.370  12.675  19.781  0.00  0.00    +0.418 C 
ATOM     37  F   UNL     1      -2.686  12.190  21.007  0.00  0.00    -0.168 F 
ATOM     38  F   UNL     1      -3.443  12.471  18.982  0.00  0.00    -0.168 F 
ATOM     39  F   UNL     1      -2.201  14.010  19.913  0.00  0.00    -0.168 F 
ENDBRANCH   6  36
BRANCH   6  40
ATOM     40  O   UNL     1      -0.734  12.562  17.946  0.00  0.00    -0.380 OA
ATOM     41  H   UNL     1      -0.866  13.525  17.989  0.00  0.00    +0.211 HD
ENDBRANCH   6  40
TORSDOF 4
ENDMDL
MODEL 9
REMARK VINA RESULT:    -6.822      1.173      2.212
REMARK INTER + INTRA:          -8.121
REMARK INTER:                  -7.972
REMARK INTRA:                  -0.149
REMARK UNBOUND:                -0.102
REMARK  Name = 
REMARK  4 active torsions:
REMARK  status: ('A' for Active; 'I' for Inactive)
REMARK    1  A    between atoms: C_1  and  C_2
REMARK    2  A    between atoms: C_7  and  C_8
REMARK    3  A    between atoms: C_13  and  O_14
REMARK    4  A    between atoms: C_13  and  C_15
REMARK                            x       y       z     vdW  Elec       q    Type
REMARK                         _______ _______ _______ _____ _____    ______ ____
ROOT
ATOM      1  C   UNL     1       2.928   7.508  18.147  0.00  0.00    +0.265 C 
ATOM      2  O   UNL     1       3.773   8.009  17.401  0.00  0.00    -0.268 OA
ATOM      3  N   UNL     1       2.937   6.137  18.443  0.00  0.00    -0.296 N 
ATOM      4  C   UNL     1       1.830   5.425  19.082  0.00  0.00    +0.018 C 
ATOM      5  C   UNL     1       1.801   3.950  18.700  0.00  0.00    +0.000 C 
ATOM      6  C   UNL     1       3.129   3.240  19.033  0.00  0.00    +0.163 C 
ATOM      7  C   UNL     1       4.339   4.190  18.949  0.00  0.00    +0.000 C 
ATOM      8  C   UNL     1       4.080   5.347  17.995  0.00  0.00    +0.018 C 
ATOM      9  H   UNL     1       1.947   5.532  20.166  0.00  0.00    +0.047 HD
ATOM     10  H   UNL     1       0.879   5.882  18.786  0.00  0.00    +0.047 HD
ATOM     11  H   UNL     1       0.966   3.459  19.215  0.00  0.00    +0.031 HD
ATOM     12  H   UNL     1       1.597   3.887  17.623  0.00  0.00    +0.031 HD
ATOM     13  H   UNL     1       5.240   3.646  18.636  0.00  0.00    +0.031 HD
ATOM     14  H   UNL     1       4.572   4.596  19.941  0.00  0.00    +0.031 HD
ATOM     15  H   UNL     1       4.972   5.979  17.935  0.00  0.00    +0.047 HD
ATOM     16  H   UNL     1       3.863   4.990  16.982  0.00  0.00    +0.047 HD
ENDROOT
BRANCH   1  22
ATOM     17  C   UNL     1      -1.961  11.511  19.446  0.00  0.00    -0.050 A 
ATOM     18  C   UNL     1      -1.824  11.313  18.072  0.00  0.00    -0.057 A 
ATOM     19  C   UNL     1      -0.812  10.483  17.576  0.00  0.00    -0.035 A 
ATOM     20  C   UNL     1       0.074   9.828  18.417  0.00  0.00    +0.072 A 
ATOM     21  N   UNL     1       1.029   9.045  17.887  0.00  0.00    -0.242 NA
ATOM     22  C   UNL     1       1.885   8.417  18.735  0.00  0.00    +0.126 A 
ATOM     23  C   UNL     1       1.806   8.529  20.116  0.00  0.00    -0.031 A 
ATOM     24  C   UNL     1       0.817   9.342  20.658  0.00  0.00    -0.050 A 
ATOM     25  C   UNL     1      -0.071  10.013  19.809  0.00  0.00    +0.001 A 
ATOM     26  C   UNL     1      -1.087  10.846  20.313  0.00  0.00    -0.050 A 
ATOM     27  H   UNL     1      -2.502  11.799  17.374  0.00  0.00    +0.062 HD
ATOM     28  H   UNL     1      -0.720  10.343  16.501  0.00  0.00    +0.064 HD
ATOM     29  H   UNL     1       2.496   7.992  20.761  0.00  0.00    +0.064 HD
ATOM     30  H   UNL     1       0.742   9.445  21.738  0.00  0.00    +0.062 HD
ATOM     31  H   UNL     1      -1.197  10.976  21.388  0.00  0.00    +0.063 HD
BRANCH  17  32
ATOM     32  C   UNL     1      -3.065  12.370  19.989  0.00  0.00    -0.040 C 
ATOM     33  H   UNL     1      -3.063  12.362  21.085  0.00  0.00    +0.028 HD
ATOM     34  H   UNL     1      -4.043  12.000  19.664  0.00  0.00    +0.028 HD
ATOM     35  H   UNL     1      -2.942  13.401  19.642  0.00  0.00    +0.028 HD
ENDBRANCH  17  32
ENDBRANCH   1  22
BRANCH   6  36
ATOM     36  C   UNL     1       3.317   2.054  18.053  0.00  0.00    +0.418 C 
ATOM     37  F   UNL     1       3.617   0.914  18.722  0.00  0.00    -0.168 F 
ATOM     38  F   UNL     1       4.324   2.281  17.178  0.00  0.00    -0.168 F 
ATOM     39  F   UNL     1       2.196   1.810  17.337  0.00  0.00    -0.168 F 
ENDBRANCH   6  36
BRANCH   6  40
ATOM     40  O   UNL     1       3.046   2.756  20.395  0.00  0.00    -0.380 OA
ATOM     41  H   UNL     1       2.269   2.175  20.475  0.00  0.00    +0.211 HD
ENDBRANCH   6  40
TORSDOF 4
ENDMDL
MODEL 10
REMARK VINA RESULT:    -6.738      4.611      6.277
REMARK INTER + INTRA:          -8.022
REMARK INTER:                  -7.688
REMARK INTRA:                  -0.334
REMARK UNBOUND:                -0.102
REMARK  Name = 
REMARK  4 active torsions:
REMARK  status: ('A' for Active; 'I' for Inactive)
REMARK    1  A    between atoms: C_1  and  C_2
REMARK    2  A    between atoms: C_7  and  C_8
REMARK    3  A    between atoms: C_13  and  O_14
REMARK    4  A    between atoms: C_13  and  C_15
REMARK                            x       y       z     vdW  Elec       q    Type
REMARK                         _______ _______ _______ _____ _____    ______ ____
ROOT
ATOM      1  C   UNL     1       5.742   4.677  17.156  0.00  0.00    +0.265 C 
ATOM      2  O   UNL     1       5.958   4.247  16.020  0.00  0.00    -0.268 OA
ATOM      3  N   UNL     1       4.678   4.194  17.930  0.00  0.00    -0.296 N 
ATOM      4  C   UNL     1       4.192   4.834  19.154  0.00  0.00    +0.018 C 
ATOM      5  C   UNL     1       2.719   4.537  19.409  0.00  0.00    +0.000 C 
ATOM      6  C   UNL     1       2.435   3.023  19.473  0.00  0.00    +0.163 C 
ATOM      7  C   UNL     1       3.399   2.207  18.589  0.00  0.00    +0.000 C 
ATOM      8  C   UNL     1       3.939   3.037  17.433  0.00  0.00    +0.018 C 
ATOM      9  H   UNL     1       4.801   4.463  19.987  0.00  0.00    +0.047 HD
ATOM     10  H   UNL     1       4.323   5.918  19.079  0.00  0.00    +0.047 HD
ATOM     11  H   UNL     1       2.409   5.024  20.342  0.00  0.00    +0.031 HD
ATOM     12  H   UNL     1       2.141   4.997  18.597  0.00  0.00    +0.031 HD
ATOM     13  H   UNL     1       2.905   1.307  18.201  0.00  0.00    +0.031 HD
ATOM     14  H   UNL     1       4.245   1.843  19.187  0.00  0.00    +0.031 HD
ATOM     15  H   UNL     1       4.591   2.416  16.810  0.00  0.00    +0.047 HD
ATOM     16  H   UNL     1       3.130   3.407  16.793  0.00  0.00    +0.047 HD
ENDROOT
BRANCH   1  22
ATOM     17  C   UNL     1       9.007  10.027  18.686  0.00  0.00    -0.050 A 
ATOM     18  C   UNL     1       8.068  10.279  17.685  0.00  0.00    -0.057 A 
ATOM     19  C   UNL     1       7.259   9.245  17.200  0.00  0.00    -0.035 A 
ATOM     20  C   UNL     1       7.351   7.953  17.693  0.00  0.00    +0.072 A 
ATOM     21  N   UNL     1       6.552   6.997  17.189  0.00  0.00    -0.242 NA
ATOM     22  C   UNL     1       6.664   5.739  17.690  0.00  0.00    +0.126 A 
ATOM     23  C   UNL     1       7.546   5.401  18.707  0.00  0.00    -0.031 A 
ATOM     24  C   UNL     1       8.371   6.395  19.222  0.00  0.00    -0.050 A 
ATOM     25  C   UNL     1       8.287   7.697  18.717  0.00  0.00    +0.001 A 
ATOM     26  C   UNL     1       9.103   8.733  19.209  0.00  0.00    -0.050 A 
ATOM     27  H   UNL     1       7.954  11.280  17.274  0.00  0.00    +0.062 HD
ATOM     28  H   UNL     1       6.536   9.461  16.417  0.00  0.00    +0.064 HD
ATOM     29  H   UNL     1       7.589   4.388  19.095  0.00  0.00    +0.064 HD
ATOM     30  H   UNL     1       9.070   6.148  20.017  0.00  0.00    +0.062 HD
ATOM     31  H   UNL     1       9.817   8.529  20.004  0.00  0.00    +0.063 HD
BRANCH  17  32
ATOM     32  C   UNL     1       9.853  11.137  19.238  0.00  0.00    -0.040 C 
ATOM     33  H   UNL     1       9.274  11.764  19.926  0.00  0.00    +0.028 HD
ATOM     34  H   UNL     1      10.216  11.787  18.435  0.00  0.00    +0.028 HD
ATOM     35  H   UNL     1      10.711  10.721  19.775  0.00  0.00    +0.028 HD
ENDBRANCH  17  32
ENDBRANCH   1  22
BRANCH   6  36
ATOM     36  C   UNL     1       0.971   2.773  19.030  0.00  0.00    +0.418 C 
ATOM     37  F   UNL     1       0.613   3.623  18.037  0.00  0.00    -0.168 F 
ATOM     38  F   UNL     1       0.101   2.960  20.049  0.00  0.00    -0.168 F 
ATOM     39  F   UNL     1       0.793   1.517  18.562  0.00  0.00    -0.168 F 
ENDBRANCH   6  36
BRANCH   6  40
ATOM     40  O   UNL     1       2.626   2.592  20.842  0.00  0.00    -0.380 OA
ATOM     41  H   UNL     1       2.089   3.156  21.426  0.00  0.00    +0.211 HD
ENDBRANCH   6  40
TORSDOF 4
ENDMDL
MODEL 11
REMARK VINA RESULT:    -6.691      4.880      8.325
REMARK INTER + INTRA:          -7.966
REMARK INTER:                  -7.880
REMARK INTRA:                  -0.086
REMARK UNBOUND:                -0.102
REMARK  Name = 
REMARK  4 active torsions:
REMARK  status: ('A' for Active; 'I' for Inactive)
REMARK    1  A    between atoms: C_1  and  C_2
REMARK    2  A    between atoms: C_7  and  C_8
REMARK    3  A    between atoms: C_13  and  O_14
REMARK    4  A    between atoms: C_13  and  C_15
REMARK                            x       y       z     vdW  Elec       q    Type
REMARK                         _______ _______ _______ _____ _____    ______ ____
ROOT
ATOM      1  C   UNL     1       1.367   8.445  20.812  0.00  0.00    +0.265 C 
ATOM      2  O   UNL     1       1.479   8.369  22.038  0.00  0.00    -0.268 OA
ATOM      3  N   UNL     1       0.686   9.511  20.207  0.00  0.00    -0.296 N 
ATOM      4  C   UNL     1       0.274   9.534  18.802  0.00  0.00    +0.018 C 
ATOM      5  C   UNL     1      -0.948  10.418  18.579  0.00  0.00    +0.000 C 
ATOM      6  C   UNL     1      -0.717  11.861  19.070  0.00  0.00    +0.163 C 
ATOM      7  C   UNL     1       0.261  11.926  20.259  0.00  0.00    +0.000 C 
ATOM      8  C   UNL     1       0.270  10.627  21.051  0.00  0.00    +0.018 C 
ATOM      9  H   UNL     1       1.120   9.905  18.213  0.00  0.00    +0.047 HD
ATOM     10  H   UNL     1       0.036   8.517  18.472  0.00  0.00    +0.047 HD
ATOM     11  H   UNL     1      -1.207  10.413  17.513  0.00  0.00    +0.031 HD
ATOM     12  H   UNL     1      -1.791   9.964  19.116  0.00  0.00    +0.031 HD
ATOM     13  H   UNL     1       0.013  12.764  20.923  0.00  0.00    +0.031 HD
ATOM     14  H   UNL     1       1.280  12.128  19.901  0.00  0.00    +0.031 HD
ATOM     15  H   UNL     1       0.950  10.723  21.905  0.00  0.00    +0.047 HD
ATOM     16  H   UNL     1      -0.724  10.393  21.449  0.00  0.00    +0.047 HD
ENDROOT
BRANCH   1  22
ATOM     17  C   UNL     1       4.667   4.757  16.674  0.00  0.00    -0.050 A 
ATOM     18  C   UNL     1       4.887   6.112  16.427  0.00  0.00    -0.057 A 
ATOM     19  C   UNL     1       4.253   7.085  17.209  0.00  0.00    -0.035 A 
ATOM     20  C   UNL     1       3.404   6.745  18.250  0.00  0.00    +0.072 A 
ATOM     21  N   UNL     1       2.819   7.719  18.968  0.00  0.00    -0.242 NA
ATOM     22  C   UNL     1       1.989   7.357  19.982  0.00  0.00    +0.126 A 
ATOM     23  C   UNL     1       1.735   6.036  20.321  0.00  0.00    -0.031 A 
ATOM     24  C   UNL     1       2.342   5.033  19.573  0.00  0.00    -0.050 A 
ATOM     25  C   UNL     1       3.191   5.375  18.514  0.00  0.00    +0.001 A 
ATOM     26  C   UNL     1       3.826   4.394  17.731  0.00  0.00    -0.050 A 
ATOM     27  H   UNL     1       5.553   6.427  15.625  0.00  0.00    +0.062 HD
ATOM     28  H   UNL     1       4.436   8.136  16.998  0.00  0.00    +0.064 HD
ATOM     29  H   UNL     1       1.082   5.788  21.153  0.00  0.00    +0.064 HD
ATOM     30  H   UNL     1       2.152   3.992  19.823  0.00  0.00    +0.062 HD
ATOM     31  H   UNL     1       3.663   3.339  17.947  0.00  0.00    +0.063 HD
BRANCH  17  32
ATOM     32  C   UNL     1       5.370   3.708  15.864  0.00  0.00    -0.040 C 
ATOM     33  H   UNL     1       4.658   2.966  15.484  0.00  0.00    +0.028 HD
ATOM     34  H   UNL     1       6.103   3.170  16.473  0.00  0.00    +0.028 HD
ATOM     35  H   UNL     1       5.884   4.171  15.016  0.00  0.00    +0.028 HD
ENDBRANCH  17  32
ENDBRANCH   1  22
BRANCH   6  36
ATOM     36  C   UNL     1      -2.083  12.472  19.474  0.00  0.00    +0.418 C 
ATOM     37  F   UNL     1      -3.006  12.284  18.499  0.00  0.00    -0.168 F 
ATOM     38  F   UNL     1      -1.993  13.805  19.687  0.00  0.00    -0.168 F 
ATOM     39  F   UNL     1      -2.575  11.907  20.600  0.00  0.00    -0.168 F 
ENDBRANCH   6  36
BRANCH   6  40
ATOM     40  O   UNL     1      -0.133  12.614  17.980  0.00  0.00    -0.380 OA
ATOM     41  H   UNL     1      -0.640  12.435  17.169  0.00  0.00    +0.211 HD
ENDBRANCH   6  40
TORSDOF 4
ENDMDL
MODEL 12
REMARK VINA RESULT:    -6.591      5.270      8.551
REMARK INTER + INTRA:          -7.849
REMARK INTER:                  -8.142
REMARK INTRA:                   0.292
REMARK UNBOUND:                -0.102
REMARK  Name = 
REMARK  4 active torsions:
REMARK  status: ('A' for Active; 'I' for Inactive)
REMARK    1  A    between atoms: C_1  and  C_2
REMARK    2  A    between atoms: C_7  and  C_8
REMARK    3  A    between atoms: C_13  and  O_14
REMARK    4  A    between atoms: C_13  and  C_15
REMARK                            x       y       z     vdW  Elec       q    Type
REMARK                         _______ _______ _______ _____ _____    ______ ____
ROOT
ATOM      1  C   UNL     1       0.799   9.331  21.252  0.00  0.00    +0.265 C 
ATOM      2  O   UNL     1       1.027   9.230  22.460  0.00  0.00    -0.268 OA
ATOM      3  N   UNL     1      -0.057  10.323  20.752  0.00  0.00    -0.296 N 
ATOM      4  C   UNL     1      -0.591  10.339  19.389  0.00  0.00    +0.018 C 
ATOM      5  C   UNL     1      -1.927  11.070  19.306  0.00  0.00    +0.000 C 
ATOM      6  C   UNL     1      -1.831  12.514  19.838  0.00  0.00    +0.163 C 
ATOM      7  C   UNL     1      -0.767  12.663  20.942  0.00  0.00    +0.000 C 
ATOM      8  C   UNL     1      -0.530  11.350  21.675  0.00  0.00    +0.018 C 
ATOM      9  H   UNL     1       0.148  10.832  18.748  0.00  0.00    +0.047 HD
ATOM     10  H   UNL     1      -0.732   9.312  19.037  0.00  0.00    +0.047 HD
ATOM     11  H   UNL     1      -2.276  11.068  18.266  0.00  0.00    +0.031 HD
ATOM     12  H   UNL     1      -2.657  10.497  19.893  0.00  0.00    +0.031 HD
ATOM     13  H   UNL     1      -1.056  13.441  21.660  0.00  0.00    +0.031 HD
ATOM     14  H   UNL     1       0.184  13.002  20.510  0.00  0.00    +0.031 HD
ATOM     15  H   UNL     1       0.205  11.503  22.473  0.00  0.00    +0.047 HD
ATOM     16  H   UNL     1      -1.449  10.982  22.144  0.00  0.00    +0.047 HD
ENDROOT
BRANCH   1  22
ATOM     17  C   UNL     1       3.407   4.280  18.202  0.00  0.00    -0.050 A 
ATOM     18  C   UNL     1       2.964   3.926  19.476  0.00  0.00    -0.057 A 
ATOM     19  C   UNL     1       2.375   4.882  20.311  0.00  0.00    -0.035 A 
ATOM     20  C   UNL     1       2.200   6.196  19.906  0.00  0.00    +0.072 A 
ATOM     21  N   UNL     1       1.630   7.075  20.749  0.00  0.00    -0.242 NA
ATOM     22  C   UNL     1       1.473   8.357  20.327  0.00  0.00    +0.126 A 
ATOM     23  C   UNL     1       1.853   8.794  19.066  0.00  0.00    -0.031 A 
ATOM     24  C   UNL     1       2.445   7.881  18.200  0.00  0.00    -0.050 A 
ATOM     25  C   UNL     1       2.631   6.556  18.611  0.00  0.00    +0.001 A 
ATOM     26  C   UNL     1       3.225   5.598  17.769  0.00  0.00    -0.050 A 
ATOM     27  H   UNL     1       3.072   2.904  19.834  0.00  0.00    +0.062 HD
ATOM     28  H   UNL     1       2.039   4.586  21.302  0.00  0.00    +0.064 HD
ATOM     29  H   UNL     1       1.690   9.824  18.758  0.00  0.00    +0.064 HD
ATOM     30  H   UNL     1       2.752   8.206  17.209  0.00  0.00    +0.062 HD
ATOM     31  H   UNL     1       3.547   5.882  16.769  0.00  0.00    +0.063 HD
BRANCH  17  32
ATOM     32  C   UNL     1       4.008   3.254  17.287  0.00  0.00    -0.040 C 
ATOM     33  H   UNL     1       3.446   2.314  17.333  0.00  0.00    +0.028 HD
ATOM     34  H   UNL     1       5.039   3.029  17.578  0.00  0.00    +0.028 HD
ATOM     35  H   UNL     1       4.000   3.621  16.256  0.00  0.00    +0.028 HD
ENDBRANCH  17  32
ENDBRANCH   1  22
BRANCH   6  36
ATOM     36  C   UNL     1      -3.220  12.936  20.380  0.00  0.00    +0.418 C 
ATOM     37  F   UNL     1      -4.204  12.592  19.514  0.00  0.00    -0.168 F 
ATOM     38  F   UNL     1      -3.301  14.274  20.565  0.00  0.00    -0.168 F 
ATOM     39  F   UNL     1      -3.503  12.339  21.560  0.00  0.00    -0.168 F 
ENDBRANCH   6  36
BRANCH   6  40
ATOM     40  O   UNL     1      -1.441  13.369  18.736  0.00  0.00    -0.380 OA
ATOM     41  H   UNL     1      -2.241  13.642  18.254  0.00  0.00    +0.211 HD
ENDBRANCH   6  40
TORSDOF 4
ENDMDL
MODEL 13
REMARK VINA RESULT:    -6.346      4.683      8.320
REMARK INTER + INTRA:          -7.561
REMARK INTER:                  -8.005
REMARK INTRA:                   0.444
REMARK UNBOUND:                -0.102
REMARK  Name = 
REMARK  4 active torsions:
REMARK  status: ('A' for Active; 'I' for Inactive)
REMARK    1  A    between atoms: C_1  and  C_2
REMARK    2  A    between atoms: C_7  and  C_8
REMARK    3  A    between atoms: C_13  and  O_14
REMARK    4  A    between atoms: C_13  and  C_15
REMARK                            x       y       z     vdW  Elec       q    Type
REMARK                         _______ _______ _______ _____ _____    ______ ____
ROOT
ATOM      1  C   UNL     1       1.590   7.818  20.099  0.00  0.00    +0.265 C 
ATOM      2  O   UNL     1       1.385   7.122  21.097  0.00  0.00    -0.268 OA
ATOM      3  N   UNL     1       0.977   9.070  19.945  0.00  0.00    -0.296 N 
ATOM      4  C   UNL     1       0.947   9.822  18.689  0.00  0.00    +0.018 C 
ATOM      5  C   UNL     1      -0.265  10.744  18.604  0.00  0.00    +0.000 C 
ATOM      6  C   UNL     1      -0.332  11.724  19.792  0.00  0.00    +0.163 C 
ATOM      7  C   UNL     1       0.288  11.135  21.074  0.00  0.00    +0.000 C 
ATOM      8  C   UNL     1       0.234   9.614  21.077  0.00  0.00    +0.018 C 
ATOM      9  H   UNL     1       1.871  10.408  18.630  0.00  0.00    +0.047 HD
ATOM     10  H   UNL     1       0.918   9.126  17.844  0.00  0.00    +0.047 HD
ATOM     11  H   UNL     1      -0.233  11.294  17.655  0.00  0.00    +0.031 HD
ATOM     12  H   UNL     1      -1.163  10.113  18.581  0.00  0.00    +0.031 HD
ATOM     13  H   UNL     1      -0.217  11.525  21.967  0.00  0.00    +0.031 HD
ATOM     14  H   UNL     1       1.335  11.450  21.169  0.00  0.00    +0.031 HD
ATOM     15  H   UNL     1       0.651   9.234  22.016  0.00  0.00    +0.047 HD
ATOM     16  H   UNL     1      -0.797   9.250  21.006  0.00  0.00    +0.047 HD
ENDROOT
BRANCH   1  22
ATOM     17  C   UNL     1       5.238   4.360  16.055  0.00  0.00    -0.050 A 
ATOM     18  C   UNL     1       4.601   3.539  16.987  0.00  0.00    -0.057 A 
ATOM     19  C   UNL     1       3.768   4.094  17.964  0.00  0.00    -0.035 A 
ATOM     20  C   UNL     1       3.538   5.460  18.039  0.00  0.00    +0.072 A 
ATOM     21  N   UNL     1       2.731   5.940  19.000  0.00  0.00    -0.242 NA
ATOM     22  C   UNL     1       2.525   7.282  19.051  0.00  0.00    +0.126 A 
ATOM     23  C   UNL     1       3.089   8.173  18.148  0.00  0.00    -0.031 A 
ATOM     24  C   UNL     1       3.925   7.669  17.158  0.00  0.00    -0.050 A 
ATOM     25  C   UNL     1       4.167   6.292  17.089  0.00  0.00    +0.001 A 
ATOM     26  C   UNL     1       5.005   5.739  16.104  0.00  0.00    -0.050 A 
ATOM     27  H   UNL     1       4.745   2.461  16.962  0.00  0.00    +0.062 HD
ATOM     28  H   UNL     1       3.283   3.438  18.683  0.00  0.00    +0.064 HD
ATOM     29  H   UNL     1       2.882   9.237  18.210  0.00  0.00    +0.064 HD
ATOM     30  H   UNL     1       4.379   8.352  16.444  0.00  0.00    +0.062 HD
ATOM     31  H   UNL     1       5.480   6.387  15.370  0.00  0.00    +0.063 HD
BRANCH  17  32
ATOM     32  C   UNL     1       6.104   3.770  14.981  0.00  0.00    -0.040 C 
ATOM     33  H   UNL     1       6.687   4.549  14.479  0.00  0.00    +0.028 HD
ATOM     34  H   UNL     1       5.495   3.278  14.216  0.00  0.00    +0.028 HD
ATOM     35  H   UNL     1       6.791   3.037  15.415  0.00  0.00    +0.028 HD
ENDBRANCH  17  32
ENDBRANCH   1  22
BRANCH   6  36
ATOM     36  C   UNL     1      -1.815  12.097  20.044  0.00  0.00    +0.418 C 
ATOM     37  F   UNL     1      -2.031  13.414  19.810  0.00  0.00    -0.168 F 
ATOM     38  F   UNL     1      -2.183  11.853  21.323  0.00  0.00    -0.168 F 
ATOM     39  F   UNL     1      -2.652  11.408  19.236  0.00  0.00    -0.168 F 
ENDBRANCH   6  36
BRANCH   6  40
ATOM     40  O   UNL     1       0.429  12.904  19.440  0.00  0.00    -0.380 OA
ATOM     41  H   UNL     1       1.258  12.906  19.951  0.00  0.00    +0.211 HD
ENDBRANCH   6  40
TORSDOF 4
ENDMDL
MODEL 14
REMARK VINA RESULT:    -6.133      6.414      9.540
REMARK INTER + INTRA:          -7.311
REMARK INTER:                  -7.892
REMARK INTRA:                   0.581
REMARK UNBOUND:                -0.102
REMARK  Name = 
REMARK  4 active torsions:
REMARK  status: ('A' for Active; 'I' for Inactive)
REMARK    1  A    between atoms: C_1  and  C_2
REMARK    2  A    between atoms: C_7  and  C_8
REMARK    3  A    between atoms: C_13  and  O_14
REMARK    4  A    between atoms: C_13  and  C_15
REMARK                            x       y       z     vdW  Elec       q    Type
REMARK                         _______ _______ _______ _____ _____    ______ ____
ROOT
ATOM      1  C   UNL     1      -1.018  11.469  19.897  0.00  0.00    +0.265 C 
ATOM      2  O   UNL     1      -1.131  12.084  18.833  0.00  0.00    -0.268 OA
ATOM      3  N   UNL     1      -1.688  11.887  21.055  0.00  0.00    -0.296 N 
ATOM      4  C   UNL     1      -1.397  11.389  22.400  0.00  0.00    +0.018 C 
ATOM      5  C   UNL     1      -1.746  12.410  23.477  0.00  0.00    +0.000 C 
ATOM      6  C   UNL     1      -3.222  12.850  23.401  0.00  0.00    +0.163 C 
ATOM      7  C   UNL     1      -3.774  12.803  21.963  0.00  0.00    +0.000 C 
ATOM      8  C   UNL     1      -2.668  12.962  20.930  0.00  0.00    +0.018 C 
ATOM      9  H   UNL     1      -1.978  10.471  22.548  0.00  0.00    +0.047 HD
ATOM     10  H   UNL     1      -0.332  11.146  22.480  0.00  0.00    +0.047 HD
ATOM     11  H   UNL     1      -1.525  11.984  24.464  0.00  0.00    +0.031 HD
ATOM     12  H   UNL     1      -1.084  13.275  23.344  0.00  0.00    +0.031 HD
ATOM     13  H   UNL     1      -4.537  13.578  21.813  0.00  0.00    +0.031 HD
ATOM     14  H   UNL     1      -4.288  11.849  21.785  0.00  0.00    +0.031 HD
ATOM     15  H   UNL     1      -3.102  12.958  19.925  0.00  0.00    +0.047 HD
ATOM     16  H   UNL     1      -2.138  13.913  21.054  0.00  0.00    +0.047 HD
ENDROOT
BRANCH   1  22
ATOM     17  C   UNL     1       3.173   6.684  18.822  0.00  0.00    -0.050 A 
ATOM     18  C   UNL     1       3.105   7.549  17.729  0.00  0.00    -0.057 A 
ATOM     19  C   UNL     1       2.243   8.651  17.754  0.00  0.00    -0.035 A 
ATOM     20  C   UNL     1       1.444   8.930  18.852  0.00  0.00    +0.072 A 
ATOM     21  N   UNL     1       0.633  10.001  18.822  0.00  0.00    -0.242 NA
ATOM     22  C   UNL     1      -0.141  10.248  19.912  0.00  0.00    +0.126 A 
ATOM     23  C   UNL     1      -0.117   9.463  21.056  0.00  0.00    -0.031 A 
ATOM     24  C   UNL     1       0.723   8.355  21.079  0.00  0.00    -0.050 A 
ATOM     25  C   UNL     1       1.522   8.067  19.967  0.00  0.00    +0.001 A 
ATOM     26  C   UNL     1       2.387   6.957  19.946  0.00  0.00    -0.050 A 
ATOM     27  H   UNL     1       3.720   7.376  16.849  0.00  0.00    +0.062 HD
ATOM     28  H   UNL     1       2.202   9.312  16.891  0.00  0.00    +0.064 HD
ATOM     29  H   UNL     1      -0.735   9.708  21.915  0.00  0.00    +0.064 HD
ATOM     30  H   UNL     1       0.753   7.726  21.966  0.00  0.00    +0.062 HD
ATOM     31  H   UNL     1       2.447   6.302  20.813  0.00  0.00    +0.063 HD
BRANCH  17  32
ATOM     32  C   UNL     1       4.120   5.520  18.818  0.00  0.00    -0.040 C 
ATOM     33  H   UNL     1       3.857   4.801  19.602  0.00  0.00    +0.028 HD
ATOM     34  H   UNL     1       5.145   5.850  19.013  0.00  0.00    +0.028 HD
ATOM     35  H   UNL     1       4.087   5.014  17.848  0.00  0.00    +0.028 HD
ENDBRANCH  17  32
ENDBRANCH   1  22
BRANCH   6  36
ATOM     36  C   UNL     1      -3.340  14.288  23.967  0.00  0.00    +0.418 C 
ATOM     37  F   UNL     1      -4.527  14.847  23.628  0.00  0.00    -0.168 F 
ATOM     38  F   UNL     1      -2.367  15.097  23.487  0.00  0.00    -0.168 F 
ATOM     39  F   UNL     1      -3.263  14.307  25.317  0.00  0.00    -0.168 F 
ENDBRANCH   6  36
BRANCH   6  40
ATOM     40  O   UNL     1      -4.003  11.931  24.201  0.00  0.00    -0.380 OA
ATOM     41  H   UNL     1      -3.991  11.056  23.773  0.00  0.00    +0.211 HD
ENDBRANCH   6  40
TORSDOF 4
ENDMDL
MODEL 15
REMARK VINA RESULT:    -6.050      4.259      8.250
REMARK INTER + INTRA:          -7.213
REMARK INTER:                  -6.916
REMARK INTRA:                  -0.297
REMARK UNBOUND:                -0.102
REMARK  Name = 
REMARK  4 active torsions:
REMARK  status: ('A' for Active; 'I' for Inactive)
REMARK    1  A    between atoms: C_1  and  C_2
REMARK    2  A    between atoms: C_7  and  C_8
REMARK    3  A    between atoms: C_13  and  O_14
REMARK    4  A    between atoms: C_13  and  C_15
REMARK                            x       y       z     vdW  Elec       q    Type
REMARK                         _______ _______ _______ _____ _____    ______ ____
ROOT
ATOM      1  C   UNL     1       3.290   6.205  19.113  0.00  0.00    +0.265 C 
ATOM      2  O   UNL     1       3.111   5.300  19.932  0.00  0.00    -0.268 OA
ATOM      3  N   UNL     1       2.540   7.389  19.157  0.00  0.00    -0.296 N 
ATOM      4  C   UNL     1       2.495   8.376  18.078  0.00  0.00    +0.018 C 
ATOM      5  C   UNL     1       1.187   9.161  18.074  0.00  0.00    +0.000 C 
ATOM      6  C   UNL     1       0.928   9.861  19.423  0.00  0.00    +0.163 C 
ATOM      7  C   UNL     1       1.535   9.090  20.610  0.00  0.00    +0.000 C 
ATOM      8  C   UNL     1       1.667   7.605  20.307  0.00  0.00    +0.018 C 
ATOM      9  H   UNL     1       3.342   9.057  18.214  0.00  0.00    +0.047 HD
ATOM     10  H   UNL     1       2.603   7.871  17.112  0.00  0.00    +0.047 HD
ATOM     11  H   UNL     1       1.210   9.895  17.259  0.00  0.00    +0.031 HD
ATOM     12  H   UNL     1       0.376   8.456  17.850  0.00  0.00    +0.031 HD
ATOM     13  H   UNL     1       0.933   9.232  21.516  0.00  0.00    +0.031 HD
ATOM     14  H   UNL     1       2.529   9.490  20.854  0.00  0.00    +0.031 HD
ATOM     15  H   UNL     1       2.069   7.086  21.184  0.00  0.00    +0.047 HD
ATOM     16  H   UNL     1       0.695   7.155  20.079  0.00  0.00    +0.047 HD
ENDROOT
BRANCH   1  22
ATOM     17  C   UNL     1       6.901   4.638  14.002  0.00  0.00    -0.050 A 
ATOM     18  C   UNL     1       5.660   4.003  13.955  0.00  0.00    -0.057 A 
ATOM     19  C   UNL     1       4.726   4.201  14.979  0.00  0.00    -0.035 A 
ATOM     20  C   UNL     1       4.991   5.031  16.058  0.00  0.00    +0.072 A 
ATOM     21  N   UNL     1       4.059   5.183  17.015  0.00  0.00    -0.242 NA
ATOM     22  C   UNL     1       4.346   6.001  18.062  0.00  0.00    +0.126 A 
ATOM     23  C   UNL     1       5.540   6.698  18.178  0.00  0.00    -0.031 A 
ATOM     24  C   UNL     1       6.500   6.533  17.185  0.00  0.00    -0.050 A 
ATOM     25  C   UNL     1       6.239   5.688  16.101  0.00  0.00    +0.001 A 
ATOM     26  C   UNL     1       7.181   5.492  15.074  0.00  0.00    -0.050 A 
ATOM     27  H   UNL     1       5.405   3.350  13.123  0.00  0.00    +0.062 HD
ATOM     28  H   UNL     1       3.765   3.695  14.925  0.00  0.00    +0.064 HD
ATOM     29  H   UNL     1       5.722   7.359  19.020  0.00  0.00    +0.064 HD
ATOM     30  H   UNL     1       7.443   7.069  17.261  0.00  0.00    +0.062 HD
ATOM     31  H   UNL     1       8.137   6.009  15.111  0.00  0.00    +0.063 HD
BRANCH  17  32
ATOM     32  C   UNL     1       7.894   4.459  12.891  0.00  0.00    -0.040 C 
ATOM     33  H   UNL     1       8.795   5.055  13.073  0.00  0.00    +0.028 HD
ATOM     34  H   UNL     1       7.474   4.792  11.936  0.00  0.00    +0.028 HD
ATOM     35  H   UNL     1       8.177   3.406  12.807  0.00  0.00    +0.028 HD
ENDBRANCH  17  32
ENDBRANCH   1  22
BRANCH   6  36
ATOM     36  C   UNL     1      -0.602  10.013  19.616  0.00  0.00    +0.418 C 
ATOM     37  F   UNL     1      -1.042   9.232  20.633  0.00  0.00    -0.168 F 
ATOM     38  F   UNL     1      -1.287   9.649  18.507  0.00  0.00    -0.168 F 
ATOM     39  F   UNL     1      -0.949  11.286  19.915  0.00  0.00    -0.168 F 
ENDBRANCH   6  36
BRANCH   6  40
ATOM     40  O   UNL     1       1.560  11.163  19.377  0.00  0.00    -0.380 OA
ATOM     41  H   UNL     1       2.517  11.052  19.518  0.00  0.00    +0.211 HD
ENDBRANCH   6  40
TORSDOF 4
ENDMDL
MODEL 16
REMARK VINA RESULT:    -6.013      6.165      9.068
REMARK INTER + INTRA:          -7.170
REMARK INTER:                  -7.330
REMARK INTRA:                   0.160
REMARK UNBOUND:                -0.102
REMARK  Name = 
REMARK  4 active torsions:
REMARK  status: ('A' for Active; 'I' for Inactive)
REMARK    1  A    between atoms: C_1  and  C_2
REMARK    2  A    between atoms: C_7  and  C_8
REMARK    3  A    between atoms: C_13  and  O_14
REMARK    4  A    between atoms: C_13  and  C_15
REMARK                            x       y       z     vdW  Elec       q    Type
REMARK                         _______ _______ _______ _____ _____    ______ ____
ROOT
ATOM      1  C   UNL     1       0.729  12.306  20.113  0.00  0.00    +0.265 C 
ATOM      2  O   UNL     1       1.389  13.295  19.784  0.00  0.00    -0.268 OA
ATOM      3  N   UNL     1      -0.406  12.425  20.929  0.00  0.00    -0.296 N 
ATOM      4  C   UNL     1      -1.071  11.297  21.583  0.00  0.00    +0.018 C 
ATOM      5  C   UNL     1      -1.794  11.720  22.857  0.00  0.00    +0.000 C 
ATOM      6  C   UNL     1      -2.819  12.842  22.597  0.00  0.00    +0.163 C 
ATOM      7  C   UNL     1      -2.405  13.755  21.427  0.00  0.00    +0.000 C 
ATOM      8  C   UNL     1      -0.896  13.767  21.231  0.00  0.00    +0.018 C 
ATOM      9  H   UNL     1      -1.785  10.873  20.868  0.00  0.00    +0.047 HD
ATOM     10  H   UNL     1      -0.332  10.531  21.838  0.00  0.00    +0.047 HD
ATOM     11  H   UNL     1      -2.287  10.845  23.299  0.00  0.00    +0.031 HD
ATOM     12  H   UNL     1      -1.035  12.058  23.574  0.00  0.00    +0.031 HD
ATOM     13  H   UNL     1      -2.766  14.779  21.586  0.00  0.00    +0.031 HD
ATOM     14  H   UNL     1      -2.879  13.419  20.496  0.00  0.00    +0.031 HD
ATOM     15  H   UNL     1      -0.638  14.451  20.416  0.00  0.00    +0.047 HD
ATOM     16  H   UNL     1      -0.377  14.118  22.130  0.00  0.00    +0.047 HD
ENDROOT
BRANCH   1  22
ATOM     17  C   UNL     1       2.286   6.126  19.114  0.00  0.00    -0.050 A 
ATOM     18  C   UNL     1       1.874   6.335  20.430  0.00  0.00    -0.057 A 
ATOM     19  C   UNL     1       1.500   7.614  20.859  0.00  0.00    -0.035 A 
ATOM     20  C   UNL     1       1.516   8.705  20.003  0.00  0.00    +0.072 A 
ATOM     21  N   UNL     1       1.150   9.912  20.467  0.00  0.00    -0.242 NA
ATOM     22  C   UNL     1       1.177  10.964  19.607  0.00  0.00    +0.126 A 
ATOM     23  C   UNL     1       1.542  10.846  18.273  0.00  0.00    -0.031 A 
ATOM     24  C   UNL     1       1.922   9.595  17.800  0.00  0.00    -0.050 A 
ATOM     25  C   UNL     1       1.917   8.495  18.666  0.00  0.00    +0.001 A 
ATOM     26  C   UNL     1       2.294   7.211  18.231  0.00  0.00    -0.050 A 
ATOM     27  H   UNL     1       1.837   5.508  21.135  0.00  0.00    +0.062 HD
ATOM     28  H   UNL     1       1.184   7.757  21.889  0.00  0.00    +0.064 HD
ATOM     29  H   UNL     1       1.530  11.708  17.612  0.00  0.00    +0.064 HD
ATOM     30  H   UNL     1       2.215   9.484  16.759  0.00  0.00    +0.062 HD
ATOM     31  H   UNL     1       2.594   7.057  17.196  0.00  0.00    +0.063 HD
BRANCH  17  32
ATOM     32  C   UNL     1       2.654   4.752  18.636  0.00  0.00    -0.040 C 
ATOM     33  H   UNL     1       3.299   4.806  17.752  0.00  0.00    +0.028 HD
ATOM     34  H   UNL     1       1.761   4.186  18.352  0.00  0.00    +0.028 HD
ATOM     35  H   UNL     1       3.182   4.210  19.427  0.00  0.00    +0.028 HD
ENDBRANCH  17  32
ENDBRANCH   1  22
BRANCH   6  36
ATOM     36  C   UNL     1      -2.979  13.678  23.892  0.00  0.00    +0.418 C 
ATOM     37  F   UNL     1      -3.689  14.807  23.656  0.00  0.00    -0.168 F 
ATOM     38  F   UNL     1      -1.781  14.058  24.394  0.00  0.00    -0.168 F 
ATOM     39  F   UNL     1      -3.632  12.993  24.857  0.00  0.00    -0.168 F 
ENDBRANCH   6  36
BRANCH   6  40
ATOM     40  O   UNL     1      -4.078  12.221  22.242  0.00  0.00    -0.380 OA
ATOM     41  H   UNL     1      -3.915  11.286  22.023  0.00  0.00    +0.211 HD
ENDBRANCH   6  40
TORSDOF 4
ENDMDL
MODEL 17
REMARK VINA RESULT:    -5.912      2.327      3.098
REMARK INTER + INTRA:          -7.051
REMARK INTER:                  -7.673
REMARK INTRA:                   0.622
REMARK UNBOUND:                -0.102
REMARK  Name = 
REMARK  4 active torsions:
REMARK  status: ('A' for Active; 'I' for Inactive)
REMARK    1  A    between atoms: C_1  and  C_2
REMARK    2  A    between atoms: C_7  and  C_8
REMARK    3  A    between atoms: C_13  and  O_14
REMARK    4  A    between atoms: C_13  and  C_15
REMARK                            x       y       z     vdW  Elec       q    Type
REMARK                         _______ _______ _______ _____ _____    ______ ____
ROOT
ATOM      1  C   UNL     1       1.526   7.675  20.611  0.00  0.00    +0.265 C 
ATOM      2  O   UNL     1       1.357   7.555  21.827  0.00  0.00    -0.268 OA
ATOM      3  N   UNL     1       1.909   6.585  19.816  0.00  0.00    -0.296 N 
ATOM      4  C   UNL     1       2.393   6.700  18.439  0.00  0.00    +0.018 C 
ATOM      5  C   UNL     1       3.320   5.551  18.060  0.00  0.00    +0.000 C 
ATOM      6  C   UNL     1       2.649   4.177  18.257  0.00  0.00    +0.163 C 
ATOM      7  C   UNL     1       1.615   4.187  19.399  0.00  0.00    +0.000 C 
ATOM      8  C   UNL     1       1.927   5.261  20.430  0.00  0.00    +0.018 C 
ATOM      9  H   UNL     1       1.518   6.712  17.779  0.00  0.00    +0.047 HD
ATOM     10  H   UNL     1       2.936   7.643  18.317  0.00  0.00    +0.047 HD
ATOM     11  H   UNL     1       3.641   5.675  17.018  0.00  0.00    +0.031 HD
ATOM     12  H   UNL     1       4.219   5.628  18.686  0.00  0.00    +0.031 HD
ATOM     13  H   UNL     1       1.565   3.206  19.888  0.00  0.00    +0.031 HD
ATOM     14  H   UNL     1       0.608   4.365  18.997  0.00  0.00    +0.031 HD
ATOM     15  H   UNL     1       1.192   5.215  21.241  0.00  0.00    +0.047 HD
ATOM     16  H   UNL     1       2.916   5.113  20.877  0.00  0.00    +0.047 HD
ENDROOT
BRANCH   1  22
ATOM     17  C   UNL     1       0.319  13.859  19.224  0.00  0.00    -0.050 A 
ATOM     18  C   UNL     1       0.078  13.588  20.571  0.00  0.00    -0.057 A 
ATOM     19  C   UNL     1       0.269  12.298  21.078  0.00  0.00    -0.035 A 
ATOM     20  C   UNL     1       0.708  11.256  20.275  0.00  0.00    +0.072 A 
ATOM     21  N   UNL     1       0.872  10.035  20.813  0.00  0.00    -0.242 NA
ATOM     22  C   UNL     1       1.302   9.032  20.003  0.00  0.00    +0.126 A 
ATOM     23  C   UNL     1       1.597   9.213  18.659  0.00  0.00    -0.031 A 
ATOM     24  C   UNL     1       1.422  10.478  18.109  0.00  0.00    -0.050 A 
ATOM     25  C   UNL     1       0.969  11.529  18.915  0.00  0.00    +0.001 A 
ATOM     26  C   UNL     1       0.778  12.824  18.402  0.00  0.00    -0.050 A 
ATOM     27  H   UNL     1      -0.260  14.377  21.241  0.00  0.00    +0.062 HD
ATOM     28  H   UNL     1       0.072  12.107  22.130  0.00  0.00    +0.064 HD
ATOM     29  H   UNL     1       1.960   8.390  18.050  0.00  0.00    +0.064 HD
ATOM     30  H   UNL     1       1.646  10.638  17.057  0.00  0.00    +0.062 HD
ATOM     31  H   UNL     1       0.989  13.028  17.354  0.00  0.00    +0.063 HD
BRANCH  17  32
ATOM     32  C   UNL     1       0.151  15.247  18.680  0.00  0.00    -0.040 C 
ATOM     33  H   UNL     1       0.901  15.458  17.910  0.00  0.00    +0.028 HD
ATOM     34  H   UNL     1       0.280  15.993  19.471  0.00  0.00    +0.028 HD
ATOM     35  H   UNL     1      -0.846  15.360  18.244  0.00  0.00    +0.028 HD
ENDBRANCH  17  32
ENDBRANCH   1  22
BRANCH   6  36
ATOM     36  C   UNL     1       3.750   3.125  18.548  0.00  0.00    +0.418 C 
ATOM     37  F   UNL     1       3.284   2.148  19.363  0.00  0.00    -0.168 F 
ATOM     38  F   UNL     1       4.822   3.678  19.161  0.00  0.00    -0.168 F 
ATOM     39  F   UNL     1       4.186   2.525  17.418  0.00  0.00    -0.168 F 
ENDBRANCH   6  36
BRANCH   6  40
ATOM     40  O   UNL     1       1.949   3.844  17.034  0.00  0.00    -0.380 OA
ATOM     41  H   UNL     1       1.140   3.352  17.261  0.00  0.00    +0.211 HD
ENDBRANCH   6  40
TORSDOF 4
ENDMDL
MODEL 18
REMARK VINA RESULT:    -5.876      4.882      7.933
REMARK INTER + INTRA:          -7.008
REMARK INTER:                  -7.037
REMARK INTRA:                   0.029
REMARK UNBOUND:                -0.102
REMARK  Name = 
REMARK  4 active torsions:
REMARK  status: ('A' for Active; 'I' for Inactive)
REMARK    1  A    between atoms: C_1  and  C_2
REMARK    2  A    between atoms: C_7  and  C_8
REMARK    3  A    between atoms: C_13  and  O_14
REMARK    4  A    between atoms: C_13  and  C_15
REMARK                            x       y       z     vdW  Elec       q    Type
REMARK                         _______ _______ _______ _____ _____    ______ ____
ROOT
ATOM      1  C   UNL     1       1.576   8.866  18.523  0.00  0.00    +0.265 C 
ATOM      2  O   UNL     1       1.511   9.316  17.376  0.00  0.00    -0.268 OA
ATOM      3  N   UNL     1       0.951   9.515  19.598  0.00  0.00    -0.296 N 
ATOM      4  C   UNL     1       1.206   9.207  21.006  0.00  0.00    +0.018 C 
ATOM      5  C   UNL     1       0.951  10.409  21.909  0.00  0.00    +0.000 C 
ATOM      6  C   UNL     1      -0.481  10.958  21.754  0.00  0.00    +0.163 C 
ATOM      7  C   UNL     1      -1.044  10.736  20.336  0.00  0.00    +0.000 C 
ATOM      8  C   UNL     1       0.067  10.638  19.300  0.00  0.00    +0.018 C 
ATOM      9  H   UNL     1       0.549   8.377  21.289  0.00  0.00    +0.047 HD
ATOM     10  H   UNL     1       2.246   8.889  21.131  0.00  0.00    +0.047 HD
ATOM     11  H   UNL     1       1.141  10.123  22.951  0.00  0.00    +0.031 HD
ATOM     12  H   UNL     1       1.685  11.183  21.649  0.00  0.00    +0.031 HD
ATOM     13  H   UNL     1      -1.737  11.541  20.062  0.00  0.00    +0.031 HD
ATOM     14  H   UNL     1      -1.638   9.814  20.304  0.00  0.00    +0.031 HD
ATOM     15  H   UNL     1      -0.371  10.515  18.304  0.00  0.00    +0.047 HD
ATOM     16  H   UNL     1       0.677  11.548  19.280  0.00  0.00    +0.047 HD
ENDROOT
BRANCH   1  22
ATOM     17  C   UNL     1       3.887   3.083  20.206  0.00  0.00    -0.050 A 
ATOM     18  C   UNL     1       2.722   3.385  20.912  0.00  0.00    -0.057 A 
ATOM     19  C   UNL     1       2.065   4.603  20.703  0.00  0.00    -0.035 A 
ATOM     20  C   UNL     1       2.532   5.538  19.792  0.00  0.00    +0.072 A 
ATOM     21  N   UNL     1       1.863   6.693  19.632  0.00  0.00    -0.242 NA
ATOM     22  C   UNL     1       2.345   7.592  18.734  0.00  0.00    +0.126 A 
ATOM     23  C   UNL     1       3.477   7.365  17.963  0.00  0.00    -0.031 A 
ATOM     24  C   UNL     1       4.165   6.169  18.136  0.00  0.00    -0.050 A 
ATOM     25  C   UNL     1       3.701   5.229  19.063  0.00  0.00    +0.001 A 
ATOM     26  C   UNL     1       4.365   4.007  19.271  0.00  0.00    -0.050 A 
ATOM     27  H   UNL     1       2.313   2.679  21.631  0.00  0.00    +0.062 HD
ATOM     28  H   UNL     1       1.160   4.821  21.265  0.00  0.00    +0.064 HD
ATOM     29  H   UNL     1       3.817   8.101  17.240  0.00  0.00    +0.064 HD
ATOM     30  H   UNL     1       5.056   5.976  17.544  0.00  0.00    +0.062 HD
ATOM     31  H   UNL     1       5.261   3.773  18.699  0.00  0.00    +0.063 HD
BRANCH  17  32
ATOM     32  C   UNL     1       4.578   1.765  20.399  0.00  0.00    -0.040 C 
ATOM     33  H   UNL     1       4.071   0.973  19.837  0.00  0.00    +0.028 HD
ATOM     34  H   UNL     1       4.569   1.471  21.453  0.00  0.00    +0.028 HD
ATOM     35  H   UNL     1       5.615   1.834  20.057  0.00  0.00    +0.028 HD
ENDBRANCH  17  32
ENDBRANCH   1  22
BRANCH   6  36
ATOM     36  C   UNL     1      -0.472  12.471  22.090  0.00  0.00    +0.418 C 
ATOM     37  F   UNL     1      -1.361  13.144  21.319  0.00  0.00    -0.168 F 
ATOM     38  F   UNL     1       0.744  13.025  21.874  0.00  0.00    -0.168 F 
ATOM     39  F   UNL     1      -0.807  12.703  23.379  0.00  0.00    -0.168 F 
ENDBRANCH   6  36
BRANCH   6  40
ATOM     40  O   UNL     1      -1.334  10.243  22.680  0.00  0.00    -0.380 OA
ATOM     41  H   UNL     1      -0.774   9.754  23.308  0.00  0.00    +0.211 HD
ENDBRANCH   6  40
TORSDOF 4
ENDMDL
MODEL 19
REMARK VINA RESULT:    -5.822      1.833      2.525
REMARK INTER + INTRA:          -6.945
REMARK INTER:                  -7.331
REMARK INTRA:                   0.386
REMARK UNBOUND:                -0.102
REMARK  Name = 
REMARK  4 active torsions:
REMARK  status: ('A' for Active; 'I' for Inactive)
REMARK    1  A    between atoms: C_1  and  C_2
REMARK    2  A    between atoms: C_7  and  C_8
REMARK    3  A    between atoms: C_13  and  O_14
REMARK    4  A    between atoms: C_13  and  C_15
REMARK                            x       y       z     vdW  Elec       q    Type
REMARK                         _______ _______ _______ _____ _____    ______ ____
ROOT
ATOM      1  C   UNL     1       1.774   8.909  18.589  0.00  0.00    +0.265 C 
ATOM      2  O   UNL     1       2.061   9.121  17.408  0.00  0.00    -0.268 OA
ATOM      3  N   UNL     1       1.951   7.644  19.167  0.00  0.00    -0.296 N 
ATOM      4  C   UNL     1       1.388   7.241  20.457  0.00  0.00    +0.018 C 
ATOM      5  C   UNL     1       1.159   5.736  20.536  0.00  0.00    +0.000 C 
ATOM      6  C   UNL     1       2.451   4.938  20.268  0.00  0.00    +0.163 C 
ATOM      7  C   UNL     1       3.407   5.675  19.310  0.00  0.00    +0.000 C 
ATOM      8  C   UNL     1       2.657   6.628  18.391  0.00  0.00    +0.018 C 
ATOM      9  H   UNL     1       2.087   7.558  21.239  0.00  0.00    +0.047 HD
ATOM     10  H   UNL     1       0.431   7.750  20.615  0.00  0.00    +0.047 HD
ATOM     11  H   UNL     1       0.751   5.485  21.524  0.00  0.00    +0.031 HD
ATOM     12  H   UNL     1       0.391   5.476  19.796  0.00  0.00    +0.031 HD
ATOM     13  H   UNL     1       3.985   4.960  18.711  0.00  0.00    +0.031 HD
ATOM     14  H   UNL     1       4.150   6.247  19.881  0.00  0.00    +0.031 HD
ATOM     15  H   UNL     1       3.363   7.106  17.704  0.00  0.00    +0.047 HD
ATOM     16  H   UNL     1       1.915   6.098  17.783  0.00  0.00    +0.047 HD
ENDROOT
BRANCH   1  22
ATOM     17  C   UNL     1      -1.011  12.894  22.830  0.00  0.00    -0.050 A 
ATOM     18  C   UNL     1      -1.286  11.561  23.136  0.00  0.00    -0.057 A 
ATOM     19  C   UNL     1      -0.782  10.533  22.330  0.00  0.00    -0.035 A 
ATOM     20  C   UNL     1       0.005  10.794  21.220  0.00  0.00    +0.072 A 
ATOM     21  N   UNL     1       0.461   9.769  20.479  0.00  0.00    -0.242 NA
ATOM     22  C   UNL     1       1.229  10.055  19.395  0.00  0.00    +0.126 A 
ATOM     23  C   UNL     1       1.580  11.348  19.031  0.00  0.00    -0.031 A 
ATOM     24  C   UNL     1       1.103  12.403  19.800  0.00  0.00    -0.050 A 
ATOM     25  C   UNL     1       0.299  12.141  20.915  0.00  0.00    +0.001 A 
ATOM     26  C   UNL     1      -0.205  13.178  21.722  0.00  0.00    -0.050 A 
ATOM     27  H   UNL     1      -1.892  11.307  24.003  0.00  0.00    +0.062 HD
ATOM     28  H   UNL     1      -1.009   9.500  22.584  0.00  0.00    +0.064 HD
ATOM     29  H   UNL     1       2.215  11.533  18.169  0.00  0.00    +0.064 HD
ATOM     30  H   UNL     1       1.366  13.423  19.528  0.00  0.00    +0.062 HD
ATOM     31  H   UNL     1       0.033  14.213  21.485  0.00  0.00    +0.063 HD
BRANCH  17  32
ATOM     32  C   UNL     1      -1.517  14.000  23.708  0.00  0.00    -0.040 C 
ATOM     33  H   UNL     1      -1.401  14.972  23.216  0.00  0.00    +0.028 HD
ATOM     34  H   UNL     1      -0.954  14.042  24.645  0.00  0.00    +0.028 HD
ATOM     35  H   UNL     1      -2.576  13.842  23.935  0.00  0.00    +0.028 HD
ENDBRANCH  17  32
ENDBRANCH   1  22
BRANCH   6  36
ATOM     36  C   UNL     1       2.067   3.558  19.678  0.00  0.00    +0.418 C 
ATOM     37  F   UNL     1       1.452   2.786  20.607  0.00  0.00    -0.168 F 
ATOM     38  F   UNL     1       3.155   2.876  19.249  0.00  0.00    -0.168 F 
ATOM     39  F   UNL     1       1.217   3.675  18.633  0.00  0.00    -0.168 F 
ENDBRANCH   6  36
BRANCH   6  40
ATOM     40  O   UNL     1       3.140   4.770  21.530  0.00  0.00    -0.380 OA
ATOM     41  H   UNL     1       4.099   4.790  21.368  0.00  0.00    +0.211 HD
ENDBRANCH   6  40
TORSDOF 4
ENDMDL
MODEL 20
REMARK VINA RESULT:    -5.683      5.511      8.594
REMARK INTER + INTRA:          -6.782
REMARK INTER:                  -7.255
REMARK INTRA:                   0.472
REMARK UNBOUND:                -0.102
REMARK  Name = 
REMARK  4 active torsions:
REMARK  status: ('A' for Active; 'I' for Inactive)
REMARK    1  A    between atoms: C_1  and  C_2
REMARK    2  A    between atoms: C_7  and  C_8
REMARK    3  A    between atoms: C_13  and  O_14
REMARK    4  A    between atoms: C_13  and  C_15
REMARK                            x       y       z     vdW  Elec       q    Type
REMARK                         _______ _______ _______ _____ _____    ______ ____
ROOT
ATOM      1  C   UNL     1       1.556  10.189  18.633  0.00  0.00    +0.265 C 
ATOM      2  O   UNL     1       2.360  10.635  17.810  0.00  0.00    -0.268 OA
ATOM      3  N   UNL     1       0.497  10.971  19.116  0.00  0.00    -0.296 N 
ATOM      4  C   UNL     1      -0.321  10.622  20.279  0.00  0.00    +0.018 C 
ATOM      5  C   UNL     1      -0.902  11.855  20.961  0.00  0.00    +0.000 C 
ATOM      6  C   UNL     1      -1.732  12.718  19.989  0.00  0.00    +0.163 C 
ATOM      7  C   UNL     1      -1.222  12.622  18.538  0.00  0.00    +0.000 C 
ATOM      8  C   UNL     1       0.257  12.265  18.485  0.00  0.00    +0.018 C 
ATOM      9  H   UNL     1      -1.128   9.967  19.933  0.00  0.00    +0.047 HD
ATOM     10  H   UNL     1       0.288  10.074  21.006  0.00  0.00    +0.047 HD
ATOM     11  H   UNL     1      -1.517  11.540  21.813  0.00  0.00    +0.031 HD
ATOM     12  H   UNL     1      -0.065  12.439  21.365  0.00  0.00    +0.031 HD
ATOM     13  H   UNL     1      -1.395  13.563  18.001  0.00  0.00    +0.031 HD
ATOM     14  H   UNL     1      -1.788  11.861  17.985  0.00  0.00    +0.031 HD
ATOM     15  H   UNL     1       0.591  12.240  17.442  0.00  0.00    +0.047 HD
ATOM     16  H   UNL     1       0.868  13.010  19.006  0.00  0.00    +0.047 HD
ENDROOT
BRANCH   1  22
ATOM     17  C   UNL     1       2.980   3.958  19.512  0.00  0.00    -0.050 A 
ATOM     18  C   UNL     1       3.352   4.386  18.237  0.00  0.00    -0.057 A 
ATOM     19  C   UNL     1       3.121   5.707  17.839  0.00  0.00    -0.035 A 
ATOM     20  C   UNL     1       2.530   6.632  18.686  0.00  0.00    +0.072 A 
ATOM     21  N   UNL     1       2.328   7.888  18.252  0.00  0.00    -0.242 NA
ATOM     22  C   UNL     1       1.746   8.773  19.103  0.00  0.00    +0.126 A 
ATOM     23  C   UNL     1       1.371   8.448  20.399  0.00  0.00    -0.031 A 
ATOM     24  C   UNL     1       1.581   7.147  20.841  0.00  0.00    -0.050 A 
ATOM     25  C   UNL     1       2.167   6.209  19.983  0.00  0.00    +0.001 A 
ATOM     26  C   UNL     1       2.398   4.881  20.387  0.00  0.00    -0.050 A 
ATOM     27  H   UNL     1       3.827   3.697  17.541  0.00  0.00    +0.062 HD
ATOM     28  H   UNL     1       3.416   6.020  16.840  0.00  0.00    +0.064 HD
ATOM     29  H   UNL     1       0.928   9.192  21.056  0.00  0.00    +0.064 HD
ATOM     30  H   UNL     1       1.291   6.873  21.852  0.00  0.00    +0.062 HD
ATOM     31  H   UNL     1       2.122   4.566  21.392  0.00  0.00    +0.063 HD
BRANCH  17  32
ATOM     32  C   UNL     1       3.258   2.554  19.959  0.00  0.00    -0.040 C 
ATOM     33  H   UNL     1       4.301   2.443  20.273  0.00  0.00    +0.028 HD
ATOM     34  H   UNL     1       3.087   1.844  19.144  0.00  0.00    +0.028 HD
ATOM     35  H   UNL     1       2.606   2.293  20.799  0.00  0.00    +0.028 HD
ENDBRANCH  17  32
ENDBRANCH   1  22
BRANCH   6  36
ATOM     36  C   UNL     1      -1.688  14.190  20.470  0.00  0.00    +0.418 C 
ATOM     37  F   UNL     1      -2.937  14.664  20.698  0.00  0.00    -0.168 F 
ATOM     38  F   UNL     1      -1.114  15.001  19.551  0.00  0.00    -0.168 F 
ATOM     39  F   UNL     1      -0.997  14.322  21.625  0.00  0.00    -0.168 F 
ENDBRANCH   6  36
BRANCH   6  40
ATOM     40  O   UNL     1      -3.093  12.224  20.007  0.00  0.00    -0.380 OA
ATOM     41  H   UNL     1      -3.145  11.427  19.451  0.00  0.00    +0.211 HD
ENDBRANCH   6  40
TORSDOF 4
ENDMDL
MODEL 21
REMARK VINA RESULT:    -5.522      2.056      2.736
REMARK INTER + INTRA:          -6.592
REMARK INTER:                  -7.194
REMARK INTRA:                   0.601
REMARK UNBOUND:                -0.102
REMARK  Name = 
REMARK  4 active torsions:
REMARK  status: ('A' for Active; 'I' for Inactive)
REMARK    1  A    between atoms: C_1  and  C_2
REMARK    2  A    between atoms: C_7  and  C_8
REMARK    3  A    between atoms: C_13  and  O_14
REMARK    4  A    between atoms: C_13  and  C_15
REMARK                            x       y       z     vdW  Elec       q    Type
REMARK                         _______ _______ _______ _____ _____    ______ ____
ROOT
ATOM      1  C   UNL     1       2.064   8.295  18.667  0.00  0.00    +0.265 C 
ATOM      2  O   UNL     1       2.611   8.531  17.587  0.00  0.00    -0.268 OA
ATOM      3  N   UNL     1       2.145   7.030  19.266  0.00  0.00    -0.296 N 
ATOM      4  C   UNL     1       1.310   6.594  20.386  0.00  0.00    +0.018 C 
ATOM      5  C   UNL     1       1.119   5.082  20.403  0.00  0.00    +0.000 C 
ATOM      6  C   UNL     1       2.464   4.328  20.441  0.00  0.00    +0.163 C 
ATOM      7  C   UNL     1       3.592   5.106  19.735  0.00  0.00    +0.000 C 
ATOM      8  C   UNL     1       3.045   6.047  18.671  0.00  0.00    +0.018 C 
ATOM      9  H   UNL     1       1.797   6.923  21.311  0.00  0.00    +0.047 HD
ATOM     10  H   UNL     1       0.326   7.070  20.319  0.00  0.00    +0.047 HD
ATOM     11  H   UNL     1       0.502   4.805  21.267  0.00  0.00    +0.031 HD
ATOM     12  H   UNL     1       0.555   4.806  19.503  0.00  0.00    +0.031 HD
ATOM     13  H   UNL     1       4.318   4.417  19.284  0.00  0.00    +0.031 HD
ATOM     14  H   UNL     1       4.162   5.695  20.466  0.00  0.00    +0.031 HD
ATOM     15  H   UNL     1       3.876   6.555  18.169  0.00  0.00    +0.047 HD
ATOM     16  H   UNL     1       2.484   5.501  17.904  0.00  0.00    +0.047 HD
ENDROOT
BRANCH   1  22
ATOM     17  C   UNL     1      -1.005  13.707  20.375  0.00  0.00    -0.050 A 
ATOM     18  C   UNL     1      -0.430  13.831  19.110  0.00  0.00    -0.057 A 
ATOM     19  C   UNL     1       0.294  12.770  18.555  0.00  0.00    -0.035 A 
ATOM     20  C   UNL     1       0.457  11.568  19.226  0.00  0.00    +0.072 A 
ATOM     21  N   UNL     1       1.164  10.582  18.648  0.00  0.00    -0.242 NA
ATOM     22  C   UNL     1       1.309   9.414  19.329  0.00  0.00    +0.126 A 
ATOM     23  C   UNL     1       0.746   9.187  20.577  0.00  0.00    -0.031 A 
ATOM     24  C   UNL     1       0.018  10.213  21.170  0.00  0.00    -0.050 A 
ATOM     25  C   UNL     1      -0.138  11.431  20.499  0.00  0.00    +0.001 A 
ATOM     26  C   UNL     1      -0.866  12.496  21.061  0.00  0.00    -0.050 A 
ATOM     27  H   UNL     1      -0.538  14.753  18.542  0.00  0.00    +0.062 HD
ATOM     28  H   UNL     1       0.737  12.888  17.569  0.00  0.00    +0.064 HD
ATOM     29  H   UNL     1       0.867   8.232  21.079  0.00  0.00    +0.064 HD
ATOM     30  H   UNL     1      -0.427  10.054  22.149  0.00  0.00    +0.062 HD
ATOM     31  H   UNL     1      -1.328  12.379  22.039  0.00  0.00    +0.063 HD
BRANCH  17  32
ATOM     32  C   UNL     1      -1.813  14.827  20.962  0.00  0.00    -0.040 C 
ATOM     33  H   UNL     1      -1.208  15.423  21.653  0.00  0.00    +0.028 HD
ATOM     34  H   UNL     1      -2.664  14.438  21.529  0.00  0.00    +0.028 HD
ATOM     35  H   UNL     1      -2.184  15.478  20.164  0.00  0.00    +0.028 HD
ENDBRANCH  17  32
ENDBRANCH   1  22
BRANCH   6  36
ATOM     36  C   UNL     1       2.276   2.944  19.771  0.00  0.00    +0.418 C 
ATOM     37  F   UNL     1       3.473   2.385  19.466  0.00  0.00    -0.168 F 
ATOM     38  F   UNL     1       1.573   3.036  18.618  0.00  0.00    -0.168 F 
ATOM     39  F   UNL     1       1.628   2.076  20.580  0.00  0.00    -0.168 F 
ENDBRANCH   6  36
BRANCH   6  40
ATOM     40  O   UNL     1       2.846   4.167  21.828  0.00  0.00    -0.380 OA
ATOM     41  H   UNL     1       3.763   4.473  21.938  0.00  0.00    +0.211 HD
ENDBRANCH   6  40
TORSDOF 4
ENDMDL
MODEL 22
REMARK VINA RESULT:    -5.430      5.761      8.624
REMARK INTER + INTRA:          -6.485
REMARK INTER:                  -6.991
REMARK INTRA:                   0.505
REMARK UNBOUND:                -0.102
REMARK  Name = 
REMARK  4 active torsions:
REMARK  status: ('A' for Active; 'I' for Inactive)
REMARK    1  A    between atoms: C_1  and  C_2
REMARK    2  A    between atoms: C_7  and  C_8
REMARK    3  A    between atoms: C_13  and  O_14
REMARK    4  A    between atoms: C_13  and  C_15
REMARK                            x       y       z     vdW  Elec       q    Type
REMARK                         _______ _______ _______ _____ _____    ______ ____
ROOT
ATOM      1  C   UNL     1       1.150  11.334  19.060  0.00  0.00    +0.265 C 
ATOM      2  O   UNL     1       1.660  12.146  18.283  0.00  0.00    -0.268 OA
ATOM      3  N   UNL     1       0.220  11.736  20.029  0.00  0.00    -0.296 N 
ATOM      4  C   UNL     1      -0.215  10.901  21.149  0.00  0.00    +0.018 C 
ATOM      5  C   UNL     1      -0.661  11.735  22.345  0.00  0.00    +0.000 C 
ATOM      6  C   UNL     1      -1.784  12.724  21.975  0.00  0.00    +0.163 C 
ATOM      7  C   UNL     1      -1.695  13.191  20.509  0.00  0.00    +0.000 C 
ATOM      8  C   UNL     1      -0.271  13.110  19.979  0.00  0.00    +0.018 C 
ATOM      9  H   UNL     1      -1.043  10.275  20.796  0.00  0.00    +0.047 HD
ATOM     10  H   UNL     1       0.607  10.249  21.464  0.00  0.00    +0.047 HD
ATOM     11  H   UNL     1      -0.991  11.065  23.149  0.00  0.00    +0.031 HD
ATOM     12  H   UNL     1       0.216  12.279  22.718  0.00  0.00    +0.031 HD
ATOM     13  H   UNL     1      -2.073  14.216  20.403  0.00  0.00    +0.031 HD
ATOM     14  H   UNL     1      -2.343  12.573  19.874  0.00  0.00    +0.031 HD
ATOM     15  H   UNL     1      -0.241  13.481  18.949  0.00  0.00    +0.047 HD
ATOM     16  H   UNL     1       0.412  13.730  20.570  0.00  0.00    +0.047 HD
ENDROOT
BRANCH   1  22
ATOM     17  C   UNL     1       2.297   5.013  19.659  0.00  0.00    -0.050 A 
ATOM     18  C   UNL     1       1.695   5.528  20.807  0.00  0.00    -0.057 A 
ATOM     19  C   UNL     1       1.371   6.886  20.887  0.00  0.00    -0.035 A 
ATOM     20  C   UNL     1       1.623   7.760  19.841  0.00  0.00    +0.072 A 
ATOM     21  N   UNL     1       1.295   9.057  19.972  0.00  0.00    -0.242 NA
ATOM     22  C   UNL     1       1.555   9.891  18.931  0.00  0.00    +0.126 A 
ATOM     23  C   UNL     1       2.121   9.465  17.738  0.00  0.00    -0.031 A 
ATOM     24  C   UNL     1       2.461   8.123  17.611  0.00  0.00    -0.050 A 
ATOM     25  C   UNL     1       2.217   7.242  18.671  0.00  0.00    +0.001 A 
ATOM     26  C   UNL     1       2.545   5.876  18.585  0.00  0.00    -0.050 A 
ATOM     27  H   UNL     1       1.470   4.878  21.651  0.00  0.00    +0.062 HD
ATOM     28  H   UNL     1       0.905   7.268  21.793  0.00  0.00    +0.064 HD
ATOM     29  H   UNL     1       2.293  10.160  16.921  0.00  0.00    +0.064 HD
ATOM     30  H   UNL     1       2.909   7.772  16.684  0.00  0.00    +0.062 HD
ATOM     31  H   UNL     1       2.995   5.483  17.676  0.00  0.00    +0.063 HD
BRANCH  17  32
ATOM     32  C   UNL     1       2.615   3.551  19.550  0.00  0.00    -0.040 C 
ATOM     33  H   UNL     1       3.491   3.389  18.912  0.00  0.00    +0.028 HD
ATOM     34  H   UNL     1       1.781   3.003  19.101  0.00  0.00    +0.028 HD
ATOM     35  H   UNL     1       2.819   3.138  20.543  0.00  0.00    +0.028 HD
ENDBRANCH  17  32
ENDBRANCH   1  22
BRANCH   6  36
ATOM     36  C   UNL     1      -1.702  13.945  22.926  0.00  0.00    +0.418 C 
ATOM     37  F   UNL     1      -1.199  15.028  22.283  0.00  0.00    -0.168 F 
ATOM     38  F   UNL     1      -0.898  13.702  23.987  0.00  0.00    -0.168 F 
ATOM     39  F   UNL     1      -2.918  14.296  23.402  0.00  0.00    -0.168 F 
ENDBRANCH   6  36
BRANCH   6  40
ATOM     40  O   UNL     1      -3.051  12.043  22.142  0.00  0.00    -0.380 OA
ATOM     41  H   UNL     1      -2.985  11.159  21.740  0.00  0.00    +0.211 HD
ENDBRANCH   6  40
TORSDOF 4
ENDMDL
MODEL 23
REMARK VINA RESULT:    -5.299      4.918      8.163
REMARK INTER + INTRA:          -6.331
REMARK INTER:                  -6.363
REMARK INTRA:                   0.032
REMARK UNBOUND:                -0.102
REMARK  Name = 
REMARK  4 active torsions:
REMARK  status: ('A' for Active; 'I' for Inactive)
REMARK    1  A    between atoms: C_1  and  C_2
REMARK    2  A    between atoms: C_7  and  C_8
REMARK    3  A    between atoms: C_13  and  O_14
REMARK    4  A    between atoms: C_13  and  C_15
REMARK                            x       y       z     vdW  Elec       q    Type
REMARK                         _______ _______ _______ _____ _____    ______ ____
ROOT
ATOM      1  C   UNL     1       1.322   8.707  18.426  0.00  0.00    +0.265 C 
ATOM      2  O   UNL     1       0.886   9.037  17.320  0.00  0.00    -0.268 OA
ATOM      3  N   UNL     1       0.788   9.237  19.609  0.00  0.00    -0.296 N 
ATOM      4  C   UNL     1       1.418   9.115  20.924  0.00  0.00    +0.018 C 
ATOM      5  C   UNL     1       1.036  10.264  21.850  0.00  0.00    +0.000 C 
ATOM      6  C   UNL     1      -0.492  10.387  22.022  0.00  0.00    +0.163 C 
ATOM      7  C   UNL     1      -1.262   9.916  20.772  0.00  0.00    +0.000 C 
ATOM      8  C   UNL     1      -0.421  10.050  19.511  0.00  0.00    +0.018 C 
ATOM      9  H   UNL     1       1.101   8.160  21.358  0.00  0.00    +0.047 HD
ATOM     10  H   UNL     1       2.507   9.105  20.811  0.00  0.00    +0.047 HD
ATOM     11  H   UNL     1       1.519  10.119  22.824  0.00  0.00    +0.031 HD
ATOM     12  H   UNL     1       1.445  11.188  21.422  0.00  0.00    +0.031 HD
ATOM     13  H   UNL     1      -2.197  10.478  20.656  0.00  0.00    +0.031 HD
ATOM     14  H   UNL     1      -1.563   8.866  20.885  0.00  0.00    +0.031 HD
ATOM     15  H   UNL     1      -1.011   9.739  18.642  0.00  0.00    +0.047 HD
ATOM     16  H   UNL     1      -0.113  11.088  19.343  0.00  0.00    +0.047 HD
ENDROOT
BRANCH   1  22
ATOM     17  C   UNL     1       6.719   5.236  17.755  0.00  0.00    -0.050 A 
ATOM     18  C   UNL     1       6.709   6.325  16.883  0.00  0.00    -0.057 A 
ATOM     19  C   UNL     1       5.618   7.202  16.861  0.00  0.00    -0.035 A 
ATOM     20  C   UNL     1       4.527   7.032  17.699  0.00  0.00    +0.072 A 
ATOM     21  N   UNL     1       3.505   7.903  17.635  0.00  0.00    -0.242 NA
ATOM     22  C   UNL     1       2.448   7.711  18.467  0.00  0.00    +0.126 A 
ATOM     23  C   UNL     1       2.384   6.676  19.389  0.00  0.00    -0.031 A 
ATOM     24  C   UNL     1       3.443   5.777  19.448  0.00  0.00    -0.050 A 
ATOM     25  C   UNL     1       4.541   5.942  18.595  0.00  0.00    +0.001 A 
ATOM     26  C   UNL     1       5.635   5.057  18.620  0.00  0.00    -0.050 A 
ATOM     27  H   UNL     1       7.547   6.504  16.213  0.00  0.00    +0.062 HD
ATOM     28  H   UNL     1       5.628   8.044  16.172  0.00  0.00    +0.064 HD
ATOM     29  H   UNL     1       1.530   6.570  20.052  0.00  0.00    +0.064 HD
ATOM     30  H   UNL     1       3.409   4.958  20.162  0.00  0.00    +0.062 HD
ATOM     31  H   UNL     1       5.640   4.223  19.320  0.00  0.00    +0.063 HD
BRANCH  17  32
ATOM     32  C   UNL     1       7.899   4.312  17.810  0.00  0.00    -0.040 C 
ATOM     33  H   UNL     1       7.705   3.396  17.241  0.00  0.00    +0.028 HD
ATOM     34  H   UNL     1       8.112   4.012  18.842  0.00  0.00    +0.028 HD
ATOM     35  H   UNL     1       8.782   4.807  17.395  0.00  0.00    +0.028 HD
ENDBRANCH  17  32
ENDBRANCH   1  22
BRANCH   6  36
ATOM     36  C   UNL     1      -0.839  11.865  22.332  0.00  0.00    +0.418 C 
ATOM     37  F   UNL     1      -1.853  12.301  21.545  0.00  0.00    -0.168 F 
ATOM     38  F   UNL     1       0.216  12.684  22.115  0.00  0.00    -0.168 F 
ATOM     39  F   UNL     1      -1.232  12.032  23.615  0.00  0.00    -0.168 F 
ENDBRANCH   6  36
BRANCH   6  40
ATOM     40  O   UNL     1      -0.886   9.536  23.125  0.00  0.00    -0.380 OA
ATOM     41  H   UNL     1      -0.286   8.771  23.160  0.00  0.00    +0.211 HD
ENDBRANCH   6  40
TORSDOF 4
ENDMDL
MODEL 24
REMARK VINA RESULT:    -5.248      4.197      7.547
REMARK INTER + INTRA:          -6.270
REMARK INTER:                  -6.118
REMARK INTRA:                  -0.153
REMARK UNBOUND:                -0.102
REMARK  Name = 
REMARK  4 active torsions:
REMARK  status: ('A' for Active; 'I' for Inactive)
REMARK    1  A    between atoms: C_1  and  C_2
REMARK    2  A    between atoms: C_7  and  C_8
REMARK    3  A    between atoms: C_13  and  O_14
REMARK    4  A    between atoms: C_13  and  C_15
REMARK                            x       y       z     vdW  Elec       q    Type
REMARK                         _______ _______ _______ _____ _____    ______ ____
ROOT
ATOM      1  C   UNL     1       3.956   5.954  18.260  0.00  0.00    +0.265 C 
ATOM      2  O   UNL     1       3.689   7.121  18.558  0.00  0.00    -0.268 OA
ATOM      3  N   UNL     1       3.357   4.876  18.927  0.00  0.00    -0.296 N 
ATOM      4  C   UNL     1       3.816   3.489  18.827  0.00  0.00    +0.018 C 
ATOM      5  C   UNL     1       3.471   2.682  20.073  0.00  0.00    +0.000 C 
ATOM      6  C   UNL     1       1.959   2.702  20.376  0.00  0.00    +0.163 C 
ATOM      7  C   UNL     1       1.285   4.006  19.908  0.00  0.00    +0.000 C 
ATOM      8  C   UNL     1       2.272   5.163  19.859  0.00  0.00    +0.018 C 
ATOM      9  H   UNL     1       3.342   3.044  17.946  0.00  0.00    +0.047 HD
ATOM     10  H   UNL     1       4.903   3.470  18.688  0.00  0.00    +0.047 HD
ATOM     11  H   UNL     1       3.821   1.650  19.943  0.00  0.00    +0.031 HD
ATOM     12  H   UNL     1       4.032   3.109  20.914  0.00  0.00    +0.031 HD
ATOM     13  H   UNL     1       0.441   4.265  20.560  0.00  0.00    +0.031 HD
ATOM     14  H   UNL     1       0.851   3.871  18.908  0.00  0.00    +0.031 HD
ATOM     15  H   UNL     1       1.751   6.078  19.556  0.00  0.00    +0.047 HD
ATOM     16  H   UNL     1       2.717   5.351  20.843  0.00  0.00    +0.047 HD
ENDROOT
BRANCH   1  22
ATOM     17  C   UNL     1       7.214   4.323  12.936  0.00  0.00    -0.050 A 
ATOM     18  C   UNL     1       5.945   3.745  12.947  0.00  0.00    -0.057 A 
ATOM     19  C   UNL     1       5.077   3.965  14.023  0.00  0.00    -0.035 A 
ATOM     20  C   UNL     1       5.436   4.762  15.099  0.00  0.00    +0.072 A 
ATOM     21  N   UNL     1       4.565   4.938  16.107  0.00  0.00    -0.242 NA
ATOM     22  C   UNL     1       4.944   5.723  17.150  0.00  0.00    +0.126 A 
ATOM     23  C   UNL     1       6.173   6.364  17.212  0.00  0.00    -0.031 A 
ATOM     24  C   UNL     1       7.070   6.175  16.167  0.00  0.00    -0.050 A 
ATOM     25  C   UNL     1       6.713   5.362  15.085  0.00  0.00    +0.001 A 
ATOM     26  C   UNL     1       7.589   5.143  14.006  0.00  0.00    -0.050 A 
ATOM     27  H   UNL     1       5.616   3.119  12.120  0.00  0.00    +0.062 HD
ATOM     28  H   UNL     1       4.093   3.503  14.013  0.00  0.00    +0.064 HD
ATOM     29  H   UNL     1       6.429   7.001  18.054  0.00  0.00    +0.064 HD
ATOM     30  H   UNL     1       8.039   6.667  16.200  0.00  0.00    +0.062 HD
ATOM     31  H   UNL     1       8.569   5.617  13.999  0.00  0.00    +0.063 HD
BRANCH  17  32
ATOM     32  C   UNL     1       8.137   4.121  11.771  0.00  0.00    -0.040 C 
ATOM     33  H   UNL     1       8.334   5.070  11.260  0.00  0.00    +0.028 HD
ATOM     34  H   UNL     1       7.693   3.443  11.035  0.00  0.00    +0.028 HD
ATOM     35  H   UNL     1       9.087   3.700  12.114  0.00  0.00    +0.028 HD
ENDBRANCH  17  32
ENDBRANCH   1  22
BRANCH   6  36
ATOM     36  C   UNL     1       1.756   2.519  21.901  0.00  0.00    +0.418 C 
ATOM     37  F   UNL     1       0.438   2.516  22.219  0.00  0.00    -0.168 F 
ATOM     38  F   UNL     1       2.335   3.517  22.608  0.00  0.00    -0.168 F 
ATOM     39  F   UNL     1       2.272   1.349  22.342  0.00  0.00    -0.168 F 
ENDBRANCH   6  36
BRANCH   6  40
ATOM     40  O   UNL     1       1.345   1.608  19.653  0.00  0.00    -0.380 OA
ATOM     41  H   UNL     1       1.964   1.300  18.967  0.00  0.00    +0.211 HD
ENDBRANCH   6  40
TORSDOF 4
ENDMDL
