TE01
     RDKit          3D

 23 25  0  0  0  0  0  0  0  0999 V2000
    0.6650   16.3594   -4.4781 O   0  0  0  0  0  0  0  0  0  0  0  0
   -0.1107   17.0583   -5.1866 C   0  0  0  0  0  0  0  0  0  0  0  0
    0.1117   17.2940   -6.5321 O   0  0  0  0  0  1  0  0  0  0  0  0
   -1.2939   17.6400   -4.5471 C   0  0  2  0  0  0  0  0  0  0  0  0
   -0.9198   18.4970   -3.3545 C   0  0  0  0  0  0  0  0  0  0  0  0
   -1.9675   18.2709   -2.3056 C   0  0  0  0  0  0  0  0  0  0  0  0
   -3.0138   17.4017   -2.9697 C   0  0  2  0  0  0  0  0  0  0  0  0
   -3.6421   16.6158   -1.9260 N   0  0  0  0  0  0  0  0  0  0  0  0
   -3.3353   15.2360   -1.7008 C   0  0  0  0  0  0  0  0  0  0  0  0
   -2.7905   14.6507   -2.6981 O   0  0  0  0  0  0  0  0  0  0  0  0
   -3.6067   14.5756   -0.4903 N   0  0  0  0  0  0  0  0  0  0  0  0
   -2.9809   13.3880    0.0182 C   0  0  0  0  0  0  0  0  0  0  0  0
   -2.6790   13.8388    1.4556 C   0  0  0  0  0  0  0  0  0  0  0  0
   -3.8779   14.7026    1.7791 C   0  0  2  0  0  0  0  0  0  0  0  0
   -4.6735   14.2012    2.8860 C   0  0  0  0  0  0  0  0  0  0  0  0
   -5.7647   13.3771    2.6128 C   0  0  0  0  0  0  0  0  0  0  0  0
   -6.5684   12.8510    3.5832 C   0  0  0  0  0  0  0  0  0  0  0  0
   -6.3115   13.1313    4.9010 C   0  0  0  0  0  0  0  0  0  0  0  0
   -5.2464   13.9383    5.2033 C   0  0  0  0  0  0  0  0  0  0  0  0
   -4.4410   14.4642    4.2066 C   0  0  0  0  0  0  0  0  0  0  0  0
   -3.4204   15.2569    4.6055 F   0  0  0  0  0  0  0  0  0  0  0  0
   -4.5821   14.9665    0.4946 C   0  0  0  0  0  0  0  0  0  0  0  0
   -2.1963   16.5710   -3.9167 C   0  0  0  0  0  0  0  0  0  0  0  0
  1  2  2  0
  2  3  1  0
  4  2  1  1
  4  5  1  0
  5  6  1  0
  6  7  1  0
  7  8  1  1
  8  9  1  0
  9 10  2  0
  9 11  1  0
 11 12  1  0
 12 13  1  0
 13 14  1  0
 14 15  1  1
 15 16  2  0
 16 17  1  0
 17 18  2  0
 18 19  1  0
 19 20  2  0
 20 21  1  0
 14 22  1  0
  7 23  1  0
 23  4  1  0
 22 11  1  0
 20 15  1  0
M  CHG  1   3  -1
M  END
$$$$
TE02
     RDKit          3D

 24 26  0  0  0  0  0  0  0  0999 V2000
   -1.2663   23.4647   -5.7200 C   0  0  0  0  0  0  0  0  0  0  0  0
   -0.3242   22.3132   -5.5471 C   0  0  0  0  0  0  0  0  0  0  0  0
    0.3950   21.6569   -6.5366 C   0  0  0  0  0  0  0  0  0  0  0  0
    1.1355   20.6602   -5.9389 C   0  0  0  0  0  0  0  0  0  0  0  0
    2.0577   19.6952   -6.5856 C   0  0  0  0  0  0  0  0  0  0  0  0
    0.8590   20.7267   -4.6224 N   0  0  0  0  0  0  0  0  0  0  0  0
    1.3877   19.8936   -3.5768 C   0  0  0  0  0  0  0  0  0  0  0  0
    0.3938   18.8856   -3.1101 C   0  0  0  0  0  0  0  0  0  0  0  0
    0.1781   17.6829   -3.7457 C   0  0  0  0  0  0  0  0  0  0  0  0
   -0.7661   16.7635   -3.2740 C   0  0  0  0  0  0  0  0  0  0  0  0
   -1.4856   17.0727   -2.1580 C   0  0  0  0  0  0  0  0  0  0  0  0
   -2.5059   16.1801   -1.5734 C   0  0  0  0  0  0  0  0  0  0  0  0
   -2.6501   15.0485   -2.0821 O   0  0  0  0  0  0  0  0  0  0  0  0
   -3.3283   16.5243   -0.4769 N   0  0  0  0  0  0  0  0  0  0  0  0
   -4.4471   15.8318    0.0439 C   0  0  0  0  0  0  0  0  0  0  0  0
   -4.9550   16.0916    1.3787 C   0  0  2  0  0  0  0  0  0  0  0  0
   -4.4701   17.2729    2.1355 C   0  0  0  0  0  0  0  0  0  0  0  0
   -5.2203   17.1009    3.4790 C   0  0  0  0  0  0  0  0  0  0  0  0
   -5.2110   15.5974    3.6259 C   0  0  0  0  0  0  0  0  0  0  0  0
   -4.9209   14.9944    2.3391 N   0  0  1  0  0  4  0  0  0  0  0  0
   -5.9117   13.9798    2.0448 C   0  0  0  0  0  0  0  0  0  0  0  0
   -1.2558   18.2845   -1.5329 C   0  0  0  0  0  0  0  0  0  0  0  0
   -0.3334   19.1959   -1.9839 C   0  0  0  0  0  0  0  0  0  0  0  0
   -0.0109   21.7145   -4.4025 N   0  0  0  0  0  0  0  0  0  0  0  0
  1  2  1  0
  2  3  1  0
  3  4  2  0
  4  5  1  0
  4  6  1  0
  6  7  1  0
  7  8  1  0
  8  9  2  0
  9 10  1  0
 10 11  2  0
 11 12  1  0
 12 13  2  0
 12 14  1  0
 14 15  1  0
 16 15  1  6
 16 17  1  0
 17 18  1  0
 18 19  1  0
 19 20  1  0
 20 21  1  6
 11 22  1  0
 22 23  2  0
  6 24  1  0
 24  2  2  0
 23  8  1  0
 20 16  1  0
M  CHG  1  20   1
M  END
$$$$
TE03
     RDKit          3D

 22 24  0  0  0  0  0  0  0  0999 V2000
  -20.7538    4.7120   12.6897 O   0  0  0  0  0  0  0  0  0  0  0  0
  -19.9667    3.7796   12.3211 C   0  0  0  0  0  0  0  0  0  0  0  0
  -19.8911    2.6685   13.1892 N   0  0  0  0  0  0  0  0  0  0  0  0
  -20.8075    2.4283   14.2589 C   0  0  0  0  0  0  0  0  0  0  0  0
  -20.6270    3.2933   15.4483 C   0  0  0  0  0  0  0  0  0  0  0  0
  -20.4817    2.5465   16.7529 C   0  0  0  0  0  0  0  0  0  0  0  0
  -21.4415    1.4832   16.9119 N   0  0  0  0  0  0  0  0  0  0  0  0
  -22.0038    1.0975   18.1592 C   0  0  0  0  0  0  0  0  0  0  0  0
  -22.0318    1.9865   19.1984 C   0  0  0  0  0  0  0  0  0  0  0  0
  -22.5662    1.6800   20.4407 C   0  0  0  0  0  0  0  0  0  0  0  0
  -23.0882    0.4013   20.5999 C   0  0  0  0  0  0  0  0  0  0  0  0
  -23.7881   -0.0948   22.1249 Cl  0  0  0  0  0  0  0  0  0  0  0  0
  -23.0715   -0.5101   19.5697 C   0  0  0  0  0  0  0  0  0  0  0  0
  -22.5243   -0.1599   18.3370 C   0  0  0  0  0  0  0  0  0  0  0  0
  -21.8313    0.7821   15.6895 C   0  0  0  0  0  0  0  0  0  0  0  0
  -20.6493    0.9765   14.7270 C   0  0  0  0  0  0  0  0  0  0  0  0
  -19.2106    3.9017   11.0672 C   0  0  0  0  0  0  0  0  0  0  0  0
  -18.5453    2.8136   10.5422 C   0  0  0  0  0  0  0  0  0  0  0  0
  -17.8246    2.8479    9.3866 C   0  0  0  0  0  0  0  0  0  0  0  0
  -17.7595    4.0135    8.7197 N   0  0  0  0  0  0  0  0  0  0  0  0
  -18.3916    5.0858    9.1999 C   0  0  0  0  0  0  0  0  0  0  0  0
  -19.1324    5.0819   10.3726 C   0  0  0  0  0  0  0  0  0  0  0  0
  1  2  2  0
  2  3  1  0
  3  4  1  0
  4  5  1  0
  5  6  1  0
  6  7  1  0
  7  8  1  0
  8  9  2  0
  9 10  1  0
 10 11  2  0
 11 12  1  0
 11 13  1  0
 13 14  2  0
  7 15  1  0
 15 16  1  0
  2 17  1  0
 17 18  2  0
 18 19  1  0
 19 20  2  0
 20 21  1  0
 21 22  2  0
 16  4  1  0
 22 17  1  0
 14  8  1  0
M  END
$$$$
TE04
     RDKit          3D

 24 26  0  0  0  0  0  0  0  0999 V2000
   -2.0307   14.6947   -5.6933 C   0  0  0  0  0  0  0  0  0  0  0  0
   -2.1607   16.1520   -5.3190 C   0  0  2  0  0  0  0  0  0  0  0  0
   -0.8805   16.7524   -4.8502 C   0  0  0  0  0  0  0  0  0  0  0  0
   -1.0169   17.4588   -3.5184 C   0  0  0  0  0  0  0  0  0  0  0  0
   -1.5490   16.5140   -2.4387 C   0  0  0  0  0  0  0  0  0  0  0  0
   -2.7831   15.9799   -2.9432 N   0  0  0  0  0  0  0  0  0  0  0  0
   -3.5624   15.0936   -2.1791 C   0  0  0  0  0  0  0  0  0  0  0  0
   -4.3553   14.3449   -2.8461 O   0  0  0  0  0  0  0  0  0  0  0  0
   -3.5838   14.9192   -0.7355 C   0  0  0  0  0  0  0  0  0  0  0  0
   -3.2810   13.5181   -0.2474 C   0  0  0  0  0  0  0  0  0  0  0  0
   -2.7583   13.6932    1.1967 C   0  0  0  0  0  0  0  0  0  0  0  0
   -3.8073   14.4013    1.9239 N   0  0  0  0  0  0  0  0  0  0  0  0
   -4.2196   13.8752    3.1775 C   0  0  0  0  0  0  0  0  0  0  0  0
   -5.3560   14.3632    3.8167 C   0  0  0  0  0  0  0  0  0  0  0  0
   -5.7272   13.8638    5.0245 C   0  0  0  0  0  0  0  0  0  0  0  0
   -4.9968   12.9019    5.5960 N   0  0  0  0  0  0  0  0  0  0  0  0
   -3.9061   12.4144    5.0112 C   0  0  0  0  0  0  0  0  0  0  0  0
   -3.1058   11.3568    5.6425 C   0  0  0  0  0  0  0  0  0  0  0  0
   -2.9724   10.1289    4.9402 N   0  0  0  0  0  0  0  0  0  0  0  0
   -2.5598   11.5264    6.7576 O   0  0  0  0  0  0  0  0  0  0  0  0
   -3.4804   12.8902    3.7736 C   0  0  0  0  0  0  0  0  0  0  0  0
   -4.4045   15.6046    1.4229 C   0  0  0  0  0  0  0  0  0  0  0  0
   -4.8392   15.3475   -0.0316 C   0  0  0  0  0  0  0  0  0  0  0  0
   -3.2289   16.3639   -4.2629 C   0  0  0  0  0  0  0  0  0  0  0  0
  2  1  1  1
  2  3  1  0
  3  4  1  0
  4  5  1  0
  5  6  1  0
  6  7  1  0
  7  8  2  0
  7  9  1  0
  9 10  1  0
 10 11  1  0
 11 12  1  0
 12 13  1  0
 13 14  2  0
 14 15  1  0
 15 16  2  0
 16 17  1  0
 17 18  1  0
 18 19  1  0
 18 20  2  0
 17 21  2  0
 12 22  1  0
 22 23  1  0
  6 24  1  0
 24  2  1  0
 23  9  1  0
 21 13  1  0
M  END
$$$$
TE05
     RDKit          3D

 25 27  0  0  0  0  0  0  0  0999 V2000
   -2.2430   10.6510    5.2895 O   0  0  0  0  0  0  0  0  0  0  0  0
   -3.1844   11.4504    5.4640 C   0  0  0  0  0  0  0  0  0  0  0  0
   -3.8607   11.5920    6.6694 O   0  0  0  0  0  1  0  0  0  0  0  0
   -3.6096   12.2978    4.3286 C   0  0  0  0  0  0  0  0  0  0  0  0
   -2.8405   12.3938    3.1958 C   0  0  0  0  0  0  0  0  0  0  0  0
   -3.2448   13.1841    2.1477 C   0  0  0  0  0  0  0  0  0  0  0  0
   -4.4358   13.9268    2.1592 C   0  0  0  0  0  0  0  0  0  0  0  0
   -4.7321   14.7424    1.0085 C   0  0  0  0  0  0  0  0  0  0  0  0
   -5.8815   14.6657    0.5283 O   0  0  0  0  0  0  0  0  0  0  0  0
   -3.8021   15.6025    0.4117 N   0  0  0  0  0  0  0  0  0  0  0  0
   -3.9214   16.5143   -0.6566 C   0  0  0  0  0  0  0  0  0  0  0  0
   -3.5948   17.9147   -0.4138 C   0  0  2  0  0  0  0  0  0  0  0  0
   -4.5920   18.7527    0.3013 C   0  0  0  0  0  0  0  0  0  0  0  0
   -5.6608   18.9189   -0.7517 C   0  0  0  0  0  0  0  0  0  0  0  0
   -4.9034   18.7819   -2.0858 C   0  0  0  0  0  0  0  0  0  0  0  0
   -3.5272   18.6806   -1.6791 N   0  0  0  0  0  0  0  0  0  0  0  0
   -2.3670   19.1737   -2.2968 C   0  0  0  0  0  0  0  0  0  0  0  0
   -2.3746   20.0946   -3.3206 C   0  0  0  0  0  0  0  0  0  0  0  0
   -1.2182   20.5760   -3.9298 C   0  0  0  0  0  0  0  0  0  0  0  0
   -0.0000   20.1170   -3.4968 C   0  0  0  0  0  0  0  0  0  0  0  0
    0.0346   19.1945   -2.4727 C   0  0  0  0  0  0  0  0  0  0  0  0
   -1.1073   18.7334   -1.8871 C   0  0  0  0  0  0  0  0  0  0  0  0
   -5.1843   13.8160    3.2932 C   0  0  0  0  0  0  0  0  0  0  0  0
   -6.3681   14.4806    3.3828 F   0  0  0  0  0  0  0  0  0  0  0  0
   -4.7767   13.0100    4.3693 C   0  0  0  0  0  0  0  0  0  0  0  0
  1  2  2  0
  2  3  1  0
  2  4  1  0
  4  5  2  0
  5  6  1  0
  6  7  2  0
  7  8  1  0
  8  9  2  0
  8 10  1  0
 10 11  1  0
 12 11  1  6
 12 13  1  0
 13 14  1  0
 14 15  1  0
 15 16  1  0
 16 17  1  0
 17 18  2  0
 18 19  1  0
 19 20  2  0
 20 21  1  0
 21 22  2  0
  7 23  1  0
 23 24  1  0
 23 25  2  0
 25  4  1  0
 16 12  1  0
 22 17  1  0
M  CHG  1   3  -1
M  END
$$$$
TE06
     RDKit          3D

 28 30  0  0  0  0  0  0  0  0999 V2000
   -1.9073   16.2938   -3.6070 O   0  0  0  0  0  0  0  0  0  0  0  0
   -2.1140   17.2846   -2.8420 C   0  0  0  0  0  0  0  0  0  0  0  0
   -1.5208   18.5106   -3.2797 N   0  0  0  0  0  0  0  0  0  0  0  0
   -0.4911   18.5689   -4.2820 C   0  0  1  0  0  0  0  0  0  0  0  0
   -0.4489   19.9707   -4.8443 C   0  0  0  0  0  0  0  0  0  0  0  0
   -0.0227   20.9252   -3.7693 C   0  0  0  0  0  0  0  0  0  0  0  0
    1.3997   20.6149   -3.3720 C   0  0  0  0  0  0  0  0  0  0  0  0
    1.7522   19.3147   -3.8581 N   0  0  0  0  0  0  0  0  0  0  0  0
    2.9677   19.0935   -4.5425 C   0  0  0  0  0  0  0  0  0  0  0  0
    3.1882   17.9751   -5.0763 O   0  0  0  0  0  0  0  0  0  0  0  0
    3.9951   20.1807   -4.6366 C   0  0  0  0  0  0  0  0  0  0  0  0
    5.1603   19.7791   -3.8076 C   0  0  0  0  0  0  0  0  0  0  0  0
    5.0694   19.3446   -2.5076 C   0  0  0  0  0  0  0  0  0  0  0  0
    6.1691   18.9808   -1.7644 C   0  0  0  0  0  0  0  0  0  0  0  0
    7.4112   19.0537   -2.3432 C   0  0  0  0  0  0  0  0  0  0  0  0
    7.5236   19.4865   -3.6468 C   0  0  0  0  0  0  0  0  0  0  0  0
    6.4305   19.8520   -4.3958 C   0  0  0  0  0  0  0  0  0  0  0  0
    0.8428   18.2101   -3.6465 C   0  0  0  0  0  0  0  0  0  0  0  0
   -2.8898   17.1861   -1.6197 C   0  0  0  0  0  0  0  0  0  0  0  0
   -3.3829   18.3164   -1.0138 C   0  0  0  0  0  0  0  0  0  0  0  0
   -4.1199   18.2334    0.1441 C   0  0  0  0  0  0  0  0  0  0  0  0
   -4.3358   16.9735    0.6600 C   0  0  0  0  0  0  0  0  0  0  0  0
   -3.8490   15.8902    0.0572 N   0  0  0  0  0  0  0  0  0  0  0  0
   -3.1229   15.9410   -1.0798 C   0  0  0  0  0  0  0  0  0  0  0  0
   -2.6077   14.6910   -1.7033 C   0  0  0  0  0  0  0  0  0  0  0  0
   -1.2826   14.7928   -2.0699 F   0  0  0  0  0  0  0  0  0  0  0  0
   -3.3687   14.3968   -2.7973 F   0  0  0  0  0  0  0  0  0  0  0  0
   -2.6571   13.6830   -0.7490 F   0  0  0  0  0  0  0  0  0  0  0  0
  1  2  2  0
  2  3  1  0
  4  3  1  1
  4  5  1  0
  5  6  1  0
  6  7  1  0
  7  8  1  0
  8  9  1  0
  9 10  2  0
  9 11  1  0
 11 12  1  0
 12 13  2  0
 13 14  1  0
 14 15  2  0
 15 16  1  0
 16 17  2  0
  8 18  1  0
  2 19  1  0
 19 20  2  0
 20 21  1  0
 21 22  2  0
 22 23  1  0
 23 24  2  0
 24 25  1  0
 25 26  1  0
 25 27  1  0
 25 28  1  0
 18  4  1  0
 24 19  1  0
 17 12  1  0
M  END
$$$$
TE07
     RDKit          3D

 23 24  0  0  0  0  0  0  0  0999 V2000
   -4.5994    7.4711   16.0912 N   0  0  0  0  0  0  0  0  0  0  0  0
   -4.6125    8.8879   16.0158 C   0  0  0  0  0  0  0  0  0  0  0  0
   -4.3286    9.4951   14.9530 O   0  0  0  0  0  0  0  0  0  0  0  0
   -4.9650    9.7064   17.2013 C   0  0  0  0  0  0  0  0  0  0  0  0
   -3.8504   10.3809   17.7949 N   0  0  0  0  0  0  0  0  0  0  0  0
   -2.7371    9.6166   18.2253 C   0  0  0  0  0  0  0  0  0  0  0  0
   -2.7045    8.3563   18.1469 O   0  0  0  0  0  0  0  0  0  0  0  0
   -1.5305   10.2656   18.8002 C   0  0  0  0  0  0  0  0  0  0  0  0
   -0.4898    9.2917   19.1786 C   0  0  0  0  0  0  0  0  0  0  0  0
   -0.4139    8.8978   20.4966 C   0  0  0  0  0  0  0  0  0  0  0  0
    0.5326    7.9853   20.9481 C   0  0  0  0  0  0  0  0  0  0  0  0
    1.4347    7.4463   20.0568 C   0  0  0  0  0  0  0  0  0  0  0  0
    2.4742    6.4659   20.4664 C   0  0  0  0  0  0  0  0  0  0  0  0
    2.8384    5.6417   19.4139 F   0  0  0  0  0  0  0  0  0  0  0  0
    1.9950    5.6288   21.4751 F   0  0  0  0  0  0  0  0  0  0  0  0
    3.5892    7.1109   21.0003 F   0  0  0  0  0  0  0  0  0  0  0  0
    1.3499    7.8462   18.7459 C   0  0  0  0  0  0  0  0  0  0  0  0
    0.4107    8.7523   18.2952 C   0  0  0  0  0  0  0  0  0  0  0  0
   -3.8394   11.8100   17.9573 C   0  0  0  0  0  0  0  0  0  0  0  0
   -4.5313   12.2886   19.2147 C   0  0  0  0  0  0  0  0  0  0  0  0
   -4.5529   13.8042   18.9652 C   0  0  0  0  0  0  0  0  0  0  0  0
   -4.5958   13.9710   17.4610 C   0  0  0  0  0  0  0  0  0  0  0  0
   -4.5955   12.5477   16.8874 C   0  0  0  0  0  0  0  0  0  0  0  0
  1  2  1  0
  2  3  2  0
  2  4  1  0
  4  5  1  0
  5  6  1  0
  6  7  2  0
  6  8  1  0
  8  9  1  0
  9 10  2  0
 10 11  1  0
 11 12  2  0
 12 13  1  0
 13 14  1  0
 13 15  1  0
 13 16  1  0
 12 17  1  0
 17 18  2  0
  5 19  1  0
 19 20  1  0
 20 21  1  0
 21 22  1  0
 22 23  1  0
 18  9  1  0
 23 19  1  0
M  END
$$$$
TE08
     RDKit          3D

 26 28  0  0  0  0  0  0  0  0999 V2000
    0.1671   17.8637   -5.0091 C   0  0  0  0  0  0  0  0  0  0  0  0
   -1.2573   18.0556   -4.9392 N   0  0  0  0  0  0  0  0  0  0  0  0
   -1.9064   18.9541   -5.8631 C   0  0  0  0  0  0  0  0  0  0  0  0
   -2.0135   17.3755   -3.9449 C   0  0  0  0  0  0  0  0  0  0  0  0
   -3.3317   17.6786   -3.7203 C   0  0  0  0  0  0  0  0  0  0  0  0
   -4.0745   17.0027   -2.7233 C   0  0  0  0  0  0  0  0  0  0  0  0
   -3.5355   16.0328   -1.9414 C   0  0  0  0  0  0  0  0  0  0  0  0
   -4.2233   15.3040   -0.8956 C   0  0  0  0  0  0  0  0  0  0  0  0
   -5.3813   14.7532   -1.2894 O   0  0  0  0  0  0  0  0  0  0  0  0
   -3.9448   15.0448    0.4256 N   0  0  0  0  0  0  0  0  0  0  0  0
   -5.0383   14.3623    1.1800 C   0  0  0  0  0  0  0  0  0  0  0  0
   -4.3747   13.4422    2.1775 C   0  0  0  0  0  0  0  0  0  0  0  0
   -3.7751   14.3177    3.1748 N   0  0  0  0  0  0  0  0  0  0  0  0
   -3.8593   14.0016    4.5410 C   0  0  0  0  0  0  0  0  0  0  0  0
   -3.6741   14.8973    5.3949 O   0  0  0  0  0  0  0  0  0  0  0  0
   -4.1590   12.6447    4.9385 C   0  0  0  0  0  0  0  0  0  0  0  0
   -3.2650   11.8728    5.6559 C   0  0  0  0  0  0  0  0  0  0  0  0
   -3.5157   10.5927    6.0656 C   0  0  0  0  0  0  0  0  0  0  0  0
   -4.7402   10.0116    5.7508 C   0  0  0  0  0  0  0  0  0  0  0  0
   -5.6497   10.7483    5.0413 C   0  0  0  0  0  0  0  0  0  0  0  0
   -5.3716   12.0384    4.6404 C   0  0  0  0  0  0  0  0  0  0  0  0
   -6.2920   12.7381    3.9373 F   0  0  0  0  0  0  0  0  0  0  0  0
   -3.1202   15.4856    2.6836 C   0  0  0  0  0  0  0  0  0  0  0  0
   -2.7880   15.3261    1.1825 C   0  0  0  0  0  0  0  0  0  0  0  0
   -2.1704   15.7289   -2.1853 C   0  0  0  0  0  0  0  0  0  0  0  0
   -1.4593   16.3881   -3.1544 C   0  0  0  0  0  0  0  0  0  0  0  0
  1  2  1  0
  2  3  1  0
  2  4  1  0
  4  5  2  0
  5  6  1  0
  6  7  2  0
  7  8  1  0
  8  9  2  0
  8 10  1  0
 10 11  1  0
 11 12  1  0
 12 13  1  0
 13 14  1  0
 14 15  2  0
 14 16  1  0
 16 17  2  0
 17 18  1  0
 18 19  2  0
 19 20  1  0
 20 21  2  0
 21 22  1  0
 13 23  1  0
 23 24  1  0
  7 25  1  0
 25 26  2  0
 26  4  1  0
 24 10  1  0
 21 16  1  0
M  END
$$$$
TE09
     RDKit          3D

 24 26  0  0  0  0  0  0  0  0999 V2000
    2.9021   19.9185   -6.0144 O   0  0  0  0  0  0  0  0  0  0  0  0
    2.8517   19.3088   -4.9189 C   0  0  0  0  0  0  0  0  0  0  0  0
    3.8575   19.5225   -3.8744 C   0  0  0  0  0  0  0  0  0  0  0  0
    5.1776   19.8961   -4.4514 C   0  0  0  0  0  0  0  0  0  0  0  0
    6.3705   19.2640   -3.8214 C   0  0  2  0  0  0  0  0  0  0  0  0
    6.8965   20.1008   -2.6473 C   0  0  0  0  0  0  0  0  0  0  0  0
    7.3562   21.3317   -3.4004 C   0  0  0  0  0  0  0  0  0  0  0  0
    7.7970   20.7363   -4.7092 C   0  0  0  0  0  0  0  0  0  0  0  0
    7.4450   19.4013   -4.7011 O   0  0  0  0  0  0  0  0  0  0  0  0
    1.7552   18.4023   -4.7667 N   0  0  0  0  0  0  0  0  0  0  0  0
    0.3978   18.8261   -4.6047 C   0  0  0  0  0  0  0  0  0  0  0  0
    0.1247   19.0308   -3.1124 C   0  0  0  0  0  0  0  0  0  0  0  0
   -1.3247   18.8385   -2.7726 C   0  0  0  0  0  0  0  0  0  0  0  0
   -2.2170   19.1612   -3.8731 N   0  0  0  0  0  4  0  0  0  0  0  0
   -2.1548   20.5409   -4.2441 C   0  0  0  0  0  0  0  0  0  0  0  0
   -3.3587   21.3027   -3.7581 C   0  0  0  0  0  0  0  0  0  0  0  0
   -4.1889   20.7553   -2.7941 C   0  0  0  0  0  0  0  0  0  0  0  0
   -5.2913   21.4581   -2.3522 C   0  0  0  0  0  0  0  0  0  0  0  0
   -5.5867   22.7056   -2.8548 C   0  0  0  0  0  0  0  0  0  0  0  0
   -6.6588   23.4022   -2.4327 F   0  0  0  0  0  0  0  0  0  0  0  0
   -4.7430   23.2293   -3.8153 C   0  0  0  0  0  0  0  0  0  0  0  0
   -3.6305   22.5463   -4.2767 C   0  0  0  0  0  0  0  0  0  0  0  0
   -2.0093   18.2748   -4.9808 C   0  0  0  0  0  0  0  0  0  0  0  0
   -0.5929   17.7767   -5.0686 C   0  0  0  0  0  0  0  0  0  0  0  0
  1  2  2  0
  2  3  1  0
  3  4  1  0
  5  4  1  6
  5  6  1  0
  6  7  1  0
  7  8  1  0
  8  9  1  0
  2 10  1  0
 10 11  1  0
 11 12  1  0
 12 13  1  0
 13 14  1  0
 14 15  1  0
 15 16  1  0
 16 17  2  0
 17 18  1  0
 18 19  2  0
 19 20  1  0
 19 21  1  0
 21 22  2  0
 14 23  1  0
 23 24  1  0
  9  5  1  0
 24 11  1  0
 22 16  1  0
M  CHG  1  14   1
M  END
$$$$
TE10
     RDKit          3D

 29 31  0  0  0  0  0  0  0  0999 V2000
   -1.8730   20.9583   -2.3104 C   0  0  0  0  0  0  0  0  0  0  0  0
   -0.6648   20.1866   -2.6811 C   0  0  0  0  0  0  0  0  0  0  0  0
    0.4144   20.8131   -3.2602 C   0  0  0  0  0  0  0  0  0  0  0  0
    1.5727   20.1238   -3.6252 C   0  0  0  0  0  0  0  0  0  0  0  0
    2.6970   20.8028   -4.2326 C   0  0  0  0  0  0  0  0  0  0  0  0
    2.5356   22.0141   -4.5741 O   0  0  0  0  0  0  0  0  0  0  0  0
    3.9512   20.1999   -4.4639 N   0  0  0  0  0  0  0  0  0  0  0  0
    5.0527   20.9148   -5.0889 C   0  0  0  0  0  0  0  0  0  0  0  0
    5.8015   21.7548   -4.0494 C   0  0  0  0  0  0  0  0  0  0  0  0
    7.1216   21.9809   -4.7859 C   0  0  0  0  0  0  0  0  0  0  0  0
    7.4304   20.5892   -5.2810 C   0  0  0  0  0  0  0  0  0  0  0  0
    6.0900   19.9987   -5.6609 C   0  0  0  0  0  0  0  0  0  0  0  0
    1.5938   18.7744   -3.3799 C   0  0  0  0  0  0  0  0  0  0  0  0
    0.4874   18.1403   -2.7876 C   0  0  0  0  0  0  0  0  0  0  0  0
   -0.6415   18.8394   -2.4371 C   0  0  0  0  0  0  0  0  0  0  0  0
   -1.7344   18.1776   -1.8458 N   0  0  0  0  0  0  0  0  0  0  0  0
   -1.8019   16.7479   -1.8386 C   0  0  0  0  0  0  0  0  0  0  0  0
   -2.8312   16.1956   -0.9075 C   0  0  0  0  0  0  0  0  0  0  0  0
   -4.2089   16.7413   -1.1773 C   0  0  0  0  0  0  0  0  0  0  0  0
   -5.2289   16.0198   -0.3638 C   0  0  0  0  0  0  0  0  0  0  0  0
   -4.6564   15.0224    0.5405 N   0  0  0  0  0  0  0  0  0  0  0  0
   -5.1762   14.9597    1.8575 C   0  0  0  0  0  0  0  0  0  0  0  0
   -6.2257   15.6501    2.1083 O   0  0  0  0  0  0  0  0  0  0  0  0
   -4.6028   14.1601    2.9607 C   0  0  0  0  0  0  0  0  0  0  0  0
   -4.0853   15.0418    4.0712 C   0  0  0  0  0  0  0  0  0  0  0  0
   -5.6596   13.2421    3.5321 C   0  0  0  0  0  0  0  0  0  0  0  0
   -3.4693   13.2720    2.4881 C   0  0  0  0  0  0  0  0  0  0  0  0
   -3.6061   14.1294    0.0948 C   0  0  0  0  0  0  0  0  0  0  0  0
   -2.9416   14.6838   -1.1553 C   0  0  0  0  0  0  0  0  0  0  0  0
  1  2  1  0
  2  3  2  0
  3  4  1  0
  4  5  1  0
  5  6  2  0
  5  7  1  0
  7  8  1  0
  8  9  1  0
  9 10  1  0
 10 11  1  0
 11 12  1  0
  4 13  2  0
 13 14  1  0
 14 15  2  0
 15 16  1  0
 16 17  1  0
 17 18  1  0
 18 19  1  0
 19 20  1  0
 20 21  1  0
 21 22  1  0
 22 23  2  0
 22 24  1  0
 24 25  1  0
 24 26  1  0
 24 27  1  0
 21 28  1  0
 28 29  1  0
 15  2  1  0
 29 18  1  0
 12  8  1  0
M  END
$$$$
GF01
     RDKit          3D

 33 36  0  0  0  0  0  0  0  0999 V2000
    1.8273   18.2440   -3.7039 C   0  0  0  0  0  0  0  0  0  0  0  0
    0.5296   17.6361   -3.3056 C   0  0  0  0  0  0  0  0  0  0  0  0
   -0.5273   18.4177   -2.8520 C   0  0  0  0  0  0  0  0  0  0  0  0
   -1.7155   17.8322   -2.4902 C   0  0  0  0  0  0  0  0  0  0  0  0
   -1.8661   16.4530   -2.5765 C   0  0  0  0  0  0  0  0  0  0  0  0
   -3.1603   15.8191   -2.1696 C   0  0  0  0  0  0  0  0  0  0  0  0
   -4.0770   16.7222   -1.5541 N   0  0  0  0  0  0  0  0  0  0  0  0
   -4.3754   17.9831   -2.2176 C   0  0  0  0  0  0  0  0  0  0  0  0
   -4.7112   16.4581   -0.3175 C   0  0  0  0  0  0  0  0  0  0  0  0
   -5.4589   17.3580    0.3923 C   0  0  0  0  0  0  0  0  0  0  0  0
   -6.0425   17.0069    1.6009 C   0  0  0  0  0  0  0  0  0  0  0  0
   -5.9049   15.7598    2.1422 C   0  0  0  0  0  0  0  0  0  0  0  0
   -6.5860   15.4970    3.4317 C   0  0  0  0  0  0  0  0  0  0  0  0
   -6.8246   14.1019    3.6578 N   0  0  0  0  0  0  0  0  0  0  0  0
   -7.6723   13.5987    4.6764 C   0  0  0  0  0  0  0  0  0  0  0  0
   -8.9000   13.5283    4.4190 O   0  0  0  0  0  0  0  0  0  0  0  0
   -7.2357   13.1778    5.9415 N   0  0  0  0  0  0  0  0  0  0  0  0
   -7.8277   12.0659    6.6713 C   0  0  2  0  0  0  0  0  0  0  0  0
   -9.0624   12.5093    7.4289 C   0  0  0  0  0  0  0  0  0  0  0  0
   -8.7687   12.3847    8.8900 C   0  0  0  0  0  0  0  0  0  0  0  0
   -7.4535   11.6968    8.9654 C   0  0  0  0  0  0  0  0  0  0  0  0
   -6.7413   11.2445   10.0545 C   0  0  0  0  0  0  0  0  0  0  0  0
   -5.5187   10.6203    9.9276 C   0  0  0  0  0  0  0  0  0  0  0  0
   -4.9906   10.4426    8.6678 C   0  0  0  0  0  0  0  0  0  0  0  0
   -5.7139   10.8999    7.5887 C   0  0  0  0  0  0  0  0  0  0  0  0
   -6.9354   11.5246    7.7010 C   0  0  0  0  0  0  0  0  0  0  0  0
   -5.1691   14.8436    1.4636 C   0  0  0  0  0  0  0  0  0  0  0  0
   -4.9700   13.5065    1.9922 C   0  0  0  0  0  0  0  0  0  0  0  0
   -3.8335   13.2204    2.7849 N   0  0  0  0  0  0  0  0  0  0  0  0
   -5.7963   12.5978    1.7539 O   0  0  0  0  0  0  0  0  0  0  0  0
   -4.5896   15.1904    0.2640 C   0  0  0  0  0  0  0  0  0  0  0  0
   -0.8053   15.6993   -3.0283 C   0  0  0  0  0  0  0  0  0  0  0  0
    0.3961   16.2700   -3.3964 C   0  0  0  0  0  0  0  0  0  0  0  0
  1  2  1  0
  2  3  2  0
  3  4  1  0
  4  5  2  0
  5  6  1  0
  6  7  1  0
  7  8  1  0
  7  9  1  0
  9 10  2  0
 10 11  1  0
 11 12  2  0
 12 13  1  0
 13 14  1  0
 14 15  1  0
 15 16  2  0
 15 17  1  0
 18 17  1  1
 18 19  1  0
 19 20  1  0
 20 21  1  0
 21 22  2  0
 22 23  1  0
 23 24  2  0
 24 25  1  0
 25 26  2  0
 12 27  1  0
 27 28  1  0
 28 29  1  0
 28 30  2  0
 27 31  2  0
  5 32  1  0
 32 33  2  0
 33  2  1  0
 31  9  1  0
 26 18  1  0
 26 21  1  0
M  END
$$$$
GF02
     RDKit          3D

 31 34  0  0  0  0  0  0  0  0999 V2000
    0.1216   19.2836   -1.7781 C   0  0  0  0  0  0  0  0  0  0  0  0
   -0.0329   19.7141   -3.1888 C   0  0  0  0  0  0  0  0  0  0  0  0
    0.3201   21.0005   -3.6012 C   0  0  0  0  0  0  0  0  0  0  0  0
    0.1781   21.4068   -4.9121 C   0  0  0  0  0  0  0  0  0  0  0  0
   -0.3269   20.5012   -5.8158 C   0  0  0  0  0  0  0  0  0  0  0  0
   -0.6788   19.2198   -5.4075 C   0  0  0  0  0  0  0  0  0  0  0  0
   -0.5363   18.8161   -4.0988 C   0  0  0  0  0  0  0  0  0  0  0  0
   -0.9076   17.4771   -3.6655 C   0  0  0  0  0  0  0  0  0  0  0  0
   -0.0911   16.4043   -3.9267 C   0  0  0  0  0  0  0  0  0  0  0  0
    1.0719   16.6254   -4.5955 F   0  0  0  0  0  0  0  0  0  0  0  0
   -0.3930   15.1350   -3.5476 C   0  0  0  0  0  0  0  0  0  0  0  0
   -1.5944   14.9396   -2.8625 C   0  0  0  0  0  0  0  0  0  0  0  0
   -2.4460   15.9789   -2.5763 C   0  0  0  0  0  0  0  0  0  0  0  0
   -3.6952   15.7122   -1.8566 C   0  0  0  0  0  0  0  0  0  0  0  0
   -3.5855   15.6346   -0.4260 N   0  0  0  0  0  0  0  0  0  0  0  0
   -3.9883   14.4318    0.2660 C   0  0  0  0  0  0  0  0  0  0  0  0
   -4.7376   13.6531   -0.3314 O   0  0  0  0  0  0  0  0  0  0  0  0
   -3.5518   14.1439    1.5703 N   0  0  0  0  0  0  0  0  0  0  0  0
   -4.1995   13.1707    2.4204 C   0  0  2  0  0  0  0  0  0  0  0  0
   -5.0732   13.9381    3.3973 C   0  0  0  0  0  0  0  0  0  0  0  0
   -4.1606   14.2633    4.5474 C   0  0  0  0  0  0  0  0  0  0  0  0
   -3.2070   13.1440    4.5613 C   0  0  0  0  0  0  0  0  0  0  0  0
   -2.3735   12.7076    5.5854 C   0  0  0  0  0  0  0  0  0  0  0  0
   -1.5353   11.6256    5.4101 C   0  0  0  0  0  0  0  0  0  0  0  0
   -1.5597   10.9970    4.1788 C   0  0  0  0  0  0  0  0  0  0  0  0
   -2.3872   11.4324    3.1663 C   0  0  0  0  0  0  0  0  0  0  0  0
   -3.2269   12.5136    3.3365 C   0  0  0  0  0  0  0  0  0  0  0  0
   -2.1043   17.2640   -2.9796 C   0  0  0  0  0  0  0  0  0  0  0  0
   -2.9333   18.3975   -2.7198 C   0  0  0  0  0  0  0  0  0  0  0  0
   -3.4865   19.2567   -3.6692 N   0  0  0  0  0  0  0  0  0  0  0  0
   -3.2135   18.6762   -1.4913 O   0  0  0  0  0  0  0  0  0  0  0  0
  1  2  1  0
  2  3  2  0
  3  4  1  0
  4  5  2  0
  5  6  1  0
  6  7  2  0
  7  8  1  0
  8  9  2  0
  9 10  1  0
  9 11  1  0
 11 12  2  0
 12 13  1  0
 13 14  1  0
 14 15  1  0
 15 16  1  0
 16 17  2  0
 16 18  1  0
 19 18  1  6
 19 20  1  0
 20 21  1  0
 21 22  1  0
 22 23  2  0
 23 24  1  0
 24 25  2  0
 25 26  1  0
 26 27  2  0
 13 28  2  0
 28 29  1  0
 29 30  1  0
 29 31  2  0
  7  2  1  0
 28  8  1  0
 27 19  1  0
 27 22  1  0
M  END
$$$$
GF03
     RDKit          3D

 32 35  0  0  0  0  0  0  0  0999 V2000
    7.5691    7.4756   15.7864 C   0  0  0  0  0  0  0  0  0  0  0  0
    8.0950    6.6393   16.8734 C   0  0  0  0  0  0  0  0  0  0  0  0
    9.4628    6.7700   17.1430 C   0  0  0  0  0  0  0  0  0  0  0  0
   10.0493    6.0336   18.1476 C   0  0  0  0  0  0  0  0  0  0  0  0
   11.3802    6.1325   18.4416 F   0  0  0  0  0  0  0  0  0  0  0  0
    9.2960    5.1761   18.8804 C   0  0  0  0  0  0  0  0  0  0  0  0
    7.9527    5.0559   18.6063 C   0  0  0  0  0  0  0  0  0  0  0  0
    7.3250    5.7737   17.6100 C   0  0  0  0  0  0  0  0  0  0  0  0
    5.9074    5.6504   17.3077 C   0  0  0  0  0  0  0  0  0  0  0  0
    5.4779    4.4560   16.7166 C   0  0  0  0  0  0  0  0  0  0  0  0
    4.1443    4.2959   16.4066 C   0  0  0  0  0  0  0  0  0  0  0  0
    3.2423    5.3065   16.6778 C   0  0  0  0  0  0  0  0  0  0  0  0
    3.6249    6.4985   17.2594 C   0  0  0  0  0  0  0  0  0  0  0  0
    4.9738    6.6252   17.5577 C   0  0  0  0  0  0  0  0  0  0  0  0
    2.4251    7.3353   17.4007 C   0  0  2  0  0  0  0  0  0  0  0  0
    2.4466    8.2149   18.5383 N   0  0  0  0  0  0  0  0  0  0  0  0
    1.5089    9.2862   18.6354 C   0  0  0  0  0  0  0  0  0  0  0  0
    0.9001    9.7209   17.6277 O   0  0  0  0  0  0  0  0  0  0  0  0
    1.2262    9.9066   19.8874 N   0  0  0  0  0  0  0  0  0  0  0  0
    0.3904   11.0813   20.0168 C   0  0  0  0  0  0  0  0  0  0  0  0
    1.0975   12.2857   20.4811 C   0  0  0  0  0  0  0  0  0  0  0  0
    2.4089   12.1913   20.9711 C   0  0  0  0  0  0  0  0  0  0  0  0
    3.0777   13.3157   21.3848 C   0  0  0  0  0  0  0  0  0  0  0  0
    2.4948   14.5640   21.3360 C   0  0  0  0  0  0  0  0  0  0  0  0
    3.1423   15.6970   21.7427 F   0  0  0  0  0  0  0  0  0  0  0  0
    1.2087   14.6411   20.8543 C   0  0  0  0  0  0  0  0  0  0  0  0
    0.4927   13.5127   20.4222 C   0  0  0  0  0  0  0  0  0  0  0  0
   -0.8662   13.7670   19.9769 C   0  0  0  0  0  0  0  0  0  0  0  0
   -2.0601   13.3061   20.5514 N   0  0  0  0  0  0  0  0  0  0  0  0
   -1.0417   14.5040   18.9304 O   0  0  0  0  0  0  0  0  0  0  0  0
    1.3178    6.3036   17.4981 C   0  0  0  0  0  0  0  0  0  0  0  0
    1.7736    5.3163   16.4156 C   0  0  0  0  0  0  0  0  0  0  0  0
  1  2  1  0
  2  3  2  0
  3  4  1  0
  4  5  1  0
  4  6  2  0
  6  7  1  0
  7  8  2  0
  8  9  1  0
  9 10  2  0
 10 11  1  0
 11 12  2  0
 12 13  1  0
 13 14  2  0
 13 15  1  0
 15 16  1  1
 16 17  1  0
 17 18  2  0
 17 19  1  0
 19 20  1  0
 20 21  1  0
 21 22  2  0
 22 23  1  0
 23 24  2  0
 24 25  1  0
 24 26  1  0
 26 27  2  0
 27 28  1  0
 28 29  1  0
 28 30  2  0
 15 31  1  0
 31 32  1  0
  8  2  1  0
 14  9  1  0
 27 21  1  0
 32 12  1  0
M  END
$$$$
GF04
     RDKit          3D

 31 34  0  0  0  0  0  0  0  0999 V2000
   -6.6196   12.4475    8.9641 C   0  0  0  0  0  0  0  0  0  0  0  0
   -6.7410   12.5613    7.5698 O   0  0  0  0  0  0  0  0  0  0  0  0
   -5.6737   12.4365    6.6947 C   0  0  0  0  0  0  0  0  0  0  0  0
   -4.5796   11.6584    7.0461 C   0  0  0  0  0  0  0  0  0  0  0  0
   -3.5227   11.5486    6.1617 C   0  0  0  0  0  0  0  0  0  0  0  0
   -3.5801   12.2093    4.9600 C   0  0  0  0  0  0  0  0  0  0  0  0
   -4.6506   12.9856    4.5875 C   0  0  0  0  0  0  0  0  0  0  0  0
   -4.6388   13.6731    3.3132 C   0  0  0  0  0  0  0  0  0  0  0  0
   -5.0144   15.0181    3.2312 C   0  0  0  0  0  0  0  0  0  0  0  0
   -4.9828   15.6618    2.0201 C   0  0  0  0  0  0  0  0  0  0  0  0
   -4.5860   15.0209    0.8364 C   0  0  0  0  0  0  0  0  0  0  0  0
   -4.5971   15.7798   -0.4390 C   0  0  0  0  0  0  0  0  0  0  0  0
   -3.6595   16.8680   -0.4788 N   0  0  0  0  0  0  0  0  0  0  0  0
   -2.7253   16.8355   -1.5690 C   0  0  0  0  0  0  0  0  0  0  0  0
   -2.1894   15.7511   -1.9544 O   0  0  0  0  0  0  0  0  0  0  0  0
   -2.3564   17.9989   -2.2727 N   0  0  0  0  0  0  0  0  0  0  0  0
   -1.4451   18.0736   -3.3718 C   0  0  2  0  0  0  0  0  0  0  0  0
   -0.0561   17.6830   -3.1037 C   0  0  0  0  0  0  0  0  0  0  0  0
    0.4666   18.9601   -2.4005 C   0  0  0  0  0  0  0  0  0  0  0  0
   -0.1667   19.9986   -3.2486 C   0  0  0  0  0  0  0  0  0  0  0  0
    0.1440   21.3237   -3.5413 C   0  0  0  0  0  0  0  0  0  0  0  0
   -0.6238   22.0950   -4.3815 C   0  0  0  0  0  0  0  0  0  0  0  0
   -1.7353   21.5741   -4.9592 C   0  0  0  0  0  0  0  0  0  0  0  0
   -2.0775   20.2464   -4.6815 C   0  0  0  0  0  0  0  0  0  0  0  0
   -1.2973   19.5011   -3.8444 C   0  0  0  0  0  0  0  0  0  0  0  0
   -4.2134   13.7092    0.8919 C   0  0  0  0  0  0  0  0  0  0  0  0
   -3.7619   12.9811   -0.2786 C   0  0  0  0  0  0  0  0  0  0  0  0
   -4.6974   12.1919   -0.9798 N   0  0  0  0  0  0  0  0  0  0  0  0
   -2.5915   13.0450   -0.6624 O   0  0  0  0  0  0  0  0  0  0  0  0
   -4.2558   13.0878    2.1391 C   0  0  0  0  0  0  0  0  0  0  0  0
   -5.6970   13.0970    5.4565 C   0  0  0  0  0  0  0  0  0  0  0  0
  1  2  1  0
  2  3  1  0
  3  4  2  0
  4  5  1  0
  5  6  2  0
  6  7  1  0
  7  8  1  0
  8  9  2  0
  9 10  1  0
 10 11  2  0
 11 12  1  0
 12 13  1  0
 13 14  1  0
 14 15  2  0
 14 16  1  0
 17 16  1  1
 17 18  1  0
 18 19  1  0
 19 20  1  0
 20 21  2  0
 21 22  1  0
 22 23  2  0
 23 24  1  0
 24 25  2  0
 11 26  1  0
 26 27  1  0
 27 28  1  0
 27 29  2  0
 26 30  2  0
  7 31  2  0
 31  3  1  0
 30  8  1  0
 25 17  1  0
 25 20  1  0
M  END
$$$$
GF05
     RDKit          3D

 31 34  0  0  0  0  0  0  0  0999 V2000
  -10.0524   13.4583    8.2882 C   0  0  0  0  0  0  0  0  0  0  0  0
   -9.0984   12.5363    8.7137 O   0  0  0  0  0  0  0  0  0  0  0  0
   -7.8068   12.4175    8.2354 C   0  0  0  0  0  0  0  0  0  0  0  0
   -6.8214   12.0710    9.1578 C   0  0  0  0  0  0  0  0  0  0  0  0
   -5.5100   11.9329    8.7606 C   0  0  0  0  0  0  0  0  0  0  0  0
   -5.1812   12.1450    7.4196 C   0  0  0  0  0  0  0  0  0  0  0  0
   -6.1266   12.4841    6.5018 C   0  0  0  0  0  0  0  0  0  0  0  0
   -5.7687   12.7089    5.0878 C   0  0  0  0  0  0  0  0  0  0  0  0
   -6.5180   13.5657    4.3061 C   0  0  0  0  0  0  0  0  0  0  0  0
   -6.1806   13.7731    2.9916 C   0  0  0  0  0  0  0  0  0  0  0  0
   -5.0799   13.1398    2.3834 C   0  0  0  0  0  0  0  0  0  0  0  0
   -4.7787   13.4348    0.9878 C   0  0  0  0  0  0  0  0  0  0  0  0
   -3.9322   14.6154    0.8021 N   0  0  0  0  0  0  0  0  0  0  0  0
   -3.8824   15.1493   -0.5179 C   0  0  0  0  0  0  0  0  0  0  0  0
   -3.9737   14.3769   -1.5237 O   0  0  0  0  0  0  0  0  0  0  0  0
   -3.7337   16.5282   -0.7845 N   0  0  0  0  0  0  0  0  0  0  0  0
   -3.2227   16.9731   -2.0617 C   0  0  2  0  0  0  0  0  0  0  0  0
   -2.0660   16.1532   -2.5571 C   0  0  0  0  0  0  0  0  0  0  0  0
   -1.5130   17.1022   -3.6334 C   0  0  0  0  0  0  0  0  0  0  0  0
   -1.6974   18.4408   -2.9571 C   0  0  0  0  0  0  0  0  0  0  0  0
   -0.9775   19.5912   -3.2097 C   0  0  0  0  0  0  0  0  0  0  0  0
   -1.3038   20.7200   -2.4634 C   0  0  0  0  0  0  0  0  0  0  0  0
   -2.3107   20.6662   -1.5146 C   0  0  0  0  0  0  0  0  0  0  0  0
   -2.9896   19.4941   -1.3101 C   0  0  0  0  0  0  0  0  0  0  0  0
   -2.7044   18.3431   -2.0256 C   0  0  0  0  0  0  0  0  0  0  0  0
   -4.3437   12.2952    3.1561 C   0  0  0  0  0  0  0  0  0  0  0  0
   -3.2017   11.5648    2.6369 C   0  0  0  0  0  0  0  0  0  0  0  0
   -3.1571   10.8096    1.4583 N   0  0  0  0  0  0  0  0  0  0  0  0
   -2.1140   11.6137    3.3332 O   0  0  0  0  0  0  0  0  0  0  0  0
   -4.6957   12.0855    4.5100 C   0  0  0  0  0  0  0  0  0  0  0  0
   -7.4369   12.6178    6.9200 C   0  0  0  0  0  0  0  0  0  0  0  0
  1  2  1  0
  2  3  1  0
  3  4  2  0
  4  5  1  0
  5  6  2  0
  6  7  1  0
  7  8  1  0
  8  9  2  0
  9 10  1  0
 10 11  2  0
 11 12  1  0
 12 13  1  0
 13 14  1  0
 14 15  2  0
 14 16  1  0
 17 16  1  1
 17 18  1  0
 18 19  1  0
 19 20  1  0
 20 21  2  0
 21 22  1  0
 22 23  2  0
 23 24  1  0
 24 25  2  0
 11 26  1  0
 26 27  1  0
 27 28  1  0
 27 29  2  0
 26 30  2  0
  7 31  2  0
 31  3  1  0
 30  8  1  0
 25 17  1  0
 25 20  1  0
M  END
$$$$
GF06
     RDKit          3D

 33 36  0  0  0  0  0  0  0  0999 V2000
   -2.3832   19.7434   -2.7058 C   0  0  0  0  0  0  0  0  0  0  0  0
   -2.6830   18.3082   -2.3142 C   0  0  1  0  0  0  0  0  0  0  0  0
   -1.3378   17.6642   -1.9790 C   0  0  0  0  0  0  0  0  0  0  0  0
   -0.7801   16.9257   -3.1269 C   0  0  0  0  0  0  0  0  0  0  0  0
   -0.8953   15.5599   -3.1942 C   0  0  0  0  0  0  0  0  0  0  0  0
   -0.3638   14.9080   -4.2827 C   0  0  0  0  0  0  0  0  0  0  0  0
    0.2783   15.5867   -5.3029 C   0  0  0  0  0  0  0  0  0  0  0  0
    0.3824   16.9503   -5.2162 C   0  0  0  0  0  0  0  0  0  0  0  0
   -0.1442   17.6135   -4.1339 C   0  0  0  0  0  0  0  0  0  0  0  0
   -3.4909   18.2944   -1.1892 O   0  0  0  0  0  0  0  0  0  0  0  0
   -4.2423   17.2625   -0.7018 C   0  0  0  0  0  0  0  0  0  0  0  0
   -5.4245   17.4716   -0.0558 C   0  0  0  0  0  0  0  0  0  0  0  0
   -6.1596   16.4136    0.4233 C   0  0  0  0  0  0  0  0  0  0  0  0
   -5.6738   15.1278    0.2360 C   0  0  0  0  0  0  0  0  0  0  0  0
   -6.5067   14.0201    0.7452 C   0  0  0  0  0  0  0  0  0  0  0  0
   -6.7093   14.1701    2.1716 N   0  0  0  0  0  0  0  0  0  0  0  0
   -6.0342   13.3822    3.1337 C   0  0  0  0  0  0  0  0  0  0  0  0
   -4.9725   12.8078    2.7586 O   0  0  0  0  0  0  0  0  0  0  0  0
   -6.4675   13.1984    4.4747 N   0  0  0  0  0  0  0  0  0  0  0  0
   -5.5557   12.6692    5.4627 C   0  0  2  0  0  0  0  0  0  0  0  0
   -5.5376   11.1609    5.4744 C   0  0  0  0  0  0  0  0  0  0  0  0
   -4.8576   10.9175    6.8307 C   0  0  0  0  0  0  0  0  0  0  0  0
   -5.5220   11.9712    7.6793 C   0  0  0  0  0  0  0  0  0  0  0  0
   -5.7126   11.9545    9.0438 C   0  0  0  0  0  0  0  0  0  0  0  0
   -6.3535   13.0323    9.6192 C   0  0  0  0  0  0  0  0  0  0  0  0
   -6.7818   14.0860    8.8221 C   0  0  0  0  0  0  0  0  0  0  0  0
   -6.5787   14.0807    7.4497 C   0  0  0  0  0  0  0  0  0  0  0  0
   -5.9319   12.9975    6.8550 C   0  0  0  0  0  0  0  0  0  0  0  0
   -4.4881   14.8731   -0.4080 C   0  0  0  0  0  0  0  0  0  0  0  0
   -3.9448   13.5301   -0.5981 C   0  0  0  0  0  0  0  0  0  0  0  0
   -2.7077   13.1864    0.0133 N   0  0  0  0  0  0  0  0  0  0  0  0
   -4.4962   12.6383   -1.2728 O   0  0  0  0  0  0  0  0  0  0  0  0
   -3.7616   15.9670   -0.8851 C   0  0  0  0  0  0  0  0  0  0  0  0
  2  1  1  1
  2  3  1  0
  3  4  1  0
  4  5  2  0
  5  6  1  0
  6  7  2  0
  7  8  1  0
  8  9  2  0
  2 10  1  0
 10 11  1  0
 11 12  2  0
 12 13  1  0
 13 14  2  0
 14 15  1  0
 15 16  1  0
 16 17  1  0
 17 18  2  0
 17 19  1  0
 20 19  1  6
 20 21  1  0
 21 22  1  0
 22 23  1  0
 23 24  2  0
 24 25  1  0
 25 26  2  0
 26 27  1  0
 27 28  2  0
 14 29  1  0
 29 30  1  0
 30 31  1  0
 30 32  2  0
 29 33  2  0
  9  4  1  0
 33 11  1  0
 28 20  1  0
 28 23  1  0
M  END
$$$$
GF07
     RDKit          3D

 31 34  0  0  0  0  0  0  0  0999 V2000
   -6.8375   13.7717    7.6629 C   0  0  0  0  0  0  0  0  0  0  0  0
   -8.1875   13.3358    7.2362 C   0  0  0  0  0  0  0  0  0  0  0  0
   -9.2126   13.2896    8.1961 C   0  0  0  0  0  0  0  0  0  0  0  0
  -10.4907   12.9015    7.8375 C   0  0  0  0  0  0  0  0  0  0  0  0
  -10.7193   12.5656    6.5193 C   0  0  0  0  0  0  0  0  0  0  0  0
  -11.9690   12.1856    6.1658 F   0  0  0  0  0  0  0  0  0  0  0  0
   -9.7052   12.6144    5.5859 C   0  0  0  0  0  0  0  0  0  0  0  0
   -8.4185   13.0022    5.9346 C   0  0  0  0  0  0  0  0  0  0  0  0
   -7.3424   13.0448    4.9674 C   0  0  0  0  0  0  0  0  0  0  0  0
   -7.4361   13.9814    3.9306 C   0  0  0  0  0  0  0  0  0  0  0  0
   -6.4642   14.0675    2.9760 C   0  0  0  0  0  0  0  0  0  0  0  0
   -5.3536   13.2157    3.0209 C   0  0  0  0  0  0  0  0  0  0  0  0
   -4.3494   13.4091    1.9506 C   0  0  0  0  0  0  0  0  0  0  0  0
   -4.1829   14.8134    1.6203 N   0  0  0  0  0  0  0  0  0  0  0  0
   -4.1651   15.2670    0.2861 C   0  0  0  0  0  0  0  0  0  0  0  0
   -4.3038   14.4241   -0.6328 O   0  0  0  0  0  0  0  0  0  0  0  0
   -3.9970   16.6341   -0.0521 N   0  0  0  0  0  0  0  0  0  0  0  0
   -3.6454   16.9555   -1.4261 C   0  0  2  0  0  0  0  0  0  0  0  0
   -2.2342   16.4701   -1.6582 C   0  0  0  0  0  0  0  0  0  0  0  0
   -1.6899   17.4617   -2.6481 C   0  0  0  0  0  0  0  0  0  0  0  0
   -2.3572   18.7274   -2.2838 C   0  0  0  0  0  0  0  0  0  0  0  0
   -2.0201   20.0642   -2.5401 C   0  0  0  0  0  0  0  0  0  0  0  0
   -2.8412   21.0648   -2.0786 C   0  0  0  0  0  0  0  0  0  0  0  0
   -3.9964   20.7636   -1.3639 C   0  0  0  0  0  0  0  0  0  0  0  0
   -4.3066   19.4474   -1.1246 C   0  0  0  0  0  0  0  0  0  0  0  0
   -3.4904   18.4304   -1.5823 C   0  0  0  0  0  0  0  0  0  0  0  0
   -5.2300   12.2927    4.0142 C   0  0  0  0  0  0  0  0  0  0  0  0
   -4.1174   11.3651    4.1115 C   0  0  0  0  0  0  0  0  0  0  0  0
   -4.0850   10.0546    3.6042 N   0  0  0  0  0  0  0  0  0  0  0  0
   -3.0602   11.7850    4.7233 O   0  0  0  0  0  0  0  0  0  0  0  0
   -6.2540   12.2435    4.9705 C   0  0  0  0  0  0  0  0  0  0  0  0
  1  2  1  0
  2  3  2  0
  3  4  1  0
  4  5  2  0
  5  6  1  0
  5  7  1  0
  7  8  2  0
  8  9  1  0
  9 10  2  0
 10 11  1  0
 11 12  2  0
 12 13  1  0
 13 14  1  0
 14 15  1  0
 15 16  2  0
 15 17  1  0
 18 17  1  1
 18 19  1  0
 19 20  1  0
 20 21  1  0
 21 22  2  0
 22 23  1  0
 23 24  2  0
 24 25  1  0
 25 26  2  0
 12 27  1  0
 27 28  1  0
 28 29  1  0
 28 30  2  0
 27 31  2  0
  8  2  1  0
 31  9  1  0
 26 18  1  0
 26 21  1  0
M  END
$$$$
GF08
     RDKit          3D

 34 37  0  0  0  0  0  0  0  0999 V2000
   -0.3255   21.2788   -3.2948 N   0  0  0  0  0  0  0  0  0  0  0  0
    0.5847   20.4677   -2.5628 C   0  0  0  0  0  0  0  0  0  0  0  0
    0.9236   20.8834   -1.4417 O   0  0  0  0  0  0  0  0  0  0  0  0
    1.0667   19.2402   -3.1190 C   0  0  0  0  0  0  0  0  0  0  0  0
    2.4629   19.0992   -3.2238 C   0  0  0  0  0  0  0  0  0  0  0  0
    3.0603   18.0105   -3.8055 C   0  0  0  0  0  0  0  0  0  0  0  0
    4.4079   17.9242   -3.8802 F   0  0  0  0  0  0  0  0  0  0  0  0
    2.2187   17.0376   -4.2945 C   0  0  0  0  0  0  0  0  0  0  0  0
    0.8615   17.1455   -4.2056 C   0  0  0  0  0  0  0  0  0  0  0  0
    0.2362   18.2621   -3.6066 C   0  0  0  0  0  0  0  0  0  0  0  0
   -1.2382   18.2337   -3.4692 C   0  0  0  0  0  0  0  0  0  0  0  0
   -1.6619   17.2108   -2.5578 N   0  0  0  0  0  0  0  0  0  0  0  0
   -2.9043   16.6459   -2.3240 C   0  0  0  0  0  0  0  0  0  0  0  0
   -3.8050   16.7196   -3.1490 O   0  0  0  0  0  0  0  0  0  0  0  0
   -3.2295   15.9344   -1.1050 N   0  0  0  0  0  0  0  0  0  0  0  0
   -4.5372   15.3302   -0.9326 C   0  0  2  0  0  0  0  0  0  0  0  0
   -4.9887   15.5377    0.4849 C   0  0  0  0  0  0  0  0  0  0  0  0
   -5.4679   14.2043    0.9549 C   0  0  0  0  0  0  0  0  0  0  0  0
   -4.8878   13.8156    2.2482 N   0  0  0  0  0  0  0  0  0  0  0  0
   -5.5903   14.0714    3.4496 C   0  0  0  0  0  0  0  0  0  0  0  0
   -6.5974   14.8245    3.3628 O   0  0  0  0  0  0  0  0  0  0  0  0
   -5.2043   13.5122    4.7466 C   0  0  0  0  0  0  0  0  0  0  0  0
   -4.5036   12.3137    4.7879 C   0  0  0  0  0  0  0  0  0  0  0  0
   -4.1255   11.7529    5.9998 C   0  0  0  0  0  0  0  0  0  0  0  0
   -4.4250   12.3532    7.2016 C   0  0  0  0  0  0  0  0  0  0  0  0
   -4.0611   11.8158    8.3962 F   0  0  0  0  0  0  0  0  0  0  0  0
   -5.1201   13.5427    7.1727 C   0  0  0  0  0  0  0  0  0  0  0  0
   -5.4976   14.1021    5.9521 C   0  0  0  0  0  0  0  0  0  0  0  0
   -5.0385   13.2091   -0.0756 C   0  0  0  0  0  0  0  0  0  0  0  0
   -5.1279   11.8409   -0.0267 C   0  0  0  0  0  0  0  0  0  0  0  0
   -4.6709   11.0961   -1.0945 C   0  0  0  0  0  0  0  0  0  0  0  0
   -4.1415   11.7321   -2.1724 C   0  0  0  0  0  0  0  0  0  0  0  0
   -4.0505   13.1275   -2.2216 C   0  0  0  0  0  0  0  0  0  0  0  0
   -4.5053   13.8684   -1.1595 C   0  0  0  0  0  0  0  0  0  0  0  0
  1  2  1  0
  2  3  2  0
  2  4  1  0
  4  5  2  0
  5  6  1  0
  6  7  1  0
  6  8  2  0
  8  9  1  0
  9 10  2  0
 10 11  1  0
 11 12  1  0
 12 13  1  0
 13 14  2  0
 13 15  1  0
 16 15  1  1
 16 17  1  0
 17 18  1  0
 18 19  1  0
 19 20  1  0
 20 21  2  0
 20 22  1  0
 22 23  2  0
 23 24  1  0
 24 25  2  0
 25 26  1  0
 25 27  1  0
 27 28  2  0
 18 29  1  0
 29 30  2  0
 30 31  1  0
 31 32  2  0
 32 33  1  0
 33 34  2  0
 10  4  1  0
 34 16  1  0
 28 22  1  0
 34 29  1  0
M  END
$$$$
GF09
     RDKit          3D

 32 35  0  0  0  0  0  0  0  0999 V2000
   -5.5101   17.3697   -3.4001 C   0  0  0  0  0  0  0  0  0  0  0  0
   -4.3682   18.2893   -3.5316 C   0  0  0  0  0  0  0  0  0  0  0  0
   -4.3496   19.3078   -4.4060 N   0  0  0  0  0  0  0  0  0  0  0  0
   -3.3100   20.1350   -4.5258 C   0  0  0  0  0  0  0  0  0  0  0  0
   -2.1771   19.9685   -3.7285 C   0  0  0  0  0  0  0  0  0  0  0  0
   -0.7051   21.1651   -3.9212 Br  0  0  0  0  0  0  0  0  0  0  0  0
   -2.1978   18.9546   -2.8589 N   0  0  0  0  0  0  0  0  0  0  0  0
   -3.2607   18.1129   -2.7398 C   0  0  0  0  0  0  0  0  0  0  0  0
   -3.1677   17.0508   -1.7701 C   0  0  0  0  0  0  0  0  0  0  0  0
   -2.1082   16.1621   -1.8059 C   0  0  0  0  0  0  0  0  0  0  0  0
   -2.0000   15.1429   -0.9000 C   0  0  0  0  0  0  0  0  0  0  0  0
   -2.9993   15.0257    0.0710 C   0  0  0  0  0  0  0  0  0  0  0  0
   -4.0478   15.9159    0.0966 C   0  0  0  0  0  0  0  0  0  0  0  0
   -4.1705   16.9456   -0.8086 C   0  0  0  0  0  0  0  0  0  0  0  0
   -5.4129   17.7279   -0.5258 C   0  0  0  0  0  0  0  0  0  0  0  0
   -6.2563   16.6201    0.1336 C   0  0  0  0  0  0  0  0  0  0  0  0
   -5.2064   16.0219    1.0152 C   0  0  1  0  0  0  0  0  0  0  0  0
   -5.5453   14.7973    1.6559 N   0  0  0  0  0  0  0  0  0  0  0  0
   -5.3793   14.6735    3.0649 C   0  0  0  0  0  0  0  0  0  0  0  0
   -5.2543   15.7191    3.7867 O   0  0  0  0  0  0  0  0  0  0  0  0
   -5.3360   13.4515    3.7734 N   0  0  0  0  0  0  0  0  0  0  0  0
   -5.2298   13.4209    5.2397 C   0  0  0  0  0  0  0  0  0  0  0  0
   -6.3806   12.8291    5.8869 C   0  0  0  0  0  0  0  0  0  0  0  0
   -7.6579   13.3286    5.6503 C   0  0  0  0  0  0  0  0  0  0  0  0
   -8.7922   12.8299    6.2077 C   0  0  0  0  0  0  0  0  0  0  0  0
   -8.6715   11.7433    7.0774 C   0  0  0  0  0  0  0  0  0  0  0  0
   -9.7775   11.2210    7.6503 F   0  0  0  0  0  0  0  0  0  0  0  0
   -7.4318   11.2206    7.3383 C   0  0  0  0  0  0  0  0  0  0  0  0
   -6.2798   11.7674    6.7391 C   0  0  0  0  0  0  0  0  0  0  0  0
   -4.9889   11.1787    7.0593 C   0  0  0  0  0  0  0  0  0  0  0  0
   -4.7933    9.7681    6.8791 N   0  0  0  0  0  0  0  0  0  0  0  0
   -4.0107   11.8170    7.4893 O   0  0  0  0  0  0  0  0  0  0  0  0
  1  2  1  0
  2  3  2  0
  3  4  1  0
  4  5  2  0
  5  6  1  0
  5  7  1  0
  7  8  2  0
  8  9  1  0
  9 10  2  0
 10 11  1  0
 11 12  2  0
 12 13  1  0
 13 14  2  0
 14 15  1  0
 15 16  1  0
 16 17  1  0
 17 18  1  6
 18 19  1  0
 19 20  2  0
 19 21  1  0
 21 22  1  0
 22 23  1  0
 23 24  2  0
 24 25  1  0
 25 26  2  0
 26 27  1  0
 26 28  1  0
 28 29  2  0
 29 30  1  0
 30 31  1  0
 30 32  2  0
  8  2  1  0
 14  9  1  0
 29 23  1  0
 17 13  1  0
M  END
$$$$
GF10
     RDKit          3D

 34 37  0  0  0  0  0  0  0  0999 V2000
   -4.7904   16.9297   -4.7637 C   0  0  0  0  0  0  0  0  0  0  0  0
   -4.4634   17.0766   -3.2880 C   0  0  1  0  0  0  0  0  0  0  0  0
   -4.3266   15.8213   -2.6432 N   0  0  0  0  0  0  0  0  0  0  0  0
   -4.5399   15.6134   -1.2779 C   0  0  0  0  0  0  0  0  0  0  0  0
   -4.3381   14.3676   -0.7241 C   0  0  0  0  0  0  0  0  0  0  0  0
   -4.5779   14.1914    0.6293 C   0  0  0  0  0  0  0  0  0  0  0  0
   -5.0086   15.2576    1.3837 C   0  0  0  0  0  0  0  0  0  0  0  0
   -5.2184   16.5138    0.8587 C   0  0  0  0  0  0  0  0  0  0  0  0
   -4.9809   16.6818   -0.4754 C   0  0  0  0  0  0  0  0  0  0  0  0
   -5.6804   17.4162    1.9630 C   0  0  0  0  0  0  0  0  0  0  0  0
   -6.3345   16.4229    2.9091 C   0  0  0  0  0  0  0  0  0  0  0  0
   -5.3247   15.2951    2.8430 C   0  0  1  0  0  0  0  0  0  0  0  0
   -5.8226   14.0379    3.3171 N   0  0  0  0  0  0  0  0  0  0  0  0
   -5.3087   13.4458    4.5121 C   0  0  0  0  0  0  0  0  0  0  0  0
   -4.4192   14.0622    5.1024 O   0  0  0  0  0  0  0  0  0  0  0  0
   -5.7716   12.2184    5.0222 N   0  0  0  0  0  0  0  0  0  0  0  0
   -5.3200   11.6386    6.2862 C   0  0  0  0  0  0  0  0  0  0  0  0
   -6.3973   11.5033    7.2852 C   0  0  0  0  0  0  0  0  0  0  0  0
   -7.5026   12.3642    7.2257 C   0  0  0  0  0  0  0  0  0  0  0  0
   -8.5215   12.2278    8.1243 C   0  0  0  0  0  0  0  0  0  0  0  0
   -8.4606   11.2458    9.0865 C   0  0  0  0  0  0  0  0  0  0  0  0
   -9.4580   11.1042    9.9735 F   0  0  0  0  0  0  0  0  0  0  0  0
   -7.3728   10.4101    9.1347 C   0  0  0  0  0  0  0  0  0  0  0  0
   -6.3041   10.5125    8.2345 C   0  0  0  0  0  0  0  0  0  0  0  0
   -5.1907    9.6007    8.4081 C   0  0  0  0  0  0  0  0  0  0  0  0
   -3.9084    9.8828    8.8995 N   0  0  0  0  0  0  0  0  0  0  0  0
   -5.3680    8.3648    8.0818 O   0  0  0  0  0  0  0  0  0  0  0  0
   -3.3652   18.0262   -3.0756 C   0  0  0  0  0  0  0  0  0  0  0  0
   -2.0757   17.4989   -3.1469 C   0  0  0  0  0  0  0  0  0  0  0  0
   -0.9535   18.2719   -2.9387 C   0  0  0  0  0  0  0  0  0  0  0  0
   -1.0778   19.6108   -2.6491 C   0  0  0  0  0  0  0  0  0  0  0  0
   -2.3532   20.1315   -2.5793 C   0  0  0  0  0  0  0  0  0  0  0  0
   -3.4914   19.3588   -2.7888 C   0  0  0  0  0  0  0  0  0  0  0  0
   -4.7159   19.9410   -2.7377 F   0  0  0  0  0  0  0  0  0  0  0  0
  2  1  1  6
  2  3  1  0
  3  4  1  0
  4  5  2  0
  5  6  1  0
  6  7  2  0
  7  8  1  0
  8  9  2  0
  8 10  1  0
 10 11  1  0
 11 12  1  0
 12 13  1  6
 13 14  1  0
 14 15  2  0
 14 16  1  0
 16 17  1  0
 17 18  1  0
 18 19  2  0
 19 20  1  0
 20 21  2  0
 21 22  1  0
 21 23  1  0
 23 24  2  0
 24 25  1  0
 25 26  1  0
 25 27  2  0
  2 28  1  0
 28 29  2  0
 29 30  1  0
 30 31  2  0
 31 32  1  0
 32 33  2  0
 33 34  1  0
  9  4  1  0
 24 18  1  0
 33 28  1  0
 12  7  1  0
M  END
$$$$
LB01
     RDKit          3D

 26 29  0  0  0  0  0  0  0  0999 V2000
    3.0558   20.4080   -4.3397 C   0  0  0  0  0  0  0  0  0  0  0  0
    1.6814   19.9691   -4.0625 N   0  0  0  0  0  0  0  0  0  0  0  0
    1.0499   18.9207   -4.6262 C   0  0  0  0  0  0  0  0  0  0  0  0
   -0.2268   18.8268   -4.1121 C   0  0  0  0  0  0  0  0  0  0  0  0
   -1.2948   17.8334   -4.4279 C   0  0  0  0  0  0  0  0  0  0  0  0
   -1.7282   17.0860   -3.3203 N   0  0  0  0  0  0  0  0  0  0  0  0
   -2.6728   17.6752   -2.4460 C   0  0  2  0  0  0  0  0  0  0  0  0
   -2.5964   17.0814   -1.0614 C   0  0  0  0  0  0  0  0  0  0  0  0
   -3.7687   16.1608   -0.9481 C   0  0  0  0  0  0  0  0  0  0  0  0
   -3.3638   14.8431   -0.3864 C   0  0  0  0  0  0  0  0  0  0  0  0
   -3.2653   14.8499    1.0566 N   0  0  0  0  0  0  0  0  0  0  0  0
   -2.6060   15.7405    1.7965 C   0  0  0  0  0  0  0  0  0  0  0  0
   -2.7481   15.3884    3.1270 C   0  0  0  0  0  0  0  0  0  0  0  0
   -3.5023   14.2791    3.1158 N   0  0  0  0  0  0  0  0  0  0  0  0
   -3.8334   13.9238    1.8854 C   0  0  0  0  0  0  0  0  0  0  0  0
   -4.6287   12.8037    1.3929 C   0  0  0  0  0  0  0  0  0  0  0  0
   -6.0040   12.8972    1.2400 C   0  0  0  0  0  0  0  0  0  0  0  0
   -6.7484   11.8301    0.7721 C   0  0  0  0  0  0  0  0  0  0  0  0
   -6.1268   10.6343    0.4437 C   0  0  0  0  0  0  0  0  0  0  0  0
   -4.7570   10.5348    0.5939 C   0  0  0  0  0  0  0  0  0  0  0  0
   -4.0249   11.6097    1.0629 C   0  0  0  0  0  0  0  0  0  0  0  0
   -4.3658   16.0615   -2.3422 C   0  0  0  0  0  0  0  0  0  0  0  0
   -4.1077   17.5009   -2.8261 C   0  0  1  0  0  0  0  0  0  0  0  0
   -4.9504   18.3091   -2.0858 O   0  0  0  0  0  0  0  0  0  0  0  0
   -0.3166   19.8517   -3.2340 N   0  0  0  0  0  0  0  0  0  0  0  0
    0.8275   20.5176   -3.2199 N   0  0  0  0  0  0  0  0  0  0  0  0
  1  2  1  0
  2  3  1  0
  3  4  2  0
  4  5  1  0
  5  6  1  0
  7  6  1  6
  7  8  1  0
  8  9  1  0
  9 10  1  0
 10 11  1  0
 11 12  1  0
 12 13  2  0
 13 14  1  0
 14 15  2  0
 15 16  1  0
 16 17  2  0
 17 18  1  0
 18 19  2  0
 19 20  1  0
 20 21  2  0
  9 22  1  0
 22 23  1  0
 23 24  1  1
  4 25  1  0
 25 26  2  0
 26  2  1  0
 23  7  1  0
 15 11  1  0
 21 16  1  0
M  END
$$$$
LB02
     RDKit          3D

 28 31  0  0  0  0  0  0  0  0999 V2000
   -1.1759   20.9458   -3.7242 C   0  0  0  0  0  0  0  0  0  0  0  0
   -0.8334   19.6270   -3.6020 O   0  0  0  0  0  0  0  0  0  0  0  0
   -0.8597   19.1211   -2.3126 C   0  0  0  0  0  0  0  0  0  0  0  0
   -2.2192   18.9427   -1.7351 C   0  0  0  0  0  0  0  0  0  0  0  0
   -2.8076   17.6450   -1.9897 N   0  0  0  0  0  0  0  0  0  0  0  0
   -2.0769   16.6160   -2.6505 C   0  0  0  0  0  0  0  0  0  0  0  0
   -0.8918   16.7013   -3.1171 O   0  0  0  0  0  0  0  0  0  0  0  0
   -2.9269   15.4053   -2.7124 C   0  0  0  0  0  0  0  0  0  0  0  0
   -3.8400   15.6486   -1.5375 C   0  0  1  0  0  0  0  0  0  0  0  0
   -3.2526   15.2704   -0.2294 C   0  0  0  0  0  0  0  0  0  0  0  0
   -3.0754   13.8965    0.0437 N   0  0  0  0  0  0  0  0  0  0  0  0
   -2.4436   13.6593    1.3090 C   0  0  0  0  0  0  0  0  0  0  0  0
   -3.4780   13.4616    2.3592 C   0  0  0  0  0  0  0  0  0  0  0  0
   -4.3761   12.4174    2.4865 C   0  0  0  0  0  0  0  0  0  0  0  0
   -5.1111   12.6598    3.5782 N   0  0  0  0  0  0  0  0  0  0  0  0
   -6.1275   11.9667    4.1622 C   0  0  0  0  0  0  0  0  0  0  0  0
   -6.7499   12.4131    5.3036 C   0  0  0  0  0  0  0  0  0  0  0  0
   -6.3567   13.5976    5.9028 C   0  0  0  0  0  0  0  0  0  0  0  0
   -5.3235   14.2805    5.2896 C   0  0  0  0  0  0  0  0  0  0  0  0
   -4.7167   13.8085    4.1437 C   0  0  0  0  0  0  0  0  0  0  0  0
   -3.7170   14.2912    3.3902 N   0  0  0  0  0  0  0  0  0  0  0  0
   -4.1018   17.1226   -1.7033 C   0  0  2  0  0  0  0  0  0  0  0  0
   -4.9315   17.3350   -2.9456 C   0  0  0  0  0  0  0  0  0  0  0  0
   -6.1123   18.0558   -3.0606 C   0  0  0  0  0  0  0  0  0  0  0  0
   -6.5332   17.9918   -4.3555 N   0  0  0  0  0  0  0  0  0  0  0  0
   -5.6872   17.2732   -5.0630 N   0  0  0  0  0  0  0  0  0  0  0  0
   -5.7334   16.9403   -6.4783 C   0  0  0  0  0  0  0  0  0  0  0  0
   -4.6964   16.8603   -4.2166 C   0  0  0  0  0  0  0  0  0  0  0  0
  1  2  1  0
  2  3  1  0
  3  4  1  0
  4  5  1  0
  5  6  1  0
  6  7  2  0
  6  8  1  0
  8  9  1  0
  9 10  1  1
 10 11  1  0
 11 12  1  0
 12 13  1  0
 13 14  2  0
 14 15  1  0
 15 16  1  0
 16 17  2  0
 17 18  1  0
 18 19  2  0
 19 20  1  0
 20 21  2  0
  9 22  1  0
 22 23  1  6
 23 24  1  0
 24 25  2  0
 25 26  1  0
 26 27  1  0
 26 28  1  0
 22  5  1  0
 28 23  2  0
 21 13  1  0
 20 15  1  0
M  END
$$$$
LB03
     RDKit          3D

 27 30  0  0  0  0  0  0  0  0999 V2000
   -0.7149   12.1344   -5.0079 C   0  0  0  0  0  0  0  0  0  0  0  0
   -0.5442   13.4254   -4.2920 C   0  0  0  0  0  0  0  0  0  0  0  0
   -1.4852   14.0930   -3.6080 N   0  0  0  0  0  0  0  0  0  0  0  0
   -0.9172   15.2273   -3.1064 C   0  0  0  0  0  0  0  0  0  0  0  0
   -1.6100   16.2643   -2.2790 C   0  0  0  0  0  0  0  0  0  0  0  0
   -2.1228   17.2657   -3.1049 O   0  0  0  0  0  0  0  0  0  0  0  0
   -1.5722   18.5015   -3.3094 C   0  0  0  0  0  0  0  0  0  0  0  0
   -2.3687   19.6278   -3.4314 C   0  0  0  0  0  0  0  0  0  0  0  0
   -1.8299   20.8759   -3.6375 C   0  0  0  0  0  0  0  0  0  0  0  0
   -0.4455   20.9829   -3.7218 C   0  0  0  0  0  0  0  0  0  0  0  0
    0.3630   19.8826   -3.6040 C   0  0  0  0  0  0  0  0  0  0  0  0
    1.8268   19.9669   -3.6901 C   0  0  0  0  0  0  0  0  0  0  0  0
    2.4602   20.5321   -2.7661 O   0  0  0  0  0  0  0  0  0  0  0  0
    2.5486   19.4369   -4.7733 N   0  0  0  0  0  0  0  0  0  0  0  0
    1.8505   18.8112   -5.9138 C   0  0  0  0  0  0  0  0  0  0  0  0
    2.3024   17.3703   -5.9337 C   0  0  0  0  0  0  0  0  0  0  0  0
    3.7657   17.1655   -5.7904 C   0  0  0  0  0  0  0  0  0  0  0  0
    4.4289   17.9913   -4.7115 C   0  0  0  0  0  0  0  0  0  0  0  0
    3.9835   19.4211   -4.9191 C   0  0  0  0  0  0  0  0  0  0  0  0
    4.7236   20.4171   -4.1603 C   0  0  0  0  0  0  0  0  0  0  0  0
    4.9582   20.3519   -2.8068 C   0  0  0  0  0  0  0  0  0  0  0  0
    5.6576   21.4175   -2.4428 N   0  0  0  0  0  0  0  0  0  0  0  0
    5.8848   22.1675   -3.5023 N   0  0  0  0  0  0  0  0  0  0  0  0
    5.3286   21.5899   -4.5778 C   0  0  0  0  0  0  0  0  0  0  0  0
   -0.2027   18.6427   -3.3977 C   0  0  0  0  0  0  0  0  0  0  0  0
    0.3599   15.1872   -3.5197 N   0  0  0  0  0  0  0  0  0  0  0  0
    0.5583   14.1096   -4.2211 O   0  0  0  0  0  0  0  0  0  0  0  0
  1  2  1  0
  2  3  2  0
  3  4  1  0
  4  5  1  0
  5  6  1  0
  6  7  1  0
  7  8  2  0
  8  9  1  0
  9 10  2  0
 10 11  1  0
 11 12  1  0
 12 13  2  0
 12 14  1  0
 14 15  1  0
 15 16  1  0
 16 17  1  0
 17 18  1  0
 18 19  1  0
 19 20  1  0
 20 21  1  0
 21 22  2  0
 22 23  1  0
 23 24  1  0
 11 25  2  0
  4 26  2  0
 26 27  1  0
 27  2  1  0
 25  7  1  0
 19 14  1  0
 24 20  2  0
M  END
$$$$
LB04
     RDKit          3D

 28 31  0  0  0  0  0  0  0  0999 V2000
    6.8531   22.6547   -4.1656 C   0  0  0  0  0  0  0  0  0  0  0  0
    6.5478   21.4572   -3.2509 C   0  0  0  0  0  0  0  0  0  0  0  0
    5.4493   20.6363   -3.8634 C   0  0  0  0  0  0  0  0  0  0  0  0
    4.1941   20.4712   -3.4101 N   0  0  0  0  0  0  0  0  0  0  0  0
    3.4921   19.6681   -4.2350 C   0  0  0  0  0  0  0  0  0  0  0  0
    2.0810   19.2238   -4.1252 C   0  0  0  0  0  0  0  0  0  0  0  0
    1.4224   19.9870   -3.0125 C   0  0  0  0  0  0  0  0  0  0  0  0
   -0.0545   19.6280   -2.8905 C   0  0  0  0  0  0  0  0  0  0  0  0
   -0.5358   19.0335   -4.1115 N   0  0  0  0  0  0  0  0  0  0  0  0
   -1.4746   17.9949   -4.0683 C   0  0  0  0  0  0  0  0  0  0  0  0
   -1.7428   17.3289   -5.1233 O   0  0  0  0  0  0  0  0  0  0  0  0
   -2.1752   17.6265   -2.8537 C   0  0  0  0  0  0  0  0  0  0  0  0
   -2.3735   16.3687   -2.3243 C   0  0  0  0  0  0  0  0  0  0  0  0
   -3.1061   16.4956   -1.1703 C   0  0  0  0  0  0  0  0  0  0  0  0
   -3.5332   15.3521   -0.3000 C   0  0  0  0  0  0  0  0  0  0  0  0
   -3.3366   17.8106   -1.0198 N   0  0  0  0  0  0  0  0  0  0  0  0
   -4.0698   18.4123    0.0325 C   0  0  0  0  0  0  0  0  0  0  0  0
   -3.7337   19.6647    0.4946 C   0  0  0  0  0  0  0  0  0  0  0  0
   -4.4324   20.2825    1.5412 C   0  0  0  0  0  0  0  0  0  0  0  0
   -5.4871   19.6106    2.1203 C   0  0  0  0  0  0  0  0  0  0  0  0
   -6.1914   20.1881    3.1487 F   0  0  0  0  0  0  0  0  0  0  0  0
   -5.8418   18.3570    1.6753 C   0  0  0  0  0  0  0  0  0  0  0  0
   -5.1244   17.7635    0.6264 C   0  0  0  0  0  0  0  0  0  0  0  0
   -2.7891   18.4997   -2.0133 N   0  0  0  0  0  0  0  0  0  0  0  0
   -0.0614   19.4729   -5.4151 C   0  0  0  0  0  0  0  0  0  0  0  0
    1.4472   19.4887   -5.4706 C   0  0  0  0  0  0  0  0  0  0  0  0
    4.3661   19.3398   -5.2225 N   0  0  0  0  0  0  0  0  0  0  0  0
    5.5292   19.9189   -4.9960 N   0  0  0  0  0  0  0  0  0  0  0  0
  1  2  1  0
  2  3  1  0
  3  4  2  0
  4  5  1  0
  5  6  1  0
  6  7  1  0
  7  8  1  0
  8  9  1  0
  9 10  1  0
 10 11  2  0
 10 12  1  0
 12 13  1  0
 13 14  2  0
 14 15  1  0
 14 16  1  0
 16 17  1  0
 17 18  2  0
 18 19  1  0
 19 20  2  0
 20 21  1  0
 20 22  1  0
 22 23  2  0
 16 24  1  0
  9 25  1  0
 25 26  1  0
  5 27  2  0
 27 28  1  0
 28  3  1  0
 26  6  1  0
 24 12  2  0
 23 17  1  0
M  END
$$$$
LB05
     RDKit          3D

 26 30  0  0  0  0  0  0  0  0999 V2000
   -2.7652   11.9265    2.5320 C   0  0  0  0  0  0  0  0  0  0  0  0
   -3.7589   12.7381    3.3126 C   0  0  0  0  0  0  0  0  0  0  0  0
   -4.3097   12.4311    4.5038 N   0  0  0  0  0  0  0  0  0  0  0  0
   -5.1297   13.3873    4.8610 N   0  0  0  0  0  0  0  0  0  0  0  0
   -5.1401   14.3485    3.9143 C   0  0  0  0  0  0  0  0  0  0  0  0
   -5.7906   15.5200    3.7838 N   0  0  0  0  0  0  0  0  0  0  0  0
   -5.6160   16.3094    2.7124 C   0  0  0  0  0  0  0  0  0  0  0  0
   -4.7535   15.9686    1.6705 C   0  0  0  0  0  0  0  0  0  0  0  0
   -4.5640   16.8245    0.5089 C   0  0  0  0  0  0  0  0  0  0  0  0
   -4.8782   18.0450    0.6641 O   0  0  0  0  0  0  0  0  0  0  0  0
   -4.0609   16.3423   -0.7271 N   0  0  0  0  0  0  0  0  0  0  0  0
   -4.6304   15.2563   -1.4981 C   0  0  0  0  0  0  0  0  0  0  0  0
   -4.5108   15.7783   -2.9172 C   0  0  0  0  0  0  0  0  0  0  0  0
   -3.5569   16.9695   -2.8612 C   0  0  0  0  0  0  0  0  0  0  0  0
   -2.9263   16.7799   -1.4907 C   0  0  1  0  0  0  0  0  0  0  0  0
   -2.2557   18.0062   -0.9731 C   0  0  0  0  0  0  0  0  0  0  0  0
   -1.3115   18.4387   -2.0142 N   0  0  0  0  0  0  0  0  0  0  0  0
   -0.9974   19.7020   -2.3491 C   0  0  0  0  0  0  0  0  0  0  0  0
   -0.0745   19.6954   -3.3727 C   0  0  0  0  0  0  0  0  0  0  0  0
    0.5628   20.8186   -4.0681 C   0  0  0  0  0  0  0  0  0  0  0  0
    0.9354   20.5449   -5.4952 C   0  0  0  0  0  0  0  0  0  0  0  0
    1.9948   20.7617   -4.4602 C   0  0  0  0  0  0  0  0  0  0  0  0
    0.1445   18.3946   -3.6294 N   0  0  0  0  0  0  0  0  0  0  0  0
   -0.5972   17.6652   -2.8145 N   0  0  0  0  0  0  0  0  0  0  0  0
   -4.0859   14.7672    1.8035 C   0  0  0  0  0  0  0  0  0  0  0  0
   -4.2646   13.9545    2.9046 C   0  0  0  0  0  0  0  0  0  0  0  0
  1  2  1  0
  2  3  1  0
  3  4  1  0
  4  5  2  0
  5  6  1  0
  6  7  2  0
  7  8  1  0
  8  9  1  0
  9 10  2  0
  9 11  1  0
 11 12  1  0
 12 13  1  0
 13 14  1  0
 14 15  1  0
 15 16  1  1
 16 17  1  0
 17 18  1  0
 18 19  2  0
 19 20  1  0
 20 21  1  0
 21 22  1  0
 19 23  1  0
 23 24  2  0
  8 25  2  0
 25 26  1  0
 26  2  2  0
 26  5  1  0
 15 11  1  0
 24 17  1  0
 22 20  1  0
M  END
$$$$
LB06
     RDKit          3D

 26 29  0  0  0  0  0  0  0  0999 V2000
   -2.3120   13.4173   -3.3441 C   0  0  0  0  0  0  0  0  0  0  0  0
   -3.3251   13.6250   -2.4398 O   0  0  0  0  0  0  0  0  0  0  0  0
   -3.3638   14.8877   -1.8871 C   0  0  1  0  0  0  0  0  0  0  0  0
   -4.7771   15.4288   -1.7827 C   0  0  0  0  0  0  0  0  0  0  0  0
   -4.6378   16.3147   -0.5367 C   0  0  2  0  0  0  0  0  0  0  0  0
   -3.7747   17.4596   -0.9306 C   0  0  0  0  0  0  0  0  0  0  0  0
   -4.1750   18.7510   -1.0404 N   0  0  0  0  0  0  0  0  0  0  0  0
   -3.1377   19.5169   -1.4160 C   0  0  0  0  0  0  0  0  0  0  0  0
   -3.1535   20.9806   -1.6471 C   0  0  0  0  0  0  0  0  0  0  0  0
   -2.0965   18.6794   -1.5351 N   0  0  0  0  0  0  0  0  0  0  0  0
   -2.5059   17.4623   -1.2400 O   0  0  0  0  0  0  0  0  0  0  0  0
   -3.9578   15.3966    0.3471 N   0  0  0  0  0  0  0  0  0  0  0  0
   -4.3151   15.0952    1.6642 C   0  0  0  0  0  0  0  0  0  0  0  0
   -5.2877   15.7025    2.1893 O   0  0  0  0  0  0  0  0  0  0  0  0
   -3.6066   14.0962    2.4749 C   0  0  0  0  0  0  0  0  0  0  0  0
   -2.3629   13.6164    2.1251 C   0  0  0  0  0  0  0  0  0  0  0  0
   -1.7166   12.6724    2.9098 C   0  0  0  0  0  0  0  0  0  0  0  0
   -2.3074   12.2052    4.0430 C   0  0  0  0  0  0  0  0  0  0  0  0
   -3.5594   12.6608    4.4333 C   0  0  0  0  0  0  0  0  0  0  0  0
   -4.1689   12.1729    5.6095 N   0  0  0  0  0  0  0  0  0  0  0  0
   -3.6952   11.2353    6.4382 C   0  0  0  0  0  0  0  0  0  0  0  0
   -4.5920   11.0369    7.4813 C   0  0  0  0  0  0  0  0  0  0  0  0
   -5.6084   11.8851    7.2431 N   0  0  0  0  0  0  0  0  0  0  0  0
   -5.3440   12.5743    6.1008 C   0  0  0  0  0  0  0  0  0  0  0  0
   -4.1879   13.6142    3.6213 C   0  0  0  0  0  0  0  0  0  0  0  0
   -2.8477   14.8860   -0.4604 C   0  0  0  0  0  0  0  0  0  0  0  0
  1  2  1  0
  3  2  1  1
  3  4  1  0
  4  5  1  0
  5  6  1  6
  6  7  2  0
  7  8  1  0
  8  9  1  0
  8 10  2  0
 10 11  1  0
  5 12  1  0
 12 13  1  0
 13 14  2  0
 13 15  1  0
 15 16  2  0
 16 17  1  0
 17 18  2  0
 18 19  1  0
 19 20  1  0
 20 21  1  0
 21 22  2  0
 22 23  1  0
 23 24  2  0
 19 25  2  0
 12 26  1  0
 26  3  1  0
 11  6  1  0
 25 15  1  0
 24 20  1  0
M  END
$$$$
LB07
     RDKit          3D

 25 28  0  0  0  0  0  0  0  0999 V2000
   -2.9963   14.9721   -1.6156 C   0  0  0  0  0  0  0  0  0  0  0  0
   -2.5486   16.3901   -1.6051 C   0  0  0  0  0  0  0  0  0  0  0  0
   -1.4719   16.9094   -2.2531 C   0  0  0  0  0  0  0  0  0  0  0  0
   -1.3654   18.2607   -2.0144 C   0  0  0  0  0  0  0  0  0  0  0  0
   -0.3236   19.2058   -2.5423 C   0  0  0  0  0  0  0  0  0  0  0  0
   -0.5893   20.4088   -3.0047 C   0  0  0  0  0  0  0  0  0  0  0  0
    1.0712   21.0384   -3.4791 S   0  0  0  0  0  0  0  0  0  0  0  0
    1.8879   19.5538   -2.9714 C   0  0  0  0  0  0  0  0  0  0  0  0
    3.3772   19.3167   -3.0679 C   0  0  0  0  0  0  0  0  0  0  0  0
    3.7966   19.3723   -4.4993 C   0  0  0  0  0  0  0  0  0  0  0  0
    4.7899   20.3778   -4.7523 N   0  0  0  0  0  0  0  0  0  0  0  0
    6.1048   20.5579   -4.1717 C   0  0  0  0  0  0  0  0  0  0  0  0
    6.8445   21.2682   -5.2863 C   0  0  0  0  0  0  0  0  0  0  0  0
    5.8340   22.1467   -5.7735 O   0  0  0  0  0  0  0  0  0  0  0  0
    4.6259   21.4352   -5.6837 C   0  0  0  0  0  0  0  0  0  0  0  0
    3.5658   21.6895   -6.3232 O   0  0  0  0  0  0  0  0  0  0  0  0
    0.9304   18.8501   -2.5572 N   0  0  0  0  0  0  0  0  0  0  0  0
   -2.4205   18.5630   -1.1905 C   0  0  0  0  0  0  0  0  0  0  0  0
   -2.7830   19.8727   -0.6305 C   0  0  0  0  0  0  0  0  0  0  0  0
   -3.1174   17.4171   -0.9596 N   0  0  0  0  0  0  0  0  0  0  0  0
   -4.2986   17.2923   -0.1446 C   0  0  0  0  0  0  0  0  0  0  0  0
   -4.3609   17.3774    1.1930 N   0  0  0  0  0  0  0  0  0  0  0  0
   -5.6387   17.2092    1.6045 C   0  0  0  0  0  0  0  0  0  0  0  0
   -6.3767   17.0164    0.4924 N   0  0  0  0  0  0  0  0  0  0  0  0
   -5.5579   17.0697   -0.5408 N   0  0  0  0  0  0  0  0  0  0  0  0
  1  2  1  0
  2  3  2  0
  3  4  1  0
  4  5  1  0
  5  6  2  0
  6  7  1  0
  7  8  1  0
  8  9  1  0
  9 10  1  0
 10 11  1  0
 11 12  1  0
 12 13  1  0
 13 14  1  0
 14 15  1  0
 15 16  2  0
  8 17  2  0
  4 18  2  0
 18 19  1  0
 18 20  1  0
 20 21  1  0
 21 22  2  0
 22 23  1  0
 23 24  2  0
 24 25  1  0
 20  2  1  0
 25 21  1  0
 17  5  1  0
 15 11  1  0
M  END
$$$$
LB08
     RDKit          3D

 25 29  0  0  0  0  0  0  0  0999 V2000
   -8.1865   11.7560    2.2292 C   0  0  0  0  0  0  0  0  0  0  0  0
   -6.7098   11.7987    1.9625 C   0  0  0  0  0  0  0  0  0  0  0  0
   -6.0787   10.7610    1.3148 C   0  0  0  0  0  0  0  0  0  0  0  0
   -4.7319   10.8420    1.0928 C   0  0  0  0  0  0  0  0  0  0  0  0
   -4.0049   11.9241    1.4978 C   0  0  0  0  0  0  0  0  0  0  0  0
   -2.6945   12.2777    1.4207 N   0  0  0  0  0  0  0  0  0  0  0  0
   -2.5717   13.4711    1.9998 N   0  0  0  0  0  0  0  0  0  0  0  0
   -3.7585   13.8925    2.4445 C   0  0  0  0  0  0  0  0  0  0  0  0
   -4.0792   15.1514    3.1439 C   0  0  0  0  0  0  0  0  0  0  0  0
   -4.8824   15.9755    2.3134 N   0  0  0  0  0  0  0  0  0  0  0  0
   -4.1777   16.7042    1.2700 C   0  0  0  0  0  0  0  0  0  0  0  0
   -3.3333   16.6003    0.4552 N   0  0  0  0  0  0  0  0  0  0  0  0
   -2.9037   17.4858   -0.3775 N   0  0  0  0  0  0  0  0  0  0  0  0
   -1.9592   17.5540   -1.3710 C   0  0  0  0  0  0  0  0  0  0  0  0
   -1.9537   18.8036   -1.9334 C   0  0  0  0  0  0  0  0  0  0  0  0
   -1.1127   19.3405   -3.0302 C   0  0  0  0  0  0  0  0  0  0  0  0
    0.2245   18.5887   -2.9966 C   0  0  0  0  0  0  0  0  0  0  0  0
    1.1582   19.5001   -3.7370 C   0  0  0  0  0  0  0  0  0  0  0  0
    0.7446   20.8820   -3.2660 C   0  0  0  0  0  0  0  0  0  0  0  0
   -0.6705   20.7494   -2.7464 C   0  0  0  0  0  0  0  0  0  0  0  0
   -2.9181   19.5194   -1.2690 N   0  0  0  0  0  0  0  0  0  0  0  0
   -3.4445   18.6643   -0.3511 C   0  0  0  0  0  0  0  0  0  0  0  0
   -4.6735   18.4910    0.9794 S   0  0  0  0  0  0  0  0  0  0  0  0
   -4.6484   12.9369    2.1353 N   0  0  0  0  0  0  0  0  0  0  0  0
   -5.9633   12.8444    2.3453 N   0  0  0  0  0  0  0  0  0  0  0  0
  1  2  1  0
  2  3  1  0
  3  4  2  0
  4  5  1  0
  5  6  2  0
  6  7  1  0
  7  8  2  0
  8  9  1  0
  9 10  1  0
 10 11  1  0
 11 12  2  0
 12 13  1  0
 13 14  1  0
 14 15  2  0
 15 16  1  0
 16 17  1  0
 17 18  1  0
 18 19  1  0
 19 20  1  0
 15 21  1  0
 21 22  2  0
 22 23  1  0
  8 24  1  0
 24 25  1  0
 25  2  2  0
 24  5  1  0
 23 11  1  0
 22 13  1  0
 20 16  1  0
M  END
$$$$
LB09
     RDKit          3D

 27 30  0  0  0  0  0  0  0  0999 V2000
   -8.9392   17.4363    2.7471 C   0  0  0  0  0  0  0  0  0  0  0  0
   -7.6174   17.3212    2.0243 C   0  0  0  0  0  0  0  0  0  0  0  0
   -7.1078   18.2160    1.2231 O   0  0  0  0  0  0  0  0  0  0  0  0
   -5.9560   17.9017    0.7154 C   0  0  0  0  0  0  0  0  0  0  0  0
   -5.1146   18.6522   -0.1981 C   0  0  0  0  0  0  0  0  0  0  0  0
   -3.8892   18.2705   -0.6665 C   0  0  0  0  0  0  0  0  0  0  0  0
   -3.4174   19.2513   -1.4707 N   0  0  0  0  0  0  0  0  0  0  0  0
   -4.3225   20.2529   -1.5209 N   0  0  0  0  0  0  0  0  0  0  0  0
   -4.1340   21.4624   -2.2863 C   0  0  0  0  0  0  0  0  0  0  0  0
   -5.3587   19.8804   -0.7413 C   0  0  0  0  0  0  0  0  0  0  0  0
   -5.6835   16.6689    1.2398 N   0  0  0  0  0  0  0  0  0  0  0  0
   -6.7155   16.2930    2.0619 C   0  0  0  0  0  0  0  0  0  0  0  0
   -6.7980   15.0735    2.8275 C   0  0  0  0  0  0  0  0  0  0  0  0
   -7.9959   14.6089    3.0311 O   0  0  0  0  0  0  0  0  0  0  0  0
   -5.7666   14.3162    3.3886 N   0  0  0  0  0  0  0  0  0  0  0  0
   -5.9801   13.0957    4.2097 C   0  0  0  0  0  0  0  0  0  0  0  0
   -4.8800   13.2315    5.2477 C   0  0  0  0  0  0  0  0  0  0  0  0
   -4.5795   11.9109    5.8543 C   0  0  0  0  0  0  0  0  0  0  0  0
   -3.4219   11.3665    5.1614 N   0  0  0  0  0  0  0  0  0  0  0  0
   -3.7264   13.8757    4.5072 C   0  0  0  0  0  0  0  0  0  0  0  0
   -2.6721   12.9150    4.1622 C   0  0  0  0  0  0  0  0  0  0  0  0
   -2.4032   11.7823    4.9130 C   0  0  0  0  0  0  0  0  0  0  0  0
   -1.4063   10.8757    4.6069 C   0  0  0  0  0  0  0  0  0  0  0  0
   -0.6213   11.0871    3.4965 C   0  0  0  0  0  0  0  0  0  0  0  0
   -0.8504   12.2002    2.7191 C   0  0  0  0  0  0  0  0  0  0  0  0
   -1.8605   13.0922    3.0539 C   0  0  0  0  0  0  0  0  0  0  0  0
   -4.3515   14.5579    3.3064 C   0  0  0  0  0  0  0  0  0  0  0  0
  1  2  1  0
  2  3  1  0
  3  4  1  0
  4  5  1  0
  5  6  1  0
  6  7  2  0
  7  8  1  0
  8  9  1  0
  8 10  1  0
  4 11  2  0
 11 12  1  0
 12 13  1  0
 13 14  2  0
 13 15  1  0
 15 16  1  0
 16 17  1  0
 17 18  1  0
 18 19  1  0
 17 20  1  0
 20 21  1  0
 21 22  2  0
 22 23  1  0
 23 24  2  0
 24 25  1  0
 25 26  2  0
 20 27  1  0
 12  2  2  0
 27 15  1  0
 10  5  2  0
 26 21  1  0
M  END
$$$$
LB10
     RDKit          3D

 28 31  0  0  0  0  0  0  0  0999 V2000
    0.1564   23.7509   -6.3978 C   0  0  0  0  0  0  0  0  0  0  0  0
    0.9575   22.5726   -5.9034 C   0  0  0  0  0  0  0  0  0  0  0  0
    1.1826   22.6510   -4.4099 C   0  0  0  0  0  0  0  0  0  0  0  0
    1.9956   21.5150   -3.9776 N   0  0  0  0  0  0  0  0  0  0  0  0
    1.4258   20.4192   -3.4786 C   0  0  0  0  0  0  0  0  0  0  0  0
   -0.3277   20.2840   -3.3222 S   0  0  0  0  0  0  0  0  0  0  0  0
   -0.8288   18.6995   -2.5925 C   0  0  0  0  0  0  0  0  0  0  0  0
   -1.3123   17.7539   -3.5884 C   0  0  0  0  0  0  0  0  0  0  0  0
   -1.2760   18.1270   -4.8130 O   0  0  0  0  0  0  0  0  0  0  0  0
   -1.8313   16.4257   -3.3098 C   0  0  0  0  0  0  0  0  0  0  0  0
   -2.0377   15.8806   -2.0916 N   0  0  0  0  0  0  0  0  0  0  0  0
   -2.5163   14.6566   -2.1805 N   0  0  0  0  0  0  0  0  0  0  0  0
   -2.8620   13.7569   -1.0642 C   0  0  0  0  0  0  0  0  0  0  0  0
   -1.6366   13.0898   -0.5331 C   0  0  0  0  0  0  0  0  0  0  0  0
   -2.6252   14.3960   -3.4667 N   0  0  0  0  0  0  0  0  0  0  0  0
   -2.2186   15.4469   -4.2001 C   0  0  0  0  0  0  0  0  0  0  0  0
   -2.1918   15.5323   -5.7012 C   0  0  0  0  0  0  0  0  0  0  0  0
    2.2125   19.4148   -3.0963 N   0  0  0  0  0  0  0  0  0  0  0  0
    3.5401   19.5199   -3.2171 C   0  0  0  0  0  0  0  0  0  0  0  0
    4.8584   18.4174   -2.8201 S   0  0  0  0  0  0  0  0  0  0  0  0
    6.2065   19.4410   -3.3311 C   0  0  0  0  0  0  0  0  0  0  0  0
    5.5563   20.5738   -3.7789 C   0  0  0  0  0  0  0  0  0  0  0  0
    4.2113   20.6112   -3.7200 C   0  0  0  0  0  0  0  0  0  0  0  0
    3.3145   21.6447   -4.1085 C   0  0  0  0  0  0  0  0  0  0  0  0
    3.7639   22.7311   -4.5967 O   0  0  0  0  0  0  0  0  0  0  0  0
    6.6763   21.5129   -4.2562 C   0  0  0  0  0  0  0  0  0  0  0  0
    7.7991   21.0997   -3.3390 C   0  0  0  0  0  0  0  0  0  0  0  0
    7.6784   19.5830   -3.4581 C   0  0  0  0  0  0  0  0  0  0  0  0
  1  2  1  0
  2  3  1  0
  3  4  1  0
  4  5  1  0
  5  6  1  0
  6  7  1  0
  7  8  1  0
  8  9  2  0
  8 10  1  0
 10 11  2  0
 11 12  1  0
 12 13  1  0
 13 14  1  0
 12 15  1  0
 15 16  2  0
 16 17  1  0
  5 18  2  0
 18 19  1  0
 19 20  1  0
 20 21  1  0
 21 22  2  0
 22 23  1  0
 23 24  1  0
 24 25  2  0
 22 26  1  0
 26 27  1  0
 27 28  1  0
 24  4  1  0
 16 10  1  0
 23 19  2  0
 28 21  1  0
M  END
$$$$
KH01
     RDKit          3D

 34 38  0  0  0  0  0  0  0  0999 V2000
   -0.9318   15.9915   -6.7259 C   0  0  0  0  0  0  0  0  0  0  0  0
    0.0225   15.7709   -5.5716 C   0  0  2  0  0  0  0  0  0  0  0  0
   -0.3231   14.6288   -4.7052 C   0  0  0  0  0  0  0  0  0  0  0  0
   -1.6293   14.6705   -4.0363 C   0  0  0  0  0  0  0  0  0  0  0  0
   -2.7794   15.0105   -4.6472 N   0  0  0  0  0  0  0  0  0  0  0  0
   -3.7563   14.9455   -3.7664 N   0  0  0  0  0  0  0  0  0  0  0  0
   -3.2595   14.5702   -2.5980 C   0  0  0  0  0  0  0  0  0  0  0  0
   -1.9455   14.3991   -2.7601 N   0  0  0  0  0  0  0  0  0  0  0  0
   -1.0246   13.9882   -1.7218 C   0  0  0  0  0  0  0  0  0  0  0  0
    0.4138   17.0299   -4.9010 C   0  0  0  0  0  0  0  0  0  0  0  0
   -0.5521   17.9344   -4.4416 C   0  0  0  0  0  0  0  0  0  0  0  0
   -0.2318   19.1291   -3.8395 C   0  0  0  0  0  0  0  0  0  0  0  0
   -1.2325   20.0262   -3.3837 N   0  0  0  0  0  0  0  0  0  0  0  0
   -2.6775   20.0929   -3.4347 C   0  0  0  0  0  0  0  0  0  0  0  0
   -2.5494   21.6118   -3.3808 C   0  0  0  0  0  0  0  0  0  0  0  0
   -1.2441   21.2802   -2.6608 C   0  0  0  0  0  0  0  0  0  0  0  0
    1.0683   19.4235   -3.6946 N   0  0  0  0  0  0  0  0  0  0  0  0
    2.0609   18.6362   -4.0943 C   0  0  0  0  0  0  0  0  0  0  0  0
    3.4443   18.9271   -3.9515 N   0  0  0  0  0  0  0  0  0  0  0  0
    4.5823   18.0433   -4.1106 C   0  0  0  0  0  0  0  0  0  0  0  0
    5.7471   18.8918   -3.8416 C   0  0  0  0  0  0  0  0  0  0  0  0
    5.3633   20.1640   -3.5480 C   0  0  0  0  0  0  0  0  0  0  0  0
    6.2550   21.1826   -3.2512 C   0  0  0  0  0  0  0  0  0  0  0  0
    7.6069   20.9225   -3.2456 C   0  0  0  0  0  0  0  0  0  0  0  0
    8.0304   19.6272   -3.5428 C   0  0  0  0  0  0  0  0  0  0  0  0
    7.1180   18.6342   -3.8344 C   0  0  0  0  0  0  0  0  0  0  0  0
    7.5781   17.2688   -4.1469 C   0  0  0  0  0  0  0  0  0  0  0  0
    8.8429   17.0683   -3.6284 F   0  0  0  0  0  0  0  0  0  0  0  0
    7.6573   17.0327   -5.5027 F   0  0  0  0  0  0  0  0  0  0  0  0
    6.7640   16.2956   -3.5664 F   0  0  0  0  0  0  0  0  0  0  0  0
    3.9082   20.2353   -3.6054 C   0  0  0  0  0  0  0  0  0  0  0  0
    3.1800   21.2604   -3.3905 O   0  0  0  0  0  0  0  0  0  0  0  0
    1.7248   17.4252   -4.7041 C   0  0  0  0  0  0  0  0  0  0  0  0
    2.7011   16.5979   -5.0907 F   0  0  0  0  0  0  0  0  0  0  0  0
  2  1  1  1
  2  3  1  0
  3  4  1  0
  4  5  2  0
  5  6  1  0
  6  7  2  0
  7  8  1  0
  8  9  1  0
  2 10  1  0
 10 11  2  0
 11 12  1  0
 12 13  1  0
 13 14  1  0
 14 15  1  0
 15 16  1  0
 12 17  2  0
 17 18  1  0
 18 19  1  0
 19 20  1  0
 20 21  1  0
 21 22  2  0
 22 23  1  0
 23 24  2  0
 24 25  1  0
 25 26  2  0
 26 27  1  0
 27 28  1  0
 27 29  1  0
 27 30  1  0
 22 31  1  0
 31 32  2  0
 18 33  2  0
 33 34  1  0
  8  4  1  0
 33 10  1  0
 16 13  1  0
 31 19  1  0
 26 21  1  0
M  END
$$$$
KH02
     RDKit          3D

 32 34  0  0  0  0  0  0  0  0999 V2000
   -3.9088   19.2398   -2.2408 C   0  0  0  0  0  0  0  0  0  0  0  0
   -2.5202   18.7527   -2.0011 C   0  0  2  0  0  0  0  0  0  0  0  0
   -1.5709   19.0773   -3.1291 C   0  0  0  0  0  0  0  0  0  0  0  0
   -1.4354   20.5077   -3.4285 C   0  0  0  0  0  0  0  0  0  0  0  0
   -2.4030   21.4389   -3.4174 N   0  0  0  0  0  0  0  0  0  0  0  0
   -1.8862   22.6071   -3.7424 N   0  0  0  0  0  0  0  0  0  0  0  0
   -0.5832   22.4241   -3.9625 C   0  0  0  0  0  0  0  0  0  0  0  0
   -0.2987   21.1322   -3.7707 N   0  0  0  0  0  0  0  0  0  0  0  0
    1.0320   20.5512   -3.9207 C   0  0  0  0  0  0  0  0  0  0  0  0
   -2.5519   17.2842   -1.8306 C   0  0  0  0  0  0  0  0  0  0  0  0
   -3.0632   16.7773   -0.6220 C   0  0  0  0  0  0  0  0  0  0  0  0
   -3.1481   15.4396   -0.3621 C   0  0  0  0  0  0  0  0  0  0  0  0
   -3.6415   14.8662    0.8082 N   0  0  0  0  0  0  0  0  0  0  0  0
   -3.4980   13.5138    1.1613 C   0  0  0  0  0  0  0  0  0  0  0  0
   -3.0695   12.6411    0.3739 O   0  0  0  0  0  0  0  0  0  0  0  0
   -3.8713   13.0995    2.5310 C   0  0  0  0  0  0  0  0  0  0  0  0
   -3.6826   11.7997    2.9700 C   0  0  0  0  0  0  0  0  0  0  0  0
   -4.0427   11.4446    4.2579 C   0  0  0  0  0  0  0  0  0  0  0  0
   -4.5821   12.4157    5.0600 C   0  0  0  0  0  0  0  0  0  0  0  0
   -4.9944   12.1125    6.4549 C   0  0  0  0  0  0  0  0  0  0  0  0
   -3.7301   12.1461    7.3017 C   0  0  0  0  0  0  0  0  0  0  0  0
   -5.6409   10.7598    6.4719 C   0  0  0  0  0  0  0  0  0  0  0  0
   -5.9211   13.1934    6.9764 C   0  0  0  0  0  0  0  0  0  0  0  0
   -4.7729   13.7231    4.6209 C   0  0  0  0  0  0  0  0  0  0  0  0
   -4.3981   13.9985    3.3513 N   0  0  0  0  0  0  0  0  0  0  0  0
   -2.6873   14.6014   -1.3900 C   0  0  0  0  0  0  0  0  0  0  0  0
   -2.1855   15.0633   -2.5748 C   0  0  0  0  0  0  0  0  0  0  0  0
   -1.7044   14.1266   -3.6449 C   0  0  0  0  0  0  0  0  0  0  0  0
   -0.8365   14.8034   -4.4869 F   0  0  0  0  0  0  0  0  0  0  0  0
   -0.9802   13.1265   -3.0252 F   0  0  0  0  0  0  0  0  0  0  0  0
   -2.7835   13.6122   -4.3130 F   0  0  0  0  0  0  0  0  0  0  0  0
   -2.1258   16.4252   -2.7779 C   0  0  0  0  0  0  0  0  0  0  0  0
  2  1  1  6
  2  3  1  0
  3  4  1  0
  4  5  2  0
  5  6  1  0
  6  7  2  0
  7  8  1  0
  8  9  1  0
  2 10  1  0
 10 11  2  0
 11 12  1  0
 12 13  1  0
 13 14  1  0
 14 15  2  0
 14 16  1  0
 16 17  2  0
 17 18  1  0
 18 19  2  0
 19 20  1  0
 20 21  1  0
 20 22  1  0
 20 23  1  0
 19 24  1  0
 24 25  2  0
 12 26  2  0
 26 27  1  0
 27 28  1  0
 28 29  1  0
 28 30  1  0
 28 31  1  0
 27 32  2  0
  8  4  1  0
 32 10  1  0
 25 16  1  0
M  END
$$$$
KH03
     RDKit          3D

 46 51  0  0  0  0  0  0  0  0999 V2000
   -7.1942   18.0299   -1.0909 C   0  0  0  0  0  0  0  0  0  0  0  0
   -5.7472   18.2443   -0.7507 C   0  0  2  0  0  0  0  0  0  0  0  0
   -5.0807   19.0505   -1.8034 C   0  0  0  0  0  0  0  0  0  0  0  0
   -3.7490   19.4932   -1.3287 C   0  0  0  0  0  0  0  0  0  0  0  0
   -3.3973   19.6400   -0.0142 N   0  0  0  0  0  0  0  0  0  0  0  0
   -2.1462   20.0212    0.0889 N   0  0  0  0  0  0  0  0  0  0  0  0
   -1.6362   20.1373   -1.1456 C   0  0  0  0  0  0  0  0  0  0  0  0
   -2.6358   19.8082   -2.0118 N   0  0  0  0  0  0  0  0  0  0  0  0
   -2.4739   19.7956   -3.4369 C   0  0  0  0  0  0  0  0  0  0  0  0
   -5.0727   16.9490   -0.4687 C   0  0  0  0  0  0  0  0  0  0  0  0
   -4.2907   16.3521   -1.4330 C   0  0  0  0  0  0  0  0  0  0  0  0
   -3.6589   15.1421   -1.1768 C   0  0  0  0  0  0  0  0  0  0  0  0
   -2.8488   14.5047   -2.1535 N   0  0  0  0  0  0  0  0  0  0  0  0
   -2.4721   13.1494   -2.0109 C   0  0  0  0  0  0  0  0  0  0  0  0
   -2.8142   12.5266   -0.9891 O   0  0  0  0  0  0  0  0  0  0  0  0
   -1.6969   12.5212   -3.0591 C   0  0  0  0  0  0  0  0  0  0  0  0
   -1.4368   11.1578   -2.9824 C   0  0  0  0  0  0  0  0  0  0  0  0
   -0.7055   10.4868   -3.9353 C   0  0  0  0  0  0  0  0  0  0  0  0
   -0.4680    9.0286   -3.7881 C   0  0  0  0  0  0  0  0  0  0  0  0
    0.9950    8.6041   -3.8969 C   0  0  0  0  0  0  0  0  0  0  0  0
    0.2490    8.5087   -2.5955 C   0  0  0  0  0  0  0  0  0  0  0  0
   -0.2149   11.1939   -5.0023 C   0  0  0  0  0  0  0  0  0  0  0  0
   -0.4821   12.5578   -5.0676 C   0  0  0  0  0  0  0  0  0  0  0  0
    0.0603   13.3256   -6.2410 C   0  0  0  0  0  0  0  0  0  0  0  0
   -0.9689   14.0783   -6.8098 F   0  0  0  0  0  0  0  0  0  0  0  0
    1.0292   14.2131   -5.8085 F   0  0  0  0  0  0  0  0  0  0  0  0
    0.5481   12.4860   -7.2080 F   0  0  0  0  0  0  0  0  0  0  0  0
   -1.2020   13.1769   -4.1143 N   0  0  0  0  0  0  0  0  0  0  0  0
   -3.8430   14.5917    0.0333 N   0  0  0  0  0  0  0  0  0  0  0  0
   -4.5923   15.1224    1.0157 C   0  0  0  0  0  0  0  0  0  0  0  0
   -4.7302   14.4561    2.2854 N   0  0  0  0  0  0  0  0  0  0  0  0
   -5.6609   14.6805    3.3429 C   0  0  0  0  0  0  0  0  0  0  0  0
   -5.3097   13.6937    4.3803 C   0  0  0  0  0  0  0  0  0  0  0  0
   -4.2453   12.9202    3.9890 C   0  0  0  0  0  0  0  0  0  0  0  0
   -3.7335   11.9300    4.7861 C   0  0  0  0  0  0  0  0  0  0  0  0
   -4.2559   11.6435    6.0400 C   0  0  0  0  0  0  0  0  0  0  0  0
   -5.3329   12.4132    6.4565 C   0  0  0  0  0  0  0  0  0  0  0  0
   -5.8365   13.4032    5.6471 C   0  0  0  0  0  0  0  0  0  0  0  0
   -6.9879   14.2184    6.1071 C   0  0  0  0  0  0  0  0  0  0  0  0
   -8.0274   13.9895    5.2448 F   0  0  0  0  0  0  0  0  0  0  0  0
   -7.3697   13.7584    7.3549 F   0  0  0  0  0  0  0  0  0  0  0  0
   -6.6234   15.5472    6.1760 F   0  0  0  0  0  0  0  0  0  0  0  0
   -3.8735   13.3944    2.6684 C   0  0  0  0  0  0  0  0  0  0  0  0
   -2.9071   12.8929    1.9941 O   0  0  0  0  0  0  0  0  0  0  0  0
   -5.2158   16.3243    0.7515 C   0  0  0  0  0  0  0  0  0  0  0  0
   -5.9923   16.9077    1.7249 F   0  0  0  0  0  0  0  0  0  0  0  0
  2  1  1  6
  2  3  1  0
  3  4  1  0
  4  5  2  0
  5  6  1  0
  6  7  2  0
  7  8  1  0
  8  9  1  0
  2 10  1  0
 10 11  2  0
 11 12  1  0
 12 13  1  0
 13 14  1  0
 14 15  2  0
 14 16  1  0
 16 17  2  0
 17 18  1  0
 18 19  1  0
 19 20  1  0
 20 21  1  0
 18 22  2  0
 22 23  1  0
 23 24  1  0
 24 25  1  0
 24 26  1  0
 24 27  1  0
 23 28  2  0
 12 29  2  0
 29 30  1  0
 30 31  1  0
 31 32  1  0
 32 33  1  0
 33 34  2  0
 34 35  1  0
 35 36  2  0
 36 37  1  0
 37 38  2  0
 38 39  1  0
 39 40  1  0
 39 41  1  0
 39 42  1  0
 34 43  1  0
 43 44  2  0
 30 45  2  0
 45 46  1  0
  8  4  1  0
 45 10  1  0
 28 16  1  0
 43 31  1  0
 21 19  1  0
 38 33  1  0
M  END
$$$$
KH04
     RDKit          3D

 32 35  0  0  0  0  0  0  0  0999 V2000
   -5.9854   17.9520   -2.5812 C   0  0  0  0  0  0  0  0  0  0  0  0
   -4.5392   17.8293   -2.1990 C   0  0  2  0  0  0  0  0  0  0  0  0
   -3.4385   18.9403   -3.0470 S   0  0  0  0  0  0  0  0  0  0  0  0
   -1.8689   19.1769   -2.2532 C   0  0  0  0  0  0  0  0  0  0  0  0
   -1.3957   18.8607   -1.0583 N   0  0  0  0  0  0  0  0  0  0  0  0
   -0.1441   19.2542   -0.9361 N   0  0  0  0  0  0  0  0  0  0  0  0
    0.2345   19.8571   -2.0927 C   0  0  0  0  0  0  0  0  0  0  0  0
   -0.8335   19.8040   -2.8948 N   0  0  0  0  0  0  0  0  0  0  0  0
   -0.8668   20.3494   -4.2464 C   0  0  0  0  0  0  0  0  0  0  0  0
   -4.0697   16.4438   -2.0091 C   0  0  0  0  0  0  0  0  0  0  0  0
   -3.6347   15.6405   -3.0260 C   0  0  0  0  0  0  0  0  0  0  0  0
   -3.1889   14.3206   -2.8301 C   0  0  0  0  0  0  0  0  0  0  0  0
   -2.7823   13.5388   -3.8964 C   0  0  0  0  0  0  0  0  0  0  0  0
   -2.4015   12.8379   -4.8362 N   0  0  0  0  0  0  0  0  0  0  0  0
   -3.2029   13.8383   -1.5216 C   0  0  0  0  0  0  0  0  0  0  0  0
   -3.6273   14.5970   -0.4663 C   0  0  0  0  0  0  0  0  0  0  0  0
   -3.6476   14.1111    0.8921 N   0  0  0  0  0  0  0  0  0  0  0  0
   -4.8593   14.0317    1.6831 C   0  0  0  0  0  0  0  0  0  0  0  0
   -4.4022   13.7236    3.0699 C   0  0  0  0  0  0  0  0  0  0  0  0
   -3.0718   13.4498    3.0056 C   0  0  0  0  0  0  0  0  0  0  0  0
   -2.4498   13.0821    4.2043 C   0  0  0  0  0  0  0  0  0  0  0  0
   -3.1622   13.0105    5.3738 C   0  0  0  0  0  0  0  0  0  0  0  0
   -4.5226   13.3041    5.3870 C   0  0  0  0  0  0  0  0  0  0  0  0
   -5.1745   13.6679    4.2300 C   0  0  0  0  0  0  0  0  0  0  0  0
   -6.6186   13.9961    4.1616 C   0  0  0  0  0  0  0  0  0  0  0  0
   -6.8326   15.2891    3.7266 F   0  0  0  0  0  0  0  0  0  0  0  0
   -7.1959   13.9541    5.4420 F   0  0  0  0  0  0  0  0  0  0  0  0
   -7.2692   13.0411    3.4270 F   0  0  0  0  0  0  0  0  0  0  0  0
   -2.5468   13.6687    1.6748 C   0  0  0  0  0  0  0  0  0  0  0  0
   -1.3598   13.4956    1.3065 O   0  0  0  0  0  0  0  0  0  0  0  0
   -4.0575   15.8967   -0.7309 C   0  0  0  0  0  0  0  0  0  0  0  0
   -4.6121   16.9033    0.5900 Cl  0  0  0  0  0  0  0  0  0  0  0  0
  2  1  1  6
  2  3  1  0
  3  4  1  0
  4  5  2  0
  5  6  1  0
  6  7  2  0
  7  8  1  0
  8  9  1  0
  2 10  1  0
 10 11  2  0
 11 12  1  0
 12 13  1  0
 13 14  3  0
 12 15  2  0
 15 16  1  0
 16 17  1  0
 17 18  1  0
 18 19  1  0
 19 20  2  0
 20 21  1  0
 21 22  2  0
 22 23  1  0
 23 24  2  0
 24 25  1  0
 25 26  1  0
 25 27  1  0
 25 28  1  0
 20 29  1  0
 29 30  2  0
 16 31  2  0
 31 32  1  0
  8  4  1  0
 31 10  1  0
 29 17  1  0
 24 19  1  0
M  END
$$$$
KH05
     RDKit          3D

 32 35  0  0  0  0  0  0  0  0999 V2000
   -1.3772   21.5599   -3.4009 C   0  0  0  0  0  0  0  0  0  0  0  0
   -0.2002   20.7199   -3.9149 C   0  0  2  0  0  0  0  0  0  0  0  0
    0.2343   21.1528   -5.2618 C   0  0  0  0  0  0  0  0  0  0  0  0
    0.5338   22.6068   -5.3774 C   0  0  0  0  0  0  0  0  0  0  0  0
    1.4475   23.3698   -4.7947 N   0  0  0  0  0  0  0  0  0  0  0  0
    1.3247   24.6067   -5.2179 N   0  0  0  0  0  0  0  0  0  0  0  0
    0.3107   24.6421   -6.0918 C   0  0  0  0  0  0  0  0  0  0  0  0
   -0.1871   23.4005   -6.1968 N   0  0  0  0  0  0  0  0  0  0  0  0
   -1.2985   23.0508   -7.0576 C   0  0  0  0  0  0  0  0  0  0  0  0
   -0.4610   19.2895   -3.7415 C   0  0  0  0  0  0  0  0  0  0  0  0
    0.2075   18.3529   -4.4882 C   0  0  0  0  0  0  0  0  0  0  0  0
   -0.1100   17.0338   -4.2802 C   0  0  0  0  0  0  0  0  0  0  0  0
   -1.0854   16.6588   -3.3347 C   0  0  0  0  0  0  0  0  0  0  0  0
   -1.7557   17.5854   -2.5862 C   0  0  0  0  0  0  0  0  0  0  0  0
   -2.7465   17.2693   -1.6343 N   0  0  0  0  0  0  0  0  0  0  0  0
   -2.8604   16.0519   -0.9394 C   0  0  0  0  0  0  0  0  0  0  0  0
   -2.1364   15.0770   -1.1512 O   0  0  0  0  0  0  0  0  0  0  0  0
   -3.8969   15.9485    0.0865 C   0  0  0  0  0  0  0  0  0  0  0  0
   -4.0527   14.8105    0.8753 C   0  0  0  0  0  0  0  0  0  0  0  0
   -5.0322   14.7008    1.8426 C   0  0  0  0  0  0  0  0  0  0  0  0
   -5.1592   13.4901    2.6387 C   0  0  0  0  0  0  0  0  0  0  0  0
   -4.7754   12.4018    2.0895 O   0  0  0  0  0  0  0  0  0  0  0  0
   -5.6770   13.5058    3.9477 N   0  0  0  0  0  0  0  0  0  0  0  0
   -6.0992   14.6775    4.6741 C   0  0  0  0  0  0  0  0  0  0  0  0
   -7.3724   14.1493    5.3329 C   0  0  0  0  0  0  0  0  0  0  0  0
   -6.8832   12.8210    5.8670 C   0  0  2  0  0  0  0  0  0  0  0  0
   -6.1902   13.0696    7.0484 O   0  0  0  0  0  0  0  0  0  0  0  0
   -5.8911   12.3726    4.8166 C   0  0  0  0  0  0  0  0  0  0  0  0
   -5.8940   15.7612    2.0384 C   0  0  0  0  0  0  0  0  0  0  0  0
   -5.7333   16.8844    1.2537 C   0  0  0  0  0  0  0  0  0  0  0  0
   -4.7659   16.9457    0.3249 N   0  0  0  0  0  0  0  0  0  0  0  0
   -1.4102   18.9186   -2.8214 C   0  0  0  0  0  0  0  0  0  0  0  0
  2  1  1  6
  2  3  1  0
  3  4  1  0
  4  5  2  0
  5  6  1  0
  6  7  2  0
  7  8  1  0
  8  9  1  0
  2 10  1  0
 10 11  2  0
 11 12  1  0
 12 13  2  0
 13 14  1  0
 14 15  1  0
 15 16  1  0
 16 17  2  0
 16 18  1  0
 18 19  2  0
 19 20  1  0
 20 21  1  0
 21 22  2  0
 21 23  1  0
 23 24  1  0
 24 25  1  0
 25 26  1  0
 26 27  1  1
 26 28  1  0
 20 29  2  0
 29 30  1  0
 30 31  2  0
 14 32  2  0
  8  4  1  0
 32 10  1  0
 31 18  1  0
 28 23  1  0
M  END
$$$$
KH06
     RDKit          3D

 31 34  0  0  0  0  0  0  0  0999 V2000
   -4.1266   18.6596   -1.5265 C   0  0  0  0  0  0  0  0  0  0  0  0
   -3.4127   17.3436   -1.3497 C   0  0  2  0  0  0  0  0  0  0  0  0
   -2.7944   17.2150    0.0249 C   0  0  0  0  0  0  0  0  0  0  0  0
   -3.7861   17.4685    1.0997 C   0  0  0  0  0  0  0  0  0  0  0  0
   -4.3967   18.6143    1.4388 N   0  0  0  0  0  0  0  0  0  0  0  0
   -5.1999   18.3994    2.4465 N   0  0  0  0  0  0  0  0  0  0  0  0
   -5.1151   17.1025    2.7704 C   0  0  0  0  0  0  0  0  0  0  0  0
   -4.2308   16.5212    1.9278 N   0  0  0  0  0  0  0  0  0  0  0  0
   -3.8766   15.1043    1.9764 C   0  0  0  0  0  0  0  0  0  0  0  0
   -2.3008   17.3128   -2.3386 C   0  0  0  0  0  0  0  0  0  0  0  0
   -2.3110   16.3630   -3.3380 C   0  0  0  0  0  0  0  0  0  0  0  0
   -1.2802   16.3118   -4.2787 C   0  0  0  0  0  0  0  0  0  0  0  0
   -0.2413   17.2286   -4.1990 C   0  0  0  0  0  0  0  0  0  0  0  0
   -0.2160   18.1838   -3.2070 C   0  0  0  0  0  0  0  0  0  0  0  0
    0.8454   19.1575   -3.0861 N   0  0  0  0  0  0  0  0  0  0  0  0
    1.8423   19.2653   -4.0842 C   0  0  0  0  0  0  0  0  0  0  0  0
    1.4898   18.8187   -5.2373 O   0  0  0  0  0  0  0  0  0  0  0  0
    3.1719   19.8205   -3.8979 C   0  0  0  0  0  0  0  0  0  0  0  0
    3.7667   20.0097   -2.7347 C   0  0  0  0  0  0  0  0  0  0  0  0
    5.0847   20.5819   -2.9479 C   0  0  0  0  0  0  0  0  0  0  0  0
    6.2520   21.0105   -1.7098 Cl  0  0  0  0  0  0  0  0  0  0  0  0
    5.2977   20.7428   -4.2309 C   0  0  0  0  0  0  0  0  0  0  0  0
    6.2412   21.1986   -5.2277 C   0  0  0  0  0  0  0  0  0  0  0  0
    7.5815   21.7531   -4.9455 C   0  0  0  0  0  0  0  0  0  0  0  0
    7.5209   22.5624   -3.8290 F   0  0  0  0  0  0  0  0  0  0  0  0
    8.4705   20.7111   -4.7488 F   0  0  0  0  0  0  0  0  0  0  0  0
    8.0119   22.5052   -6.0181 F   0  0  0  0  0  0  0  0  0  0  0  0
    5.6683   21.0188   -6.3935 C   0  0  0  0  0  0  0  0  0  0  0  0
    4.3394   20.4439   -6.2154 C   0  0  0  0  0  0  0  0  0  0  0  0
    4.0857   20.2656   -4.9296 C   0  0  0  0  0  0  0  0  0  0  0  0
   -1.2431   18.2163   -2.2892 C   0  0  0  0  0  0  0  0  0  0  0  0
  2  1  1  1
  2  3  1  0
  3  4  1  0
  4  5  2  0
  5  6  1  0
  6  7  2  0
  7  8  1  0
  8  9  1  0
  2 10  1  0
 10 11  2  0
 11 12  1  0
 12 13  2  0
 13 14  1  0
 14 15  1  0
 15 16  1  0
 16 17  2  0
 16 18  1  0
 18 19  2  0
 19 20  1  0
 20 21  1  0
 20 22  2  0
 22 23  1  0
 23 24  1  0
 24 25  1  0
 24 26  1  0
 24 27  1  0
 23 28  2  0
 28 29  1  0
 29 30  2  0
 14 31  2  0
  8  4  1  0
 31 10  1  0
 30 18  1  0
 30 22  1  0
M  END
$$$$
KH07
     RDKit          3D

 33 37  0  0  0  0  0  0  0  0999 V2000
   -8.7770   16.5294    3.8882 C   0  0  0  0  0  0  0  0  0  0  0  0
   -7.3756   17.0574    3.6597 C   0  0  2  0  0  0  0  0  0  0  0  0
   -7.2740   17.9665    2.4750 C   0  0  0  0  0  0  0  0  0  0  0  0
   -8.1887   19.1179    2.6876 C   0  0  0  0  0  0  0  0  0  0  0  0
   -8.9081   19.3392    3.8259 N   0  0  0  0  0  0  0  0  0  0  0  0
   -9.6180   20.4463    3.6905 N   0  0  0  0  0  0  0  0  0  0  0  0
   -9.3860   20.9622    2.4918 C   0  0  0  0  0  0  0  0  0  0  0  0
   -8.5062   20.1361    1.8863 N   0  0  0  0  0  0  0  0  0  0  0  0
   -7.9951   20.3430    0.5641 C   0  0  0  0  0  0  0  0  0  0  0  0
   -6.4395   15.9127    3.5869 C   0  0  0  0  0  0  0  0  0  0  0  0
   -6.3515   14.9620    4.5902 C   0  0  0  0  0  0  0  0  0  0  0  0
   -5.4528   13.9260    4.4450 C   0  0  0  0  0  0  0  0  0  0  0  0
   -5.3775   12.9511    5.4967 N   0  0  0  0  0  0  0  0  0  0  0  0
   -4.2264   12.0662    5.5478 C   0  0  0  0  0  0  0  0  0  0  0  0
   -4.0864   11.2243    6.8078 C   0  0  0  0  0  0  0  0  0  0  0  0
   -4.4580   10.5931    5.4706 C   0  0  0  0  0  0  0  0  0  0  0  0
   -4.6610   13.8119    3.3600 N   0  0  0  0  0  0  0  0  0  0  0  0
   -4.7147   14.7148    2.3610 C   0  0  0  0  0  0  0  0  0  0  0  0
   -3.8691   14.5930    1.2023 N   0  0  0  0  0  0  0  0  0  0  0  0
   -3.6504   15.5984    0.1840 C   0  0  0  0  0  0  0  0  0  0  0  0
   -2.7119   15.0037   -0.7833 C   0  0  0  0  0  0  0  0  0  0  0  0
   -2.3573   13.7250   -0.4182 C   0  0  0  0  0  0  0  0  0  0  0  0
   -1.4818   13.0073   -1.2076 C   0  0  0  0  0  0  0  0  0  0  0  0
   -0.9281   13.5031   -2.3651 C   0  0  0  0  0  0  0  0  0  0  0  0
   -1.2907   14.7854   -2.7208 C   0  0  0  0  0  0  0  0  0  0  0  0
   -2.1696   15.5370   -1.9499 C   0  0  0  0  0  0  0  0  0  0  0  0
   -2.5612   16.9324   -2.3414 C   0  0  0  0  0  0  0  0  0  0  0  0
   -1.8746   17.3553   -3.4422 F   0  0  0  0  0  0  0  0  0  0  0  0
   -2.3424   17.7331   -1.2406 F   0  0  0  0  0  0  0  0  0  0  0  0
   -3.9183   16.9895   -2.6101 F   0  0  0  0  0  0  0  0  0  0  0  0
   -3.0820   13.4738    0.8211 C   0  0  0  0  0  0  0  0  0  0  0  0
   -3.0179   12.3925    1.4762 O   0  0  0  0  0  0  0  0  0  0  0  0
   -5.6107   15.7526    2.5001 C   0  0  0  0  0  0  0  0  0  0  0  0
  2  1  1  6
  2  3  1  0
  3  4  1  0
  4  5  2  0
  5  6  1  0
  6  7  2  0
  7  8  1  0
  8  9  1  0
  2 10  1  0
 10 11  2  0
 11 12  1  0
 12 13  1  0
 13 14  1  0
 14 15  1  0
 15 16  1  0
 12 17  2  0
 17 18  1  0
 18 19  1  0
 19 20  1  0
 20 21  1  0
 21 22  2  0
 22 23  1  0
 23 24  2  0
 24 25  1  0
 25 26  2  0
 26 27  1  0
 27 28  1  0
 27 29  1  0
 27 30  1  0
 22 31  1  0
 31 32  2  0
 18 33  2  0
  8  4  1  0
 33 10  1  0
 16 14  1  0
 31 19  1  0
 26 21  1  0
M  END
$$$$
KH08
     RDKit          3D

 35 38  0  0  0  0  0  0  0  0999 V2000
   -9.5806   14.3103    2.9227 C   0  0  0  0  0  0  0  0  0  0  0  0
   -8.3278   14.5961    3.7668 C   0  0  2  0  0  0  0  0  0  0  0  0
   -8.8690   15.0712    5.4206 S   0  0  0  0  0  0  0  0  0  0  0  0
   -8.4719   13.7166    6.5172 C   0  0  0  0  0  0  0  0  0  0  0  0
   -7.8193   12.5781    6.2217 N   0  0  0  0  0  0  0  0  0  0  0  0
   -7.7320   11.8399    7.3228 N   0  0  0  0  0  0  0  0  0  0  0  0
   -8.3161   12.4801    8.3236 C   0  0  0  0  0  0  0  0  0  0  0  0
   -8.7785   13.6419    7.8413 N   0  0  0  0  0  0  0  0  0  0  0  0
   -9.4926   14.6881    8.5479 C   0  0  0  0  0  0  0  0  0  0  0  0
   -7.5921   15.6705    3.0653 C   0  0  0  0  0  0  0  0  0  0  0  0
   -8.1187   16.9454    3.0200 C   0  0  0  0  0  0  0  0  0  0  0  0
   -7.3809   17.8904    2.3325 C   0  0  0  0  0  0  0  0  0  0  0  0
   -6.1883   17.5988    1.7210 C   0  0  0  0  0  0  0  0  0  0  0  0
   -5.6940   16.3270    1.7838 C   0  0  0  0  0  0  0  0  0  0  0  0
   -4.4532   15.9638    1.1421 N   0  0  0  0  0  0  0  0  0  0  0  0
   -3.8857   16.8031    0.1451 C   0  0  0  0  0  0  0  0  0  0  0  0
   -4.3329   17.9854    0.0880 O   0  0  0  0  0  0  0  0  0  0  0  0
   -2.8487   16.3893   -0.7872 C   0  0  0  0  0  0  0  0  0  0  0  0
   -2.1811   17.3504   -1.5389 C   0  0  0  0  0  0  0  0  0  0  0  0
   -1.1877   17.0437   -2.4493 C   0  0  0  0  0  0  0  0  0  0  0  0
   -0.5230   18.0865   -3.2201 C   0  0  0  0  0  0  0  0  0  0  0  0
   -1.1740   19.0913   -3.5853 O   0  0  0  0  0  0  0  0  0  0  0  0
    0.8417   17.9920   -3.5662 N   0  0  0  0  0  0  0  0  0  0  0  0
    1.7482   16.9312   -3.1750 C   0  0  0  0  0  0  0  0  0  0  0  0
    3.1475   17.5243   -3.3215 C   0  0  0  0  0  0  0  0  0  0  0  0
    2.9528   18.3833   -4.5576 C   0  0  0  0  0  0  0  0  0  0  0  0
    1.5765   18.9389   -4.3717 C   0  0  0  0  0  0  0  0  0  0  0  0
   -0.8780   15.7040   -2.5837 C   0  0  0  0  0  0  0  0  0  0  0  0
   -1.5364   14.7209   -1.8380 C   0  0  0  0  0  0  0  0  0  0  0  0
   -1.1623   13.2883   -2.0232 C   0  0  0  0  0  0  0  0  0  0  0  0
   -2.3182   12.5345   -2.0927 F   0  0  0  0  0  0  0  0  0  0  0  0
   -0.4639   12.8545   -0.8986 F   0  0  0  0  0  0  0  0  0  0  0  0
   -0.3593   13.1110   -3.1229 F   0  0  0  0  0  0  0  0  0  0  0  0
   -2.4832   15.1205   -0.9835 N   0  0  0  0  0  0  0  0  0  0  0  0
   -6.3950   15.3568    2.4577 C   0  0  0  0  0  0  0  0  0  0  0  0
  2  1  1  6
  2  3  1  0
  3  4  1  0
  4  5  2  0
  5  6  1  0
  6  7  2  0
  7  8  1  0
  8  9  1  0
  2 10  1  0
 10 11  2  0
 11 12  1  0
 12 13  2  0
 13 14  1  0
 14 15  1  0
 15 16  1  0
 16 17  2  0
 16 18  1  0
 18 19  2  0
 19 20  1  0
 20 21  1  0
 21 22  2  0
 21 23  1  0
 23 24  1  0
 24 25  1  0
 25 26  1  0
 26 27  1  0
 20 28  2  0
 28 29  1  0
 29 30  1  0
 30 31  1  0
 30 32  1  0
 30 33  1  0
 29 34  2  0
 14 35  2  0
  8  4  1  0
 35 10  1  0
 34 18  1  0
 27 23  1  0
M  END
$$$$
KH09
     RDKit          3D

 30 34  0  0  0  0  0  0  0  0999 V2000
   -1.6510   18.4811   -2.2573 C   0  0  0  0  0  0  0  0  0  0  0  0
   -0.8895   19.5047   -3.0424 C   0  0  2  0  0  0  0  0  0  0  0  0
   -1.6949   20.1923   -4.1017 C   0  0  0  0  0  0  0  0  0  0  0  0
   -2.7212   19.2668   -4.6937 C   0  0  0  0  0  0  0  0  0  0  0  0
   -2.7220   17.9204   -4.6567 N   0  0  0  0  0  0  0  0  0  0  0  0
   -3.7931   17.4585   -5.2885 N   0  0  0  0  0  0  0  0  0  0  0  0
   -4.4967   18.5002   -5.7410 C   0  0  0  0  0  0  0  0  0  0  0  0
   -3.8269   19.6132   -5.3689 N   0  0  0  0  0  0  0  0  0  0  0  0
   -4.2847   20.9662   -5.6821 C   0  0  0  0  0  0  0  0  0  0  0  0
    0.2968   18.8506   -3.6462 C   0  0  0  0  0  0  0  0  0  0  0  0
    0.2157   17.6022   -4.2274 C   0  0  0  0  0  0  0  0  0  0  0  0
    1.3719   17.0522   -4.7725 C   0  0  0  0  0  0  0  0  0  0  0  0
    2.5778   17.7235   -4.7416 C   0  0  0  0  0  0  0  0  0  0  0  0
    2.6648   18.9789   -4.1584 C   0  0  0  0  0  0  0  0  0  0  0  0
    3.9069   19.6720   -4.1258 N   0  0  0  0  0  0  0  0  0  0  0  0
    4.1818   21.0330   -4.4653 C   0  0  0  0  0  0  0  0  0  0  0  0
    5.6245   21.2065   -4.2464 C   0  0  0  0  0  0  0  0  0  0  0  0
    6.1736   20.0347   -3.8075 C   0  0  0  0  0  0  0  0  0  0  0  0
    7.5438   19.9810   -3.5367 C   0  0  0  0  0  0  0  0  0  0  0  0
    8.3329   21.0982   -3.7105 C   0  0  0  0  0  0  0  0  0  0  0  0
    7.7371   22.2170   -4.1429 N   0  0  0  0  0  0  0  0  0  0  0  0
    6.4267   22.3123   -4.4145 C   0  0  0  0  0  0  0  0  0  0  0  0
    5.8080   23.5902   -4.8969 C   0  0  0  0  0  0  0  0  0  0  0  0
    6.7659   24.7452   -4.6858 C   0  0  0  0  0  0  0  0  0  0  0  0
    7.3277   24.4339   -6.0749 C   0  0  0  0  0  0  0  0  0  0  0  0
    5.9875   23.7910   -6.3876 C   0  0  0  0  0  0  0  0  0  0  0  0
    5.1228   19.0604   -3.7235 C   0  0  0  0  0  0  0  0  0  0  0  0
    5.2695   17.8595   -3.3512 O   0  0  0  0  0  0  0  0  0  0  0  0
    1.5099   19.5073   -3.6241 C   0  0  0  0  0  0  0  0  0  0  0  0
    1.6152   20.7412   -3.0556 F   0  0  0  0  0  0  0  0  0  0  0  0
  2  1  1  6
  2  3  1  0
  3  4  1  0
  4  5  2  0
  5  6  1  0
  6  7  2  0
  7  8  1  0
  8  9  1  0
  2 10  1  0
 10 11  2  0
 11 12  1  0
 12 13  2  0
 13 14  1  0
 14 15  1  0
 15 16  1  0
 16 17  1  0
 17 18  2  0
 18 19  1  0
 19 20  2  0
 20 21  1  0
 21 22  2  0
 22 23  1  0
 23 24  1  0
 24 25  1  0
 25 26  1  0
 18 27  1  0
 27 28  2  0
 14 29  2  0
 29 30  1  0
  8  4  1  0
 29 10  1  0
 27 15  1  0
 22 17  1  0
 26 23  1  0
M  END
$$$$
KH10
     RDKit          3D

 32 35  0  0  0  0  0  0  0  0999 V2000
   -3.0475   20.1142   -2.9143 C   0  0  0  0  0  0  0  0  0  0  0  0
   -2.5747   18.6651   -2.7534 C   0  0  2  0  0  0  0  0  0  0  0  0
   -2.3205   18.1440   -4.1459 C   0  0  0  0  0  0  0  0  0  0  0  0
   -1.4133   16.9768   -4.0662 C   0  0  0  0  0  0  0  0  0  0  0  0
   -0.2205   16.9876   -3.4536 N   0  0  0  0  0  0  0  0  0  0  0  0
    0.3586   15.7884   -3.5521 N   0  0  0  0  0  0  0  0  0  0  0  0
   -0.4824   15.0090   -4.2377 C   0  0  0  0  0  0  0  0  0  0  0  0
   -1.5770   15.7456   -4.5545 N   0  0  0  0  0  0  0  0  0  0  0  0
   -2.7087   15.2689   -5.2891 C   0  0  0  0  0  0  0  0  0  0  0  0
   -3.5414   17.8812   -1.9926 C   0  0  0  0  0  0  0  0  0  0  0  0
   -4.8576   17.7638   -2.3488 C   0  0  0  0  0  0  0  0  0  0  0  0
   -5.7538   17.0146   -1.6106 C   0  0  0  0  0  0  0  0  0  0  0  0
   -5.3448   16.3486   -0.4703 C   0  0  0  0  0  0  0  0  0  0  0  0
   -4.0247   16.4521   -0.0921 C   0  0  0  0  0  0  0  0  0  0  0  0
   -3.5372   15.7884    1.0763 N   0  0  0  0  0  0  0  0  0  0  0  0
   -4.1802   14.6505    1.6281 C   0  0  0  0  0  0  0  0  0  0  0  0
   -5.2676   14.2477    1.1483 O   0  0  0  0  0  0  0  0  0  0  0  0
   -3.5675   13.9404    2.7689 C   0  0  0  0  0  0  0  0  0  0  0  0
   -4.1708   12.7875    3.2364 C   0  0  0  0  0  0  0  0  0  0  0  0
   -3.6532   12.0752    4.2967 C   0  0  0  0  0  0  0  0  0  0  0  0
   -4.2639   10.8335    4.8346 C   0  0  0  0  0  0  0  0  0  0  0  0
   -5.7525   10.7702    4.5726 C   0  0  0  0  0  0  0  0  0  0  0  0
   -5.8768   11.1152    6.0408 C   0  0  0  0  0  0  0  0  0  0  0  0
   -4.5148   10.9844    6.1883 O   0  0  0  0  0  0  0  0  0  0  0  0
   -2.4866   12.5899    4.8653 C   0  0  0  0  0  0  0  0  0  0  0  0
   -1.8802   13.7316    4.4100 C   0  0  0  0  0  0  0  0  0  0  0  0
   -0.6280   14.2692    5.0332 C   0  0  0  0  0  0  0  0  0  0  0  0
   -0.8780   14.8365    6.2602 F   0  0  0  0  0  0  0  0  0  0  0  0
   -0.1032   15.2630    4.2264 F   0  0  0  0  0  0  0  0  0  0  0  0
    0.2843   13.2474    5.0895 F   0  0  0  0  0  0  0  0  0  0  0  0
   -2.4605   14.3683    3.3604 N   0  0  0  0  0  0  0  0  0  0  0  0
   -3.1348   17.2164   -0.8551 C   0  0  0  0  0  0  0  0  0  0  0  0
  2  1  1  6
  2  3  1  0
  3  4  1  0
  4  5  2  0
  5  6  1  0
  6  7  2  0
  7  8  1  0
  8  9  1  0
  2 10  1  0
 10 11  2  0
 11 12  1  0
 12 13  2  0
 13 14  1  0
 14 15  1  0
 15 16  1  0
 16 17  2  0
 16 18  1  0
 18 19  2  0
 19 20  1  0
 20 21  1  0
 21 22  1  0
 22 23  1  0
 23 24  1  0
 20 25  2  0
 25 26  1  0
 26 27  1  0
 27 28  1  0
 27 29  1  0
 27 30  1  0
 26 31  2  0
 14 32  2  0
  8  4  1  0
 32 10  1  0
 31 18  1  0
 24 21  1  0
M  END
$$$$
MR01
     RDKit          3D

 39 43  0  0  0  0  0  0  0  0999 V2000
   -2.7269   18.5585   -0.3203 C   0  0  0  0  0  0  0  0  0  0  0  0
   -3.5828   17.7084   -1.1957 C   0  0  2  0  0  0  0  0  0  0  0  0
   -5.0560   18.0072   -1.0165 C   0  0  0  0  0  0  0  0  0  0  0  0
   -5.3345   19.3940   -1.4376 C   0  0  0  0  0  0  0  0  0  0  0  0
   -4.4839   20.1241   -2.1811 N   0  0  0  0  0  0  0  0  0  0  0  0
   -5.0076   21.3059   -2.3902 N   0  0  0  0  0  0  0  0  0  0  0  0
   -6.2095   21.3279   -1.7703 C   0  0  0  0  0  0  0  0  0  0  0  0
   -6.4338   20.1521   -1.1723 N   0  0  0  0  0  0  0  0  0  0  0  0
   -7.5844   19.7309   -0.3980 C   0  0  0  0  0  0  0  0  0  0  0  0
   -3.2921   16.2670   -0.9363 C   0  0  0  0  0  0  0  0  0  0  0  0
   -2.8101   15.4451   -1.9319 C   0  0  0  0  0  0  0  0  0  0  0  0
   -2.5377   14.0988   -1.6922 C   0  0  0  0  0  0  0  0  0  0  0  0
   -2.0395   13.2610   -2.7339 N   0  0  0  0  0  0  0  0  0  0  0  0
   -2.6240   12.0209   -3.0338 C   0  0  0  0  0  0  0  0  0  0  0  0
   -3.5650   11.6170   -2.3323 O   0  0  0  0  0  0  0  0  0  0  0  0
   -2.2117   11.1759   -4.1015 N   0  0  0  0  0  0  0  0  0  0  0  0
   -2.7492    9.8775   -4.3458 C   0  0  0  0  0  0  0  0  0  0  0  0
   -2.4906    9.4191   -5.7883 C   0  0  0  0  0  0  0  0  0  0  0  0
   -2.9677    7.9664   -5.8352 C   0  0  0  0  0  0  0  0  0  0  0  0
   -1.8503    7.1443   -5.2121 C   0  0  0  0  0  0  0  0  0  0  0  0
   -1.2530    7.8992   -4.0484 C   0  0  0  0  0  0  0  0  0  0  0  0
   -2.3006    8.8168   -3.4035 C   0  0  0  0  0  0  0  0  0  0  0  0
   -2.7673   13.6462   -0.4490 N   0  0  0  0  0  0  0  0  0  0  0  0
   -3.2317   14.3700    0.5725 C   0  0  0  0  0  0  0  0  0  0  0  0
   -3.5002   15.7181    0.3166 C   0  0  0  0  0  0  0  0  0  0  0  0
   -3.4569   13.8351    1.8744 N   0  0  0  0  0  0  0  0  0  0  0  0
   -4.5934   13.0539    2.3184 C   0  0  0  0  0  0  0  0  0  0  0  0
   -4.3238   12.7594    3.7392 C   0  0  0  0  0  0  0  0  0  0  0  0
   -3.1455   13.2946    4.1580 C   0  0  0  0  0  0  0  0  0  0  0  0
   -2.6918   13.1428    5.4577 C   0  0  0  0  0  0  0  0  0  0  0  0
   -3.4299   12.4414    6.3605 C   0  0  0  0  0  0  0  0  0  0  0  0
   -4.6213   11.8995    5.9394 C   0  0  0  0  0  0  0  0  0  0  0  0
   -5.0844   12.0426    4.6501 C   0  0  0  0  0  0  0  0  0  0  0  0
   -6.3706   11.4297    4.2840 C   0  0  0  0  0  0  0  0  0  0  0  0
   -6.2487   10.5124    3.2555 F   0  0  0  0  0  0  0  0  0  0  0  0
   -7.2440   12.4101    3.8882 F   0  0  0  0  0  0  0  0  0  0  0  0
   -6.8840   10.7658    5.3884 F   0  0  0  0  0  0  0  0  0  0  0  0
   -2.5824   13.9840    2.9768 C   0  0  0  0  0  0  0  0  0  0  0  0
   -1.4823   14.5858    3.0422 O   0  0  0  0  0  0  0  0  0  0  0  0
  2  1  1  1
  2  3  1  0
  3  4  1  0
  4  5  2  0
  5  6  1  0
  6  7  2  0
  7  8  1  0
  8  9  1  0
  2 10  1  0
 10 11  2  0
 11 12  1  0
 12 13  1  0
 13 14  1  0
 14 15  2  0
 14 16  1  0
 16 17  1  0
 17 18  1  0
 18 19  1  0
 19 20  1  0
 20 21  1  0
 21 22  1  0
 12 23  2  0
 23 24  1  0
 24 25  2  0
 24 26  1  0
 26 27  1  0
 27 28  1  0
 28 29  2  0
 29 30  1  0
 30 31  2  0
 31 32  1  0
 32 33  2  0
 33 34  1  0
 34 35  1  0
 34 36  1  0
 34 37  1  0
 29 38  1  0
 38 39  2  0
  8  4  1  0
 25 10  1  0
 38 26  1  0
 22 17  1  0
 33 28  1  0
M  END
$$$$
MR02
     RDKit          3D

 35 39  0  0  0  0  0  0  0  0999 V2000
   -2.4813   18.2632   -5.8551 C   0  0  0  0  0  0  0  0  0  0  0  0
   -2.1479   17.6848   -4.5204 C   0  0  2  0  0  0  0  0  0  0  0  0
   -3.3545   17.2813   -3.7122 C   0  0  0  0  0  0  0  0  0  0  0  0
   -3.0664   16.2951   -2.6722 C   0  0  0  0  0  0  0  0  0  0  0  0
   -1.9779   15.4785   -2.5940 N   0  0  0  0  0  0  0  0  0  0  0  0
   -2.0765   14.7313   -1.5139 N   0  0  0  0  0  0  0  0  0  0  0  0
   -3.2063   15.0304   -0.8691 C   0  0  0  0  0  0  0  0  0  0  0  0
   -3.8091   16.0020   -1.6000 N   0  0  0  0  0  0  0  0  0  0  0  0
   -5.0662   16.6015   -1.2356 C   0  0  0  0  0  0  0  0  0  0  0  0
   -1.2188   18.5808   -3.7822 C   0  0  0  0  0  0  0  0  0  0  0  0
   -1.6883   19.4391   -2.8113 C   0  0  0  0  0  0  0  0  0  0  0  0
   -0.8514   20.2943   -2.0879 C   0  0  0  0  0  0  0  0  0  0  0  0
    0.5153   20.2567   -2.3826 C   0  0  0  0  0  0  0  0  0  0  0  0
    1.0132   19.4091   -3.3481 C   0  0  0  0  0  0  0  0  0  0  0  0
    0.1397   18.5925   -4.0248 C   0  0  0  0  0  0  0  0  0  0  0  0
    2.4272   19.4365   -3.5853 N   0  0  0  0  0  0  0  0  0  0  0  0
    3.1421   20.6863   -3.6723 C   0  0  0  0  0  0  0  0  0  0  0  0
    4.5391   20.2989   -3.9183 C   0  0  0  0  0  0  0  0  0  0  0  0
    4.6562   18.9343   -3.9743 C   0  0  0  0  0  0  0  0  0  0  0  0
    5.8875   18.3766   -4.1967 C   0  0  0  0  0  0  0  0  0  0  0  0
    7.0227   19.1346   -4.3681 C   0  0  0  0  0  0  0  0  0  0  0  0
    6.8715   20.5090   -4.3060 C   0  0  0  0  0  0  0  0  0  0  0  0
    5.6642   21.1225   -4.0861 C   0  0  0  0  0  0  0  0  0  0  0  0
    5.4988   22.6062   -4.0186 C   0  0  0  0  0  0  0  0  0  0  0  0
    4.5272   22.8577   -3.0439 F   0  0  0  0  0  0  0  0  0  0  0  0
    5.0577   23.1295   -5.2166 F   0  0  0  0  0  0  0  0  0  0  0  0
    6.6624   23.1741   -3.5838 F   0  0  0  0  0  0  0  0  0  0  0  0
    8.3599   18.5173   -4.6119 C   0  0  0  0  0  0  0  0  0  0  0  0
    8.5908   17.2967   -3.7960 C   0  0  0  0  0  0  0  0  0  0  0  0
    8.9534   16.0656   -4.5710 C   0  0  0  0  0  0  0  0  0  0  0  0
    8.1561   15.8936   -5.8336 C   0  0  0  0  0  0  0  0  0  0  0  0
    8.1243   17.1082   -6.6964 C   0  0  0  0  0  0  0  0  0  0  0  0
    8.6442   18.3524   -6.0788 C   0  0  0  0  0  0  0  0  0  0  0  0
    3.3173   18.3718   -3.7636 C   0  0  0  0  0  0  0  0  0  0  0  0
    3.0258   17.1568   -3.7468 O   0  0  0  0  0  0  0  0  0  0  0  0
  2  1  1  6
  2  3  1  0
  3  4  1  0
  4  5  2  0
  5  6  1  0
  6  7  2  0
  7  8  1  0
  8  9  1  0
  2 10  1  0
 10 11  2  0
 11 12  1  0
 12 13  2  0
 13 14  1  0
 14 15  2  0
 14 16  1  0
 16 17  1  0
 17 18  1  0
 18 19  2  0
 19 20  1  0
 20 21  2  0
 21 22  1  0
 22 23  2  0
 23 24  1  0
 24 25  1  0
 24 26  1  0
 24 27  1  0
 21 28  1  0
 28 29  1  0
 29 30  1  0
 30 31  1  0
 31 32  1  0
 32 33  1  0
 19 34  1  0
 34 35  2  0
  8  4  1  0
 15 10  1  0
 34 16  1  0
 23 18  1  0
 33 28  1  0
M  END
$$$$
MR03
     RDKit          3D

 29 31  0  0  0  0  0  0  0  0999 V2000
   -5.3696   18.4474   -2.5320 C   0  0  0  0  0  0  0  0  0  0  0  0
   -4.0513   18.5629   -1.8413 C   0  0  1  0  0  0  0  0  0  0  0  0
   -3.6253   17.1987   -1.4433 C   0  0  0  0  0  0  0  0  0  0  0  0
   -2.9011   16.4641   -2.3628 C   0  0  0  0  0  0  0  0  0  0  0  0
   -2.5036   15.1908   -1.9829 C   0  0  0  0  0  0  0  0  0  0  0  0
   -2.8079   14.6962   -0.7796 N   0  0  0  0  0  0  0  0  0  0  0  0
   -3.5106   15.3780    0.1446 C   0  0  0  0  0  0  0  0  0  0  0  0
   -3.9222   16.6523   -0.2045 C   0  0  0  0  0  0  0  0  0  0  0  0
   -3.7929   14.7797    1.4041 N   0  0  0  0  0  0  0  0  0  0  0  0
   -3.4756   13.4542    1.7498 C   0  0  0  0  0  0  0  0  0  0  0  0
   -3.7725   12.8687    3.0589 C   0  0  0  0  0  0  0  0  0  0  0  0
   -3.0205   11.8050    3.5021 C   0  0  0  0  0  0  0  0  0  0  0  0
   -3.2531   11.2159    4.7202 C   0  0  0  0  0  0  0  0  0  0  0  0
   -4.2540   11.6966    5.5107 C   0  0  0  0  0  0  0  0  0  0  0  0
   -4.9801   12.7614    5.0268 C   0  0  0  0  0  0  0  0  0  0  0  0
   -4.7611   13.3443    3.8383 N   0  0  0  0  0  0  0  0  0  0  0  0
   -6.0052   13.2302    5.8710 O   0  0  0  0  0  0  0  0  0  0  0  0
   -6.5528   14.5235    5.6276 C   0  0  0  0  0  0  0  0  0  0  0  0
   -4.4960   11.0931    6.7644 N   0  0  0  0  0  4  0  0  0  0  0  0
   -3.9443   10.0497    7.1259 O   0  0  0  0  0  0  0  0  0  0  0  0
   -5.3826   11.6828    7.6300 O   0  0  0  0  0  1  0  0  0  0  0  0
   -2.9094   12.7312    0.8983 O   0  0  0  0  0  0  0  0  0  0  0  0
   -2.7929   19.4221   -2.7950 S   0  0  0  0  0  0  0  0  0  0  0  0
   -3.0133   21.1857   -2.8320 C   0  0  0  0  0  0  0  0  0  0  0  0
   -3.9013   21.8964   -2.1192 N   0  0  0  0  0  0  0  0  0  0  0  0
   -3.7559   23.1863   -2.4267 N   0  0  0  0  0  0  0  0  0  0  0  0
   -2.7688   23.3186   -3.3441 C   0  0  0  0  0  0  0  0  0  0  0  0
   -2.3325   22.0532   -3.5701 N   0  0  0  0  0  0  0  0  0  0  0  0
   -1.2743   21.7444   -4.4938 C   0  0  0  0  0  0  0  0  0  0  0  0
  2  1  1  6
  2  3  1  0
  3  4  2  0
  4  5  1  0
  5  6  2  0
  6  7  1  0
  7  8  2  0
  7  9  1  0
  9 10  1  0
 10 11  1  0
 11 12  2  0
 12 13  1  0
 13 14  2  0
 14 15  1  0
 15 16  2  0
 15 17  1  0
 17 18  1  0
 14 19  1  0
 19 20  2  0
 19 21  1  0
 10 22  2  0
  2 23  1  0
 23 24  1  0
 24 25  2  0
 25 26  1  0
 26 27  2  0
 27 28  1  0
 28 29  1  0
  8  3  1  0
 16 11  1  0
 28 24  1  0
M  CHG  2  19   1  21  -1
M  END
$$$$
MR04
     RDKit          3D

 32 35  0  0  0  0  0  0  0  0999 V2000
   -3.3597   18.3202   -4.0715 C   0  0  0  0  0  0  0  0  0  0  0  0
   -3.0398   18.5247   -2.6171 C   0  0  2  0  0  0  0  0  0  0  0  0
   -1.8645   19.4413   -2.3898 C   0  0  0  0  0  0  0  0  0  0  0  0
   -2.0457   20.8151   -2.8528 C   0  0  0  0  0  0  0  0  0  0  0  0
   -3.0018   21.6928   -2.5004 N   0  0  0  0  0  0  0  0  0  0  0  0
   -2.8131   22.8448   -3.1514 N   0  0  0  0  0  0  0  0  0  0  0  0
   -1.7269   22.7162   -3.9326 C   0  0  0  0  0  0  0  0  0  0  0  0
   -1.2619   21.4642   -3.7420 N   0  0  0  0  0  0  0  0  0  0  0  0
   -0.1070   20.9162   -4.3923 C   0  0  0  0  0  0  0  0  0  0  0  0
   -2.9390   17.2360   -1.8865 C   0  0  0  0  0  0  0  0  0  0  0  0
   -1.9916   16.2985   -2.2397 C   0  0  0  0  0  0  0  0  0  0  0  0
   -1.8681   15.0971   -1.5796 C   0  0  0  0  0  0  0  0  0  0  0  0
   -2.7447   14.8212   -0.5049 C   0  0  0  0  0  0  0  0  0  0  0  0
   -3.6956   15.7156   -0.1202 C   0  0  0  0  0  0  0  0  0  0  0  0
   -3.7562   16.9089   -0.8391 C   0  0  0  0  0  0  0  0  0  0  0  0
   -4.5922   15.4801    0.9481 N   0  0  0  0  0  0  0  0  0  0  0  0
   -4.6657   14.3632    1.7765 C   0  0  0  0  0  0  0  0  0  0  0  0
   -5.4923   14.4191    2.9663 N   0  0  0  0  0  0  0  0  0  0  0  0
   -6.4887   15.4109    3.1308 C   0  0  0  0  0  0  0  0  0  0  0  0
   -6.9222   15.5378    4.5647 C   0  0  0  0  0  0  0  0  0  0  0  0
   -7.2105   14.2433    5.0777 O   0  0  0  0  0  0  0  0  0  0  0  0
   -6.1259   13.3469    5.0233 C   0  0  0  0  0  0  0  0  0  0  0  0
   -5.8913   12.3869    5.9813 C   0  0  0  0  0  0  0  0  0  0  0  0
   -4.8085   11.5212    5.8891 C   0  0  0  0  0  0  0  0  0  0  0  0
   -3.9851   11.6685    4.7991 C   0  0  0  0  0  0  0  0  0  0  0  0
   -4.2123   12.6179    3.8464 N   0  0  0  0  0  0  0  0  0  0  0  0
   -5.2638   13.4358    3.9644 C   0  0  0  0  0  0  0  0  0  0  0  0
   -4.5300   10.4798    6.9020 C   0  0  0  0  0  0  0  0  0  0  0  0
   -5.6568    9.7180    7.1175 F   0  0  0  0  0  0  0  0  0  0  0  0
   -3.4595    9.7309    6.4544 F   0  0  0  0  0  0  0  0  0  0  0  0
   -4.1702   11.1511    8.0744 F   0  0  0  0  0  0  0  0  0  0  0  0
   -4.0299   13.3387    1.4919 O   0  0  0  0  0  0  0  0  0  0  0  0
  2  1  1  6
  2  3  1  0
  3  4  1  0
  4  5  2  0
  5  6  1  0
  6  7  2  0
  7  8  1  0
  8  9  1  0
  2 10  1  0
 10 11  2  0
 11 12  1  0
 12 13  2  0
 13 14  1  0
 14 15  2  0
 14 16  1  0
 16 17  1  0
 17 18  1  0
 18 19  1  0
 19 20  1  0
 20 21  1  0
 21 22  1  0
 22 23  2  0
 23 24  1  0
 24 25  2  0
 25 26  1  0
 26 27  2  0
 24 28  1  0
 28 29  1  0
 28 30  1  0
 28 31  1  0
 17 32  2  0
  8  4  1  0
 15 10  1  0
 27 18  1  0
 27 22  1  0
M  END
$$$$
MR05
     RDKit          3D

 27 29  0  0  0  0  0  0  0  0999 V2000
   -2.1877   18.1331   -1.1192 C   0  0  0  0  0  0  0  0  0  0  0  0
   -3.6897   18.1136   -1.2057 C   0  0  1  0  0  0  0  0  0  0  0  0
   -4.1354   16.7068   -0.9775 C   0  0  0  0  0  0  0  0  0  0  0  0
   -4.7064   16.0387   -2.0411 C   0  0  0  0  0  0  0  0  0  0  0  0
   -5.1397   14.7179   -1.8976 C   0  0  0  0  0  0  0  0  0  0  0  0
   -4.9811   14.1399   -0.7108 N   0  0  0  0  0  0  0  0  0  0  0  0
   -4.4205   14.7833    0.3470 C   0  0  0  0  0  0  0  0  0  0  0  0
   -3.9798   16.0912    0.2427 C   0  0  0  0  0  0  0  0  0  0  0  0
   -4.3116   14.0524    1.5585 N   0  0  0  0  0  0  0  0  0  0  0  0
   -3.3808   12.9983    1.6315 C   0  0  0  0  0  0  0  0  0  0  0  0
   -3.1840   12.2489    2.9140 C   0  0  0  0  0  0  0  0  0  0  0  0
   -2.1846   11.2421    2.9928 C   0  0  0  0  0  0  0  0  0  0  0  0
   -2.3768   10.6960    4.6867 S   0  0  0  0  0  0  0  0  0  0  0  0
   -3.7283   11.8406    5.0824 C   0  0  0  0  0  0  0  0  0  0  0  0
   -4.3784   11.8956    6.4219 C   0  0  0  0  0  0  0  0  0  0  0  0
   -3.7468   11.0543    7.3098 F   0  0  0  0  0  0  0  0  0  0  0  0
   -4.3467   13.2164    6.8223 F   0  0  0  0  0  0  0  0  0  0  0  0
   -5.7024   11.5467    6.2509 F   0  0  0  0  0  0  0  0  0  0  0  0
   -3.8553   12.4350    3.9942 N   0  0  0  0  0  0  0  0  0  0  0  0
   -2.7253   12.7029    0.6077 O   0  0  0  0  0  0  0  0  0  0  0  0
   -4.4720   19.1233    0.1031 S   0  0  0  0  0  0  0  0  0  0  0  0
   -5.0059   20.6636   -0.6044 C   0  0  0  0  0  0  0  0  0  0  0  0
   -4.7454   21.1039   -1.8633 N   0  0  0  0  0  0  0  0  0  0  0  0
   -5.3198   22.2837   -1.9640 N   0  0  0  0  0  0  0  0  0  0  0  0
   -5.9351   22.6173   -0.8270 C   0  0  0  0  0  0  0  0  0  0  0  0
   -5.7346   21.5907    0.0307 N   0  0  0  0  0  0  0  0  0  0  0  0
   -6.2165   21.5123    1.3940 C   0  0  0  0  0  0  0  0  0  0  0  0
  2  1  1  1
  2  3  1  0
  3  4  2  0
  4  5  1  0
  5  6  2  0
  6  7  1  0
  7  8  2  0
  7  9  1  0
  9 10  1  0
 10 11  1  0
 11 12  2  0
 12 13  1  0
 13 14  1  0
 14 15  1  0
 15 16  1  0
 15 17  1  0
 15 18  1  0
 14 19  2  0
 10 20  2  0
  2 21  1  0
 21 22  1  0
 22 23  2  0
 23 24  1  0
 24 25  2  0
 25 26  1  0
 26 27  1  0
  8  3  1  0
 19 11  1  0
 26 22  1  0
M  END
$$$$
MR06
     RDKit          3D

 34 38  0  0  0  0  0  0  0  0999 V2000
   -1.6332   17.3471   -4.2635 C   0  0  0  0  0  0  0  0  0  0  0  0
   -0.6432   17.6397   -3.1575 C   0  0  2  0  0  0  0  0  0  0  0  0
   -1.3597   17.7582   -1.8653 C   0  0  0  0  0  0  0  0  0  0  0  0
   -2.0031   16.4754   -1.5280 C   0  0  0  0  0  0  0  0  0  0  0  0
   -1.5942   15.2570   -1.9198 N   0  0  0  0  0  0  0  0  0  0  0  0
   -2.3815   14.3214   -1.4258 N   0  0  0  0  0  0  0  0  0  0  0  0
   -3.3298   14.9191   -0.6935 C   0  0  0  0  0  0  0  0  0  0  0  0
   -3.0809   16.2465   -0.7674 N   0  0  0  0  0  0  0  0  0  0  0  0
   -3.9100   17.2309   -0.0720 C   0  0  0  0  0  0  0  0  0  0  0  0
    0.1156   18.8345   -3.5487 C   0  0  0  0  0  0  0  0  0  0  0  0
   -0.4550   20.0306   -3.9196 C   0  0  0  0  0  0  0  0  0  0  0  0
    0.3364   21.1236   -4.2790 C   0  0  0  0  0  0  0  0  0  0  0  0
   -0.2958   22.3511   -4.6590 N   0  0  0  0  0  0  0  0  0  0  0  0
    0.4631   23.4899   -5.1228 C   0  0  0  0  0  0  0  0  0  0  0  0
   -0.4452   24.6520   -5.4382 C   0  0  0  0  0  0  0  0  0  0  0  0
    0.1349   25.4391   -4.2890 C   0  0  0  0  0  0  0  0  0  0  0  0
    1.0871   24.3147   -4.0238 C   0  0  0  0  0  0  0  0  0  0  0  0
    1.6560   20.9762   -4.2528 N   0  0  0  0  0  0  0  0  0  0  0  0
    2.2824   19.8398   -3.9017 C   0  0  0  0  0  0  0  0  0  0  0  0
    1.4904   18.7639   -3.5478 C   0  0  0  0  0  0  0  0  0  0  0  0
    3.7012   19.7071   -3.8817 N   0  0  0  0  0  0  0  0  0  0  0  0
    4.5161   18.6316   -3.3879 C   0  0  0  0  0  0  0  0  0  0  0  0
    5.8843   19.0378   -3.6263 C   0  0  0  0  0  0  0  0  0  0  0  0
    5.9304   20.2635   -4.2194 C   0  0  0  0  0  0  0  0  0  0  0  0
    7.1272   20.8911   -4.5594 C   0  0  0  0  0  0  0  0  0  0  0  0
    8.2963   20.2254   -4.2744 C   0  0  0  0  0  0  0  0  0  0  0  0
    8.2816   18.9866   -3.6760 C   0  0  0  0  0  0  0  0  0  0  0  0
    7.0804   18.3943   -3.3528 C   0  0  0  0  0  0  0  0  0  0  0  0
    7.0697   17.0797   -2.7184 C   0  0  0  0  0  0  0  0  0  0  0  0
    8.3396   16.5062   -2.7915 F   0  0  0  0  0  0  0  0  0  0  0  0
    6.2336   16.2373   -3.4207 F   0  0  0  0  0  0  0  0  0  0  0  0
    6.6390   17.0953   -1.4109 F   0  0  0  0  0  0  0  0  0  0  0  0
    4.5562   20.7123   -4.3934 C   0  0  0  0  0  0  0  0  0  0  0  0
    4.2237   21.8085   -4.9122 O   0  0  0  0  0  0  0  0  0  0  0  0
  2  1  1  6
  2  3  1  0
  3  4  1  0
  4  5  2  0
  5  6  1  0
  6  7  2  0
  7  8  1  0
  8  9  1  0
  2 10  1  0
 10 11  2  0
 11 12  1  0
 12 13  1  0
 13 14  1  0
 14 15  1  0
 15 16  1  0
 16 17  1  0
 12 18  2  0
 18 19  1  0
 19 20  2  0
 19 21  1  0
 21 22  1  0
 22 23  1  0
 23 24  2  0
 24 25  1  0
 25 26  2  0
 26 27  1  0
 27 28  2  0
 28 29  1  0
 29 30  1  0
 29 31  1  0
 29 32  1  0
 24 33  1  0
 33 34  2  0
  8  4  1  0
 20 10  1  0
 33 21  1  0
 17 14  1  0
 28 23  1  0
M  END
$$$$
MR07
     RDKit          3D

 28 31  0  0  0  0  0  0  0  0999 V2000
   -5.6880   19.8531   -1.4819 C   0  0  0  0  0  0  0  0  0  0  0  0
   -4.2316   19.4471   -1.4556 C   0  0  1  0  0  0  0  0  0  0  0  0
   -4.0830   17.9874   -1.2708 C   0  0  0  0  0  0  0  0  0  0  0  0
   -3.7318   17.1783   -2.3414 C   0  0  0  0  0  0  0  0  0  0  0  0
   -3.5831   15.8355   -2.2273 C   0  0  0  0  0  0  0  0  0  0  0  0
   -3.7867   15.2285   -0.9972 C   0  0  0  0  0  0  0  0  0  0  0  0
   -4.1326   15.9661    0.0907 C   0  0  0  0  0  0  0  0  0  0  0  0
   -4.2742   17.3507   -0.0774 C   0  0  0  0  0  0  0  0  0  0  0  0
   -4.3599   15.4115    1.3786 N   0  0  0  0  0  0  0  0  0  0  0  0
   -3.9688   14.1542    1.8526 C   0  0  0  0  0  0  0  0  0  0  0  0
   -4.1272   13.7602    3.2715 C   0  0  0  0  0  0  0  0  0  0  0  0
   -3.8575   12.4704    3.6436 C   0  0  0  0  0  0  0  0  0  0  0  0
   -3.9852   12.0467    4.9374 C   0  0  0  0  0  0  0  0  0  0  0  0
   -3.7044   10.7219    5.2983 C   0  0  0  0  0  0  0  0  0  0  0  0
   -3.8497   10.3539    6.6081 C   0  0  0  0  0  0  0  0  0  0  0  0
   -4.2639   11.2798    7.5373 C   0  0  0  0  0  0  0  0  0  0  0  0
   -4.5469   12.5863    7.2138 C   0  0  0  0  0  0  0  0  0  0  0  0
   -4.3996   12.9583    5.8876 C   0  0  0  0  0  0  0  0  0  0  0  0
   -4.6632   14.2553    5.4715 C   0  0  0  0  0  0  0  0  0  0  0  0
   -4.5295   14.6446    4.1936 N   0  0  0  0  0  0  0  0  0  0  0  0
   -3.4701   13.3235    1.0800 O   0  0  0  0  0  0  0  0  0  0  0  0
   -3.3716   19.9084   -2.9735 S   0  0  0  0  0  0  0  0  0  0  0  0
   -1.6022   19.8961   -2.7418 C   0  0  0  0  0  0  0  0  0  0  0  0
   -1.0125   19.4594   -1.6196 N   0  0  0  0  0  0  0  0  0  0  0  0
    0.2840   19.5879   -1.7787 N   0  0  0  0  0  0  0  0  0  0  0  0
    0.5504   20.0992   -2.9815 C   0  0  0  0  0  0  0  0  0  0  0  0
   -0.6454   20.2906   -3.5825 N   0  0  0  0  0  0  0  0  0  0  0  0
   -0.8694   20.8289   -4.9065 C   0  0  0  0  0  0  0  0  0  0  0  0
  2  1  1  6
  2  3  1  0
  3  4  2  0
  4  5  1  0
  5  6  2  0
  6  7  1  0
  7  8  2  0
  7  9  1  0
  9 10  1  0
 10 11  1  0
 11 12  2  0
 12 13  1  0
 13 14  2  0
 14 15  1  0
 15 16  2  0
 16 17  1  0
 17 18  2  0
 18 19  1  0
 19 20  2  0
 10 21  2  0
  2 22  1  0
 22 23  1  0
 23 24  2  0
 24 25  1  0
 25 26  2  0
 26 27  1  0
 27 28  1  0
  8  3  1  0
 20 11  1  0
 27 23  1  0
 18 13  1  0
M  END
$$$$
MR08
     RDKit          3D

 38 43  0  0  0  0  0  0  0  0999 V2000
   -5.6461   13.3430   -1.1943 C   0  0  0  0  0  0  0  0  0  0  0  0
   -4.6388   14.1225   -0.4954 N   0  0  0  0  0  0  0  0  0  0  0  0
   -4.1383   13.7439    0.7088 C   0  0  0  0  0  0  0  0  0  0  0  0
   -3.2399   14.6859    1.0194 N   0  0  0  0  0  0  0  0  0  0  0  0
   -3.1801   15.5938    0.0760 N   0  0  0  0  0  0  0  0  0  0  0  0
   -4.0664   15.2537   -0.9022 C   0  0  0  0  0  0  0  0  0  0  0  0
   -4.2821   16.0537   -2.1137 C   0  0  0  0  0  0  0  0  0  0  0  0
   -3.0472   16.1923   -2.9518 C   0  0  0  0  0  0  0  0  0  0  0  0
   -3.2341   16.1990   -4.4310 C   0  0  0  0  0  0  0  0  0  0  0  0
   -2.0773   15.3857   -4.6071 O   0  0  0  0  0  0  0  0  0  0  0  0
   -2.3583   14.8921   -3.3256 C   0  0  0  0  0  0  0  0  0  0  0  0
   -2.0995   17.2312   -2.4430 C   0  0  0  0  0  0  0  0  0  0  0  0
   -2.3582   17.9445   -1.2945 C   0  0  0  0  0  0  0  0  0  0  0  0
   -1.4577   18.9141   -0.8332 C   0  0  0  0  0  0  0  0  0  0  0  0
   -0.2937   19.1678   -1.5278 C   0  0  0  0  0  0  0  0  0  0  0  0
   -0.0375   18.4628   -2.6635 C   0  0  0  0  0  0  0  0  0  0  0  0
   -0.9315   17.5049   -3.1155 C   0  0  0  0  0  0  0  0  0  0  0  0
    1.1882   18.7400   -3.3812 N   0  0  0  0  0  0  0  0  0  0  0  0
    2.2995   17.8452   -3.4806 C   0  0  0  0  0  0  0  0  0  0  0  0
    3.3121   18.5306   -4.2930 C   0  0  0  0  0  0  0  0  0  0  0  0
    2.8319   19.7599   -4.6556 C   0  0  0  0  0  0  0  0  0  0  0  0
    3.6347   20.5982   -5.4416 C   0  0  0  0  0  0  0  0  0  0  0  0
    4.8897   20.2399   -5.8672 C   0  0  0  0  0  0  0  0  0  0  0  0
    5.6701   21.1882   -6.6992 C   0  0  0  0  0  0  0  0  0  0  0  0
    6.7573   21.7059   -5.9118 N   0  0  0  0  0  0  0  0  0  0  0  0
    7.7321   22.4201   -6.6728 C   0  0  0  0  0  0  0  0  0  0  0  0
    7.1931   23.7470   -7.1322 C   0  0  0  0  0  0  0  0  0  0  0  0
    7.1343   24.6647   -5.9350 C   0  0  0  0  0  0  0  0  0  0  0  0
    7.0843   23.8209   -4.6932 C   0  0  0  0  0  0  0  0  0  0  0  0
    6.2888   22.5607   -4.8515 C   0  0  0  0  0  0  0  0  0  0  0  0
    5.3451   18.9991   -5.4874 C   0  0  0  0  0  0  0  0  0  0  0  0
    4.5999   18.1396   -4.7186 C   0  0  0  0  0  0  0  0  0  0  0  0
    5.0700   16.7924   -4.2947 C   0  0  0  0  0  0  0  0  0  0  0  0
    6.2855   16.4906   -4.8640 F   0  0  0  0  0  0  0  0  0  0  0  0
    5.1682   16.6972   -2.9301 F   0  0  0  0  0  0  0  0  0  0  0  0
    4.1346   15.8618   -4.7491 F   0  0  0  0  0  0  0  0  0  0  0  0
    1.5002   19.9176   -4.0967 C   0  0  0  0  0  0  0  0  0  0  0  0
    0.7397   20.9282   -4.2205 O   0  0  0  0  0  0  0  0  0  0  0  0
  1  2  1  0
  2  3  1  0
  3  4  2  0
  4  5  1  0
  5  6  2  0
  6  7  1  0
  7  8  1  0
  8  9  1  0
  9 10  1  0
 10 11  1  0
  8 12  1  0
 12 13  2  0
 13 14  1  0
 14 15  2  0
 15 16  1  0
 16 17  2  0
 16 18  1  0
 18 19  1  0
 19 20  1  0
 20 21  2  0
 21 22  1  0
 22 23  2  0
 23 24  1  0
 24 25  1  0
 25 26  1  0
 26 27  1  0
 27 28  1  0
 28 29  1  0
 29 30  1  0
 23 31  1  0
 31 32  2  0
 32 33  1  0
 33 34  1  0
 33 35  1  0
 33 36  1  0
 21 37  1  0
 37 38  2  0
  6  2  1  0
 11  8  1  0
 17 12  1  0
 37 18  1  0
 32 20  1  0
 30 25  1  0
M  END
$$$$
MR09
     RDKit          3D

 45 50  0  0  0  0  0  0  0  0999 V2000
   -7.4645   14.5643    5.0677 C   0  0  0  0  0  0  0  0  0  0  0  0
   -7.9624   13.3246    4.3373 C   0  0  2  0  0  0  0  0  0  0  0  0
   -7.8138   12.1631    5.2989 C   0  0  0  0  0  0  0  0  0  0  0  0
   -6.4612   12.2093    5.8735 C   0  0  0  0  0  0  0  0  0  0  0  0
   -5.3338   11.7593    5.2715 N   0  0  0  0  0  0  0  0  0  0  0  0
   -4.3294   11.9702    6.0892 N   0  0  0  0  0  0  0  0  0  0  0  0
   -4.7658   12.5478    7.2150 C   0  0  0  0  0  0  0  0  0  0  0  0
   -6.0959   12.6971    7.0808 N   0  0  0  0  0  0  0  0  0  0  0  0
   -6.9735   13.2892    8.0848 C   0  0  0  0  0  0  0  0  0  0  0  0
   -7.1506   13.1037    3.1135 C   0  0  0  0  0  0  0  0  0  0  0  0
   -6.8043   11.8454    2.6761 C   0  0  0  0  0  0  0  0  0  0  0  0
   -6.0387   11.6745    1.5193 C   0  0  0  0  0  0  0  0  0  0  0  0
   -5.6874   10.3788    1.0771 N   0  0  0  0  0  0  0  0  0  0  0  0
   -4.8833   10.1974   -0.0669 C   0  0  0  0  0  0  0  0  0  0  0  0
   -4.5068   11.2123   -0.7310 O   0  0  0  0  0  0  0  0  0  0  0  0
   -4.4659    8.9128   -0.5215 N   0  0  0  0  0  0  0  0  0  0  0  0
   -3.5772    8.8444   -1.6537 C   0  0  0  0  0  0  0  0  0  0  0  0
   -2.4806    7.8450   -1.3769 C   0  0  0  0  0  0  0  0  0  0  0  0
   -2.1789    7.1088   -2.6492 C   0  0  0  0  0  0  0  0  0  0  0  0
   -3.3567    6.1819   -2.9290 C   0  0  0  0  0  0  0  0  0  0  0  0
   -4.6699    6.9244   -2.8019 C   0  0  0  0  0  0  0  0  0  0  0  0
   -4.4106    8.4298   -2.8603 C   0  0  0  0  0  0  0  0  0  0  0  0
   -5.6643   12.7971    0.8660 N   0  0  0  0  0  0  0  0  0  0  0  0
   -5.9761   14.0316    1.2524 C   0  0  0  0  0  0  0  0  0  0  0  0
   -6.7303   14.2002    2.3921 C   0  0  0  0  0  0  0  0  0  0  0  0
   -5.5475   15.2031    0.5129 N   0  0  0  0  0  0  0  0  0  0  0  0
   -4.4090   15.2397   -0.3607 C   0  0  0  0  0  0  0  0  0  0  0  0
   -4.3519   16.5978   -0.8854 C   0  0  0  0  0  0  0  0  0  0  0  0
   -5.3902   17.3282   -0.3600 C   0  0  0  0  0  0  0  0  0  0  0  0
   -5.5259   18.6713   -0.7341 C   0  0  0  0  0  0  0  0  0  0  0  0
   -4.6525   19.2728   -1.6075 C   0  0  0  0  0  0  0  0  0  0  0  0
   -3.6288   18.4987   -2.1062 C   0  0  0  0  0  0  0  0  0  0  0  0
   -3.4412   17.1786   -1.7796 C   0  0  0  0  0  0  0  0  0  0  0  0
   -2.3364   16.3598   -2.3239 C   0  0  0  0  0  0  0  0  0  0  0  0
   -2.9068   15.3727   -3.1128 F   0  0  0  0  0  0  0  0  0  0  0  0
   -1.6125   15.7187   -1.3374 F   0  0  0  0  0  0  0  0  0  0  0  0
   -1.5128   17.0967   -3.1586 F   0  0  0  0  0  0  0  0  0  0  0  0
   -4.7735   20.7050   -2.0239 C   0  0  0  0  0  0  0  0  0  0  0  0
   -3.9137   21.6193   -1.2212 C   0  0  0  0  0  0  0  0  0  0  0  0
   -4.5325   22.1859    0.0078 C   0  0  0  0  0  0  0  0  0  0  0  0
   -5.9953   22.4669   -0.0865 C   0  0  0  0  0  0  0  0  0  0  0  0
   -6.5198   22.4299   -1.5030 C   0  0  0  0  0  0  0  0  0  0  0  0
   -6.2118   21.0971   -2.1030 C   0  0  0  0  0  0  0  0  0  0  0  0
   -6.1628   16.4731    0.5272 C   0  0  0  0  0  0  0  0  0  0  0  0
   -7.1750   16.8491    1.1586 O   0  0  0  0  0  0  0  0  0  0  0  0
  2  1  1  1
  2  3  1  0
  3  4  1  0
  4  5  2  0
  5  6  1  0
  6  7  2  0
  7  8  1  0
  8  9  1  0
  2 10  1  0
 10 11  2  0
 11 12  1  0
 12 13  1  0
 13 14  1  0
 14 15  2  0
 14 16  1  0
 16 17  1  0
 17 18  1  0
 18 19  1  0
 19 20  1  0
 20 21  1  0
 21 22  1  0
 12 23  2  0
 23 24  1  0
 24 25  2  0
 24 26  1  0
 26 27  1  0
 27 28  1  0
 28 29  2  0
 29 30  1  0
 30 31  2  0
 31 32  1  0
 32 33  2  0
 33 34  1  0
 34 35  1  0
 34 36  1  0
 34 37  1  0
 31 38  1  0
 38 39  1  0
 39 40  1  0
 40 41  1  0
 41 42  1  0
 42 43  1  0
 29 44  1  0
 44 45  2  0
  8  4  1  0
 25 10  1  0
 44 26  1  0
 22 17  1  0
 33 28  1  0
 43 38  1  0
M  END
$$$$
MR10
     RDKit          3D

 31 35  0  0  0  0  0  0  0  0999 V2000
    6.4817    4.0972   18.6853 C   0  0  0  0  0  0  0  0  0  0  0  0
    5.0158    4.1968   18.4195 C   0  0  2  0  0  0  0  0  0  0  0  0
    4.6330    3.1569   17.3649 C   0  0  0  0  0  0  0  0  0  0  0  0
    3.1716    2.9648   17.3130 C   0  0  0  0  0  0  0  0  0  0  0  0
    2.4508    2.5627   18.3915 N   0  0  0  0  0  0  0  0  0  0  0  0
    1.2069    2.4980   17.9923 N   0  0  0  0  0  0  0  0  0  0  0  0
    1.1236    2.8453   16.7021 C   0  0  0  0  0  0  0  0  0  0  0  0
    2.3710    3.1461   16.2549 N   0  0  0  0  0  0  0  0  0  0  0  0
    2.7188    3.5665   14.9211 C   0  0  0  0  0  0  0  0  0  0  0  0
    4.5752    5.5388   17.9939 C   0  0  0  0  0  0  0  0  0  0  0  0
    5.0052    6.0187   16.7742 C   0  0  0  0  0  0  0  0  0  0  0  0
    4.5906    7.2765   16.3785 C   0  0  0  0  0  0  0  0  0  0  0  0
    3.7641    8.0226   17.1984 C   0  0  0  0  0  0  0  0  0  0  0  0
    3.3217    7.5600   18.4247 C   0  0  0  0  0  0  0  0  0  0  0  0
    3.7406    6.3036   18.8113 C   0  0  0  0  0  0  0  0  0  0  0  0
    2.4494    8.3591   19.2792 C   0  0  0  0  0  0  0  0  0  0  0  0
    2.2416    9.7224   19.2195 C   0  0  0  0  0  0  0  0  0  0  0  0
    1.3319   10.0875   20.2158 C   0  0  0  0  0  0  0  0  0  0  0  0
    0.9367   11.3907   20.3910 C   0  0  0  0  0  0  0  0  0  0  0  0
    1.4700   12.3380   19.5456 C   0  0  0  0  0  0  0  0  0  0  0  0
    2.3755   12.0015   18.5479 C   0  0  0  0  0  0  0  0  0  0  0  0
    2.7156   10.7064   18.4361 N   0  0  0  0  0  0  0  0  0  0  0  0
    0.0198   11.8172   21.3845 N   0  0  0  0  0  0  0  0  0  0  0  0
   -0.0763   11.2153   22.6971 C   0  0  0  0  0  0  0  0  0  0  0  0
    0.1403   12.2546   23.7315 C   0  0  0  0  0  0  0  0  0  0  0  0
    0.0549   13.6743   23.3041 C   0  0  0  0  0  0  0  0  0  0  0  0
   -0.9268   13.9414   22.2017 C   0  0  0  0  0  0  0  0  0  0  0  0
   -0.9279   12.9080   21.1306 C   0  0  0  0  0  0  0  0  0  0  0  0
    1.2863   14.2455   23.0488 F   0  0  0  0  0  0  0  0  0  0  0  0
    1.0247    8.9443   20.8364 N   0  0  0  0  0  0  0  0  0  0  0  0
    1.6710    7.9265   20.2988 N   0  0  0  0  0  0  0  0  0  0  0  0
  2  1  1  6
  2  3  1  0
  3  4  1  0
  4  5  2  0
  5  6  1  0
  6  7  2  0
  7  8  1  0
  8  9  1  0
  2 10  1  0
 10 11  2  0
 11 12  1  0
 12 13  2  0
 13 14  1  0
 14 15  2  0
 14 16  1  0
 16 17  1  0
 17 18  2  0
 18 19  1  0
 19 20  2  0
 20 21  1  0
 21 22  2  0
 19 23  1  0
 23 24  1  0
 24 25  1  0
 25 26  1  0
 26 27  1  0
 27 28  1  0
 26 29  1  0
 18 30  1  0
 30 31  1  0
  8  4  1  0
 15 10  1  0
 31 16  2  0
 22 17  1  0
 28 23  1  0
M  END
$$$$
JZ01
     RDKit          3D

 26 29  0  0  0  0  0  0  0  0999 V2000
   -0.2342   15.5560   -5.2228 C   0  0  0  0  0  0  0  0  0  0  0  0
   -1.1159   15.6155   -4.0304 C   0  0  0  0  0  0  0  0  0  0  0  0
   -1.3039   14.4526   -3.3049 C   0  0  0  0  0  0  0  0  0  0  0  0
   -2.1138   14.5007   -2.2070 C   0  0  0  0  0  0  0  0  0  0  0  0
   -2.7185   15.6967   -1.8521 C   0  0  0  0  0  0  0  0  0  0  0  0
   -3.5767   15.6741   -0.6592 C   0  0  0  0  0  0  0  0  0  0  0  0
   -4.0292   16.7754   -0.2157 O   0  0  0  0  0  0  0  0  0  0  0  0
   -3.9527   14.5212    0.0539 N   0  0  0  0  0  0  0  0  0  0  0  0
   -4.5907   14.6450    1.3243 C   0  0  0  0  0  0  0  0  0  0  0  0
   -5.5325   15.6523    1.5063 C   0  0  0  0  0  0  0  0  0  0  0  0
   -6.1482   15.7697    2.7366 C   0  0  0  0  0  0  0  0  0  0  0  0
   -5.7920   14.8693    3.7340 C   0  0  0  0  0  0  0  0  0  0  0  0
   -4.8640   13.8821    3.5436 C   0  0  0  0  0  0  0  0  0  0  0  0
   -4.4959   12.9412    4.5958 C   0  0  0  0  0  0  0  0  0  0  0  0
   -3.4074   12.1138    4.5348 C   0  0  0  0  0  0  0  0  0  0  0  0
   -3.1230   11.2392    5.5874 C   0  0  0  0  0  0  0  0  0  0  0  0
   -3.9368   11.2004    6.6997 C   0  0  0  0  0  0  0  0  0  0  0  0
   -5.0437   12.0221    6.7934 C   0  0  0  0  0  0  0  0  0  0  0  0
   -5.2902   12.8644    5.7446 C   0  0  0  0  0  0  0  0  0  0  0  0
   -5.7228   11.7525    8.1061 C   0  0  0  0  0  0  0  0  0  0  0  0
   -4.6435   11.0654    8.8807 C   0  0  0  0  0  0  0  0  0  0  0  0
   -3.8859   10.4452    7.8596 O   0  0  0  0  0  0  0  0  0  0  0  0
   -4.2861   13.7992    2.3328 N   0  0  0  0  0  0  0  0  0  0  0  0
   -2.5017   16.8137   -2.5989 C   0  0  0  0  0  0  0  0  0  0  0  0
   -3.0220   17.9095   -2.3203 O   0  0  0  0  0  0  0  0  0  0  0  0
   -1.6972   16.7668   -3.6899 N   0  0  0  0  0  0  0  0  0  0  0  0
  1  2  1  0
  2  3  2  0
  3  4  1  0
  4  5  2  0
  5  6  1  0
  6  7  2  0
  6  8  1  0
  8  9  1  0
  9 10  2  0
 10 11  1  0
 11 12  2  0
 12 13  1  0
 13 14  1  0
 14 15  2  0
 15 16  1  0
 16 17  2  0
 17 18  1  0
 18 19  2  0
 18 20  1  0
 20 21  1  0
 21 22  1  0
 13 23  2  0
  5 24  1  0
 24 25  2  0
 24 26  1  0
 26  2  1  0
 23  9  1  0
 19 14  1  0
 22 17  1  0
M  END
$$$$
JZ02
     RDKit          3D

 28 31  0  0  0  0  0  0  0  0999 V2000
   -6.7400   13.8931    0.3453 C   0  0  0  0  0  0  0  0  0  0  0  0
   -5.3124   13.8176    0.8512 C   0  0  0  0  0  0  0  0  0  0  0  0
   -5.2613   13.2772    2.2609 C   0  0  0  0  0  0  0  0  0  0  0  0
   -4.6877   15.1433    0.7286 C   0  0  0  0  0  0  0  0  0  0  0  0
   -4.4306   15.9399    1.8226 C   0  0  0  0  0  0  0  0  0  0  0  0
   -3.8409   17.1683    1.6317 C   0  0  0  0  0  0  0  0  0  0  0  0
   -3.4905   17.6465    0.3854 C   0  0  0  0  0  0  0  0  0  0  0  0
   -3.7502   16.8456   -0.7030 C   0  0  0  0  0  0  0  0  0  0  0  0
   -4.3366   15.6178   -0.5435 C   0  0  0  0  0  0  0  0  0  0  0  0
   -3.3493   17.4117   -2.0418 C   0  0  2  0  0  0  0  0  0  0  0  0
   -3.8306   18.8356   -2.0271 C   0  0  0  0  0  0  0  0  0  0  0  0
   -3.1068   19.6703   -0.9947 C   0  0  0  0  0  0  0  0  0  0  0  0
   -2.8999   18.8683    0.1559 O   0  0  0  0  0  0  0  0  0  0  0  0
   -3.3111   16.5858   -3.2470 C   0  0  0  0  0  0  0  0  0  0  0  0
   -2.0404   17.0128   -2.6123 C   0  0  1  0  0  0  0  0  0  0  0  0
   -1.2336   18.1002   -3.2492 C   0  0  0  0  0  0  0  0  0  0  0  0
   -1.7578   19.2323   -3.3915 O   0  0  0  0  0  0  0  0  0  0  0  0
    0.0844   17.8790   -3.6854 N   0  0  0  0  0  0  0  0  0  0  0  0
    0.7901   18.7944   -4.5344 C   0  0  0  0  0  0  0  0  0  0  0  0
    1.8503   19.4676   -3.7492 C   0  0  0  0  0  0  0  0  0  0  0  0
    1.6388   20.3326   -2.7061 C   0  0  0  0  0  0  0  0  0  0  0  0
    2.6986   20.9213   -2.0394 C   0  0  0  0  0  0  0  0  0  0  0  0
    3.9933   20.6416   -2.4200 C   0  0  0  0  0  0  0  0  0  0  0  0
    4.2555   19.7720   -3.4697 C   0  0  0  0  0  0  0  0  0  0  0  0
    5.6221   19.4758   -3.8725 C   0  0  0  0  0  0  0  0  0  0  0  0
    5.8612   19.0067   -5.1874 N   0  0  0  0  0  0  0  0  0  0  0  0
    6.5858   19.6247   -3.0896 O   0  0  0  0  0  0  0  0  0  0  0  0
    3.1705   19.2100   -4.1039 C   0  0  0  0  0  0  0  0  0  0  0  0
  1  2  1  0
  2  3  1  0
  2  4  1  0
  4  5  2  0
  5  6  1  0
  6  7  2  0
  7  8  1  0
  8  9  2  0
  8 10  1  0
 10 11  1  6
 11 12  1  0
 12 13  1  0
 10 14  1  0
 14 15  1  0
 15 16  1  6
 16 17  2  0
 16 18  1  0
 18 19  1  0
 19 20  1  0
 20 21  2  0
 21 22  1  0
 22 23  2  0
 23 24  1  0
 24 25  1  0
 25 26  1  0
 25 27  2  0
 24 28  2  0
  9  4  1  0
 15 10  1  0
 28 20  1  0
 13  7  1  0
M  END
$$$$
JZ03
     RDKit          3D

 37 42  0  0  0  0  0  0  0  0999 V2000
   -4.5679   16.8088   -1.4770 O   0  0  0  0  0  0  0  0  0  0  0  0
   -3.3121   16.6816   -1.2714 C   0  0  0  0  0  0  0  0  0  0  0  0
   -2.9395   15.6236   -0.4202 N   0  0  0  0  0  0  0  0  0  0  0  0
   -3.8943   14.9902    0.4411 C   0  0  0  0  0  0  0  0  0  0  0  0
   -5.1629   14.6827   -0.0037 C   0  0  0  0  0  0  0  0  0  0  0  0
   -6.0849   14.0654    0.8448 C   0  0  0  0  0  0  0  0  0  0  0  0
   -5.6873   13.7713    2.1465 C   0  0  0  0  0  0  0  0  0  0  0  0
   -4.4245   14.0689    2.6149 C   0  0  0  0  0  0  0  0  0  0  0  0
   -4.0199   13.7545    3.9844 C   0  0  0  0  0  0  0  0  0  0  0  0
   -2.9491   14.2304    4.6609 N   0  0  0  0  0  0  0  0  0  0  0  0
   -2.9298   13.7066    5.8733 N   0  0  0  0  0  0  0  0  0  0  0  0
   -3.9834   12.8855    6.0029 C   0  0  0  0  0  0  0  0  0  0  0  0
   -4.6426   12.9250    4.8371 N   0  0  0  0  0  0  0  0  0  0  0  0
   -5.8470   12.2291    4.4384 C   0  0  0  0  0  0  0  0  0  0  0  0
   -6.0251   10.9364    5.2125 C   0  0  0  0  0  0  0  0  0  0  0  0
   -6.6191   11.1929    6.5749 C   0  0  0  0  0  0  0  0  0  0  0  0
   -5.8282   12.1737    7.3908 C   0  0  0  0  0  0  0  0  0  0  0  0
   -4.3543   12.0906    7.1887 C   0  0  0  0  0  0  0  0  0  0  0  0
   -3.5295   14.6851    1.7405 C   0  0  0  0  0  0  0  0  0  0  0  0
   -2.3731   17.6007   -1.9032 C   0  0  0  0  0  0  0  0  0  0  0  0
   -1.5872   18.4180   -1.1451 C   0  0  0  0  0  0  0  0  0  0  0  0
   -0.6760   19.3118   -1.7049 C   0  0  0  0  0  0  0  0  0  0  0  0
   -0.5605   19.3768   -3.0697 C   0  0  0  0  0  0  0  0  0  0  0  0
   -1.3502   18.5544   -3.8598 C   0  0  0  0  0  0  0  0  0  0  0  0
   -1.2323   18.6184   -5.3187 C   0  0  0  0  0  0  0  0  0  0  0  0
   -0.5045   17.4867   -5.8536 N   0  0  0  0  0  0  0  0  0  0  0  0
    0.8964   17.4379   -6.0603 C   0  0  0  0  0  0  0  0  0  0  0  0
    1.7048   18.3784   -5.8054 O   0  0  0  0  0  0  0  0  0  0  0  0
    1.2013   16.1303   -6.6066 C   0  0  0  0  0  0  0  0  0  0  0  0
    2.4239   15.6095   -6.9718 C   0  0  0  0  0  0  0  0  0  0  0  0
    2.4809   14.3366   -7.4713 C   0  0  0  0  0  0  0  0  0  0  0  0
    1.2921   13.6080   -7.5934 C   0  0  0  0  0  0  0  0  0  0  0  0
    0.0773   14.1374   -7.2259 C   0  0  0  0  0  0  0  0  0  0  0  0
    0.0294   15.4322   -6.7191 C   0  0  0  0  0  0  0  0  0  0  0  0
   -1.0712   16.2608   -6.2513 C   0  0  0  0  0  0  0  0  0  0  0  0
   -2.2805   15.8961   -6.2300 O   0  0  0  0  0  0  0  0  0  0  0  0
   -2.2439   17.6794   -3.2700 C   0  0  0  0  0  0  0  0  0  0  0  0
  1  2  2  0
  2  3  1  0
  3  4  1  0
  4  5  2  0
  5  6  1  0
  6  7  2  0
  7  8  1  0
  8  9  1  0
  9 10  2  0
 10 11  1  0
 11 12  2  0
 12 13  1  0
 13 14  1  0
 14 15  1  0
 15 16  1  0
 16 17  1  0
 17 18  1  0
  8 19  2  0
  2 20  1  0
 20 21  2  0
 21 22  1  0
 22 23  2  0
 23 24  1  0
 24 25  1  0
 25 26  1  0
 26 27  1  0
 27 28  2  0
 27 29  1  0
 29 30  2  0
 30 31  1  0
 31 32  2  0
 32 33  1  0
 33 34  2  0
 34 35  1  0
 35 36  2  0
 24 37  2  0
 19  4  1  0
 37 20  1  0
 13  9  1  0
 35 26  1  0
 18 12  1  0
 34 29  1  0
M  END
$$$$
JZ04
     RDKit          3D

 28 31  0  0  0  0  0  0  0  0999 V2000
   -7.6731   14.8441    2.6270 C   0  0  0  0  0  0  0  0  0  0  0  0
   -6.1821   14.6666    2.6409 C   0  0  0  0  0  0  0  0  0  0  0  0
   -5.4662   15.6966    1.8738 C   0  0  0  0  0  0  0  0  0  0  0  0
   -5.8087   17.0187    2.0609 C   0  0  0  0  0  0  0  0  0  0  0  0
   -5.1872   18.0352    1.3828 C   0  0  0  0  0  0  0  0  0  0  0  0
   -4.1800   17.7215    0.4783 C   0  0  0  0  0  0  0  0  0  0  0  0
   -3.8012   16.4301    0.2545 C   0  0  0  0  0  0  0  0  0  0  0  0
   -2.7877   16.1028   -0.6542 N   0  0  0  0  0  0  0  0  0  0  0  0
   -2.5662   14.8991   -1.3236 C   0  0  0  0  0  0  0  0  0  0  0  0
   -3.1293   13.8583   -0.9193 O   0  0  0  0  0  0  0  0  0  0  0  0
   -1.6681   14.8328   -2.5143 C   0  0  0  0  0  0  0  0  0  0  0  0
   -1.2590   13.6314   -3.0388 C   0  0  0  0  0  0  0  0  0  0  0  0
   -0.4472   13.5463   -4.1149 N   0  0  0  0  0  0  0  0  0  0  0  0
   -0.0210   14.6830   -4.6983 C   0  0  0  0  0  0  0  0  0  0  0  0
   -0.4124   15.9058   -4.1977 C   0  0  0  0  0  0  0  0  0  0  0  0
    0.0476   17.0878   -4.8271 N   0  0  0  0  0  0  0  0  0  0  0  0
   -0.1804   18.4241   -4.3614 C   0  0  0  0  0  0  0  0  0  0  0  0
    0.2302   19.3663   -5.4419 C   0  0  0  0  0  0  0  0  0  0  0  0
    0.9427   18.5440   -6.4629 C   0  0  0  0  0  0  0  0  0  0  0  0
    0.8249   17.1149   -6.0487 C   0  0  0  0  0  0  0  0  0  0  0  0
   -1.2355   15.9541   -3.1060 N   0  0  0  0  0  0  0  0  0  0  0  0
   -4.4706   15.4449    0.9740 C   0  0  0  0  0  0  0  0  0  0  0  0
   -5.8897   13.3696    2.0585 N   0  0  0  0  0  0  0  0  0  0  0  0
   -4.8968   12.7106    2.8440 C   0  0  0  0  0  0  0  0  0  0  0  0
   -4.3038   11.6608    2.4994 O   0  0  0  0  0  0  0  0  0  0  0  0
   -4.7275   13.4517    4.0366 N   0  0  0  0  0  0  0  0  0  0  0  0
   -5.6129   14.5603    3.9823 C   0  0  0  0  0  0  0  0  0  0  0  0
   -5.8490   15.3147    4.9565 O   0  0  0  0  0  0  0  0  0  0  0  0
  1  2  1  0
  2  3  1  0
  3  4  2  0
  4  5  1  0
  5  6  2  0
  6  7  1  0
  7  8  1  0
  8  9  1  0
  9 10  2  0
  9 11  1  0
 11 12  2  0
 12 13  1  0
 13 14  2  0
 14 15  1  0
 15 16  1  0
 16 17  1  0
 17 18  1  0
 18 19  1  0
 19 20  1  0
 15 21  2  0
  7 22  2  0
  2 23  1  0
 23 24  1  0
 24 25  2  0
 24 26  1  0
 26 27  1  0
 27 28  2  0
 27  2  1  0
 22  3  1  0
 21 11  1  0
 20 16  1  0
M  END
$$$$
JZ05
     RDKit          3D

 28 31  0  0  0  0  0  0  0  0999 V2000
   -2.1239   15.0080   -5.1612 C   0  0  0  0  0  0  0  0  0  0  0  0
   -0.7989   16.1768   -4.8629 S   0  0  0  0  0  6  0  0  0  0  0  0
   -0.0822   16.4232   -6.1355 O   0  0  0  0  0  0  0  0  0  0  0  0
    0.1109   15.5809   -3.8239 O   0  0  0  0  0  0  0  0  0  0  0  0
   -1.4366   17.6576   -4.2709 N   0  0  0  0  0  0  0  0  0  0  0  0
   -2.2869   17.6630   -3.1412 C   0  0  0  0  0  0  0  0  0  0  0  0
   -3.0727   18.7458   -2.8219 C   0  0  0  0  0  0  0  0  0  0  0  0
   -3.9022   18.7288   -1.7000 C   0  0  0  0  0  0  0  0  0  0  0  0
   -3.9613   17.6396   -0.8841 C   0  0  0  0  0  0  0  0  0  0  0  0
   -3.1874   16.5406   -1.1765 C   0  0  0  0  0  0  0  0  0  0  0  0
   -3.2025   15.3449   -0.3473 C   0  0  0  0  0  0  0  0  0  0  0  0
   -2.4425   14.3675   -0.6852 O   0  0  0  0  0  0  0  0  0  0  0  0
   -4.0032   15.2214    0.7895 N   0  0  0  0  0  0  0  0  0  0  0  0
   -3.8142   14.0582    1.6990 C   0  0  0  0  0  0  0  0  0  0  0  0
   -4.0802   13.5885    2.6754 N   0  0  0  0  0  0  0  0  0  0  0  0
   -3.7386   12.4587    3.2775 C   0  0  0  0  0  0  0  0  0  0  0  0
   -4.2169   12.0050    4.6145 C   0  0  0  0  0  0  0  0  0  0  0  0
   -3.7314   10.9360    5.3275 C   0  0  0  0  0  0  0  0  0  0  0  0
   -4.4210   10.8440    6.4943 N   0  0  0  0  0  0  0  0  0  0  0  0
   -5.3423   11.8158    6.5712 C   0  0  0  0  0  0  0  0  0  0  0  0
   -6.2777   12.1520    7.5299 C   0  0  0  0  0  0  0  0  0  0  0  0
   -7.0980   13.2334    7.3060 C   0  0  0  0  0  0  0  0  0  0  0  0
   -6.9705   13.9517    6.1411 C   0  0  0  0  0  0  0  0  0  0  0  0
   -6.0444   13.6327    5.1734 C   0  0  0  0  0  0  0  0  0  0  0  0
   -5.2111   12.5449    5.3863 C   0  0  0  0  0  0  0  0  0  0  0  0
   -2.8587   11.7338    2.4886 C   0  0  0  0  0  0  0  0  0  0  0  0
   -2.6167   12.7072    1.0154 S   0  0  0  0  0  0  0  0  0  0  0  0
   -2.3574   16.5709   -2.3079 C   0  0  0  0  0  0  0  0  0  0  0  0
  1  2  1  0
  2  3  2  0
  2  4  2  0
  2  5  1  0
  5  6  1  0
  6  7  2  0
  7  8  1  0
  8  9  2  0
  9 10  1  0
 10 11  1  0
 11 12  2  0
 11 13  1  0
 13 14  1  0
 14 15  2  0
 15 16  1  0
 16 17  1  0
 17 18  2  0
 18 19  1  0
 19 20  1  0
 20 21  2  0
 21 22  1  0
 22 23  2  0
 23 24  1  0
 24 25  2  0
 16 26  2  0
 26 27  1  0
 10 28  2  0
 28  6  1  0
 27 14  1  0
 25 17  1  0
 25 20  1  0
M  END
$$$$
JZ06
     RDKit          3D

 34 37  0  0  0  0  0  0  0  0999 V2000
   -3.4660   10.5514    6.6220 C   0  0  0  0  0  0  0  0  0  0  0  0
   -4.0175   11.4084    5.5508 C   0  0  0  0  0  0  0  0  0  0  0  0
   -3.6494   11.1195    4.2397 C   0  0  0  0  0  0  0  0  0  0  0  0
   -4.1267   11.8768    3.2052 C   0  0  0  0  0  0  0  0  0  0  0  0
   -3.8264   11.6604    1.8478 N   0  0  0  0  0  0  0  0  0  0  0  0
   -4.5514   12.3976    0.5002 S   0  0  0  0  0  6  0  0  0  0  0  0
   -5.9991   12.7698    0.7689 O   0  0  0  0  0  0  0  0  0  0  0  0
   -4.5514   11.3966   -0.6279 O   0  0  0  0  0  0  0  0  0  0  0  0
   -3.7117   13.8174   -0.0703 C   0  0  0  0  0  0  0  0  0  0  0  0
   -4.0154   15.0675    0.4913 C   0  0  0  0  0  0  0  0  0  0  0  0
   -3.3856   16.2086    0.0492 C   0  0  0  0  0  0  0  0  0  0  0  0
   -2.4380   16.1983   -0.9504 C   0  0  0  0  0  0  0  0  0  0  0  0
   -1.8380   17.4214   -1.3451 N   0  0  0  0  0  0  0  0  0  0  0  0
   -0.8440   17.5205   -2.3527 C   0  0  0  0  0  0  0  0  0  0  0  0
   -0.6701   16.5234   -3.0880 O   0  0  0  0  0  0  0  0  0  0  0  0
   -0.0426   18.7877   -2.5107 C   0  0  0  0  0  0  0  0  0  0  0  0
    0.1155   19.0281   -3.9753 C   0  0  0  0  0  0  0  0  0  0  0  0
    0.7193   20.2553   -4.3355 N   0  0  0  0  0  0  0  0  0  0  0  0
    2.1424   20.4210   -4.5095 C   0  0  0  0  0  0  0  0  0  0  0  0
    3.0436   19.5520   -4.3787 O   0  0  0  0  0  0  0  0  0  0  0  0
    2.3999   21.8093   -4.8773 C   0  0  0  0  0  0  0  0  0  0  0  0
    3.5046   22.5789   -5.1710 C   0  0  0  0  0  0  0  0  0  0  0  0
    3.4286   23.9175   -5.4953 C   0  0  0  0  0  0  0  0  0  0  0  0
    2.1884   24.5352   -5.5323 C   0  0  0  0  0  0  0  0  0  0  0  0
    1.0594   23.7991   -5.2445 C   0  0  0  0  0  0  0  0  0  0  0  0
    1.1648   22.4603   -4.9230 C   0  0  0  0  0  0  0  0  0  0  0  0
    0.1200   21.5002   -4.5877 C   0  0  0  0  0  0  0  0  0  0  0  0
   -1.1180   21.7110   -4.5241 O   0  0  0  0  0  0  0  0  0  0  0  0
   -2.1353   14.9788   -1.5054 C   0  0  0  0  0  0  0  0  0  0  0  0
   -2.7661   13.8261   -1.0646 C   0  0  0  0  0  0  0  0  0  0  0  0
   -4.9528   12.8898    3.5360 N   0  0  0  0  0  0  0  0  0  0  0  0
   -5.3301   13.2006    4.7717 C   0  0  0  0  0  0  0  0  0  0  0  0
   -6.2402   14.3376    4.9858 C   0  0  0  0  0  0  0  0  0  0  0  0
   -4.8482   12.4413    5.7833 N   0  0  0  0  0  0  0  0  0  0  0  0
  1  2  1  0
  2  3  2  0
  3  4  1  0
  4  5  1  0
  5  6  1  0
  6  7  2  0
  6  8  2  0
  6  9  1  0
  9 10  2  0
 10 11  1  0
 11 12  2  0
 12 13  1  0
 13 14  1  0
 14 15  2  0
 14 16  1  0
 16 17  1  0
 17 18  1  0
 18 19  1  0
 19 20  2  0
 19 21  1  0
 21 22  2  0
 22 23  1  0
 23 24  2  0
 24 25  1  0
 25 26  2  0
 26 27  1  0
 27 28  2  0
 12 29  1  0
 29 30  2  0
  4 31  2  0
 31 32  1  0
 32 33  1  0
 32 34  2  0
 34  2  1  0
 30  9  1  0
 27 18  1  0
 26 21  1  0
M  END
$$$$
JZ07
     RDKit          3D

 29 32  0  0  0  0  0  0  0  0999 V2000
   -0.3283   18.2813   -5.0675 C   0  0  0  0  0  0  0  0  0  0  0  0
   -0.0805   19.2322   -4.0002 N   0  0  0  0  0  0  0  0  0  0  0  0
    0.9007   20.1482   -3.9264 N   0  0  0  0  0  0  0  0  0  0  0  0
    0.7562   20.8018   -2.7883 N   0  0  0  0  0  0  0  0  0  0  0  0
   -0.3080   20.2934   -2.1614 N   0  0  0  0  0  0  0  0  0  0  0  0
   -0.8411   19.3145   -2.9029 C   0  0  0  0  0  0  0  0  0  0  0  0
   -2.0017   18.5184   -2.5712 C   0  0  0  0  0  0  0  0  0  0  0  0
   -3.1018   18.4666   -3.4206 C   0  0  0  0  0  0  0  0  0  0  0  0
   -4.1918   17.6910   -3.0628 C   0  0  0  0  0  0  0  0  0  0  0  0
   -4.2157   16.9670   -1.8843 C   0  0  0  0  0  0  0  0  0  0  0  0
   -3.1348   17.0107   -1.0380 C   0  0  0  0  0  0  0  0  0  0  0  0
   -3.1624   16.2673    0.1694 N   0  0  0  0  0  0  0  0  0  0  0  0
   -4.2139   15.3896    0.5309 C   0  0  0  0  0  0  0  0  0  0  0  0
   -5.2194   15.3418   -0.2202 O   0  0  0  0  0  0  0  0  0  0  0  0
   -4.1821   14.5502    1.7199 C   0  0  0  0  0  0  0  0  0  0  0  0
   -5.1838   13.7122    2.1664 C   0  0  0  0  0  0  0  0  0  0  0  0
   -4.7378   13.1042    3.3308 C   0  0  0  0  0  0  0  0  0  0  0  0
   -5.2706   12.1964    4.2103 C   0  0  0  0  0  0  0  0  0  0  0  0
   -6.6374   11.6766    3.9528 C   0  0  0  0  0  0  0  0  0  0  0  0
   -6.7268   11.0136    2.7654 F   0  0  0  0  0  0  0  0  0  0  0  0
   -6.9713   10.8055    4.9600 F   0  0  0  0  0  0  0  0  0  0  0  0
   -7.5216   12.7602    3.9127 F   0  0  0  0  0  0  0  0  0  0  0  0
   -4.5289   11.7931    5.3021 C   0  0  0  0  0  0  0  0  0  0  0  0
   -3.2590   12.3401    5.4521 C   0  0  0  0  0  0  0  0  0  0  0  0
   -2.5746   11.9790    6.4444 O   0  0  0  0  0  0  0  0  0  0  0  0
   -2.7306   13.2211    4.6068 N   0  0  0  0  0  0  0  0  0  0  0  0
   -3.4717   13.6133    3.5308 C   0  0  0  0  0  0  0  0  0  0  0  0
   -3.2000   14.4396    2.5774 O   0  0  0  0  0  0  0  0  0  0  0  0
   -2.0667   17.7695   -1.3865 C   0  0  0  0  0  0  0  0  0  0  0  0
  1  2  1  0
  2  3  1  0
  3  4  2  0
  4  5  1  0
  5  6  2  0
  6  7  1  0
  7  8  2  0
  8  9  1  0
  9 10  2  0
 10 11  1  0
 11 12  1  0
 12 13  1  0
 13 14  2  0
 13 15  1  0
 15 16  2  0
 16 17  1  0
 17 18  1  0
 18 19  1  0
 19 20  1  0
 19 21  1  0
 19 22  1  0
 18 23  2  0
 23 24  1  0
 24 25  2  0
 24 26  1  0
 26 27  1  0
 27 28  1  0
 11 29  2  0
  6  2  1  0
 29  7  1  0
 28 15  1  0
 27 17  2  0
M  END
$$$$
JZ08
     RDKit          3D

 28 31  0  0  0  0  0  0  0  0999 V2000
   -0.0285   18.0595   -2.4291 O   0  0  0  0  0  0  0  0  0  0  0  0
   -0.6730   18.9799   -3.0333 C   0  0  0  0  0  0  0  0  0  0  0  0
   -2.0838   19.0936   -2.9114 N   0  0  0  0  0  0  0  0  0  0  0  0
   -2.7669   18.3596   -1.8970 C   0  0  0  0  0  0  0  0  0  0  0  0
   -4.1155   18.4037   -1.7275 C   0  0  0  0  0  0  0  0  0  0  0  0
   -4.7021   17.7514   -0.6509 C   0  0  0  0  0  0  0  0  0  0  0  0
   -3.9541   17.0379    0.2817 C   0  0  0  0  0  0  0  0  0  0  0  0
   -4.5297   16.4033    1.4634 C   0  0  0  0  0  0  0  0  0  0  0  0
   -4.8355   14.9471    1.4090 C   0  0  0  0  0  0  0  0  0  0  0  0
   -5.7569   14.4315    2.4237 C   0  0  0  0  0  0  0  0  0  0  0  0
   -6.4266   15.2119    3.1871 O   0  0  0  0  0  0  0  0  0  0  0  0
   -5.9397   13.0442    2.6040 N   0  0  0  0  0  0  0  0  0  0  0  0
   -5.2801   11.9822    1.8491 C   0  0  0  0  0  0  0  0  0  0  0  0
   -5.5254   10.7278    2.6527 C   0  0  0  0  0  0  0  0  0  0  0  0
   -5.8790   11.2578    4.0195 C   0  0  0  0  0  0  0  0  0  0  0  0
   -6.7909   12.4421    3.6140 C   0  0  0  0  0  0  0  0  0  0  0  0
   -2.5930   17.0104    0.0770 C   0  0  0  0  0  0  0  0  0  0  0  0
   -2.0003   17.6535   -0.9850 C   0  0  0  0  0  0  0  0  0  0  0  0
    0.0258   19.9378   -3.8723 C   0  0  0  0  0  0  0  0  0  0  0  0
   -0.4922   21.1074   -4.3587 C   0  0  0  0  0  0  0  0  0  0  0  0
    0.2805   21.9425   -5.1671 C   0  0  0  0  0  0  0  0  0  0  0  0
    1.5747   21.6220   -5.4991 C   0  0  0  0  0  0  0  0  0  0  0  0
    2.0985   20.4261   -5.0009 C   0  0  0  0  0  0  0  0  0  0  0  0
    3.3073   19.8382   -5.1524 N   0  0  0  0  0  0  0  0  0  0  0  0
    3.3116   18.6754   -4.4705 C   0  0  0  0  0  0  0  0  0  0  0  0
    4.2664   17.8522   -4.3787 O   0  0  0  0  0  0  0  0  0  0  0  0
    2.1039   18.5401   -3.8942 N   0  0  0  0  0  0  0  0  0  0  0  0
    1.3420   19.6017   -4.2054 C   0  0  0  0  0  0  0  0  0  0  0  0
  1  2  2  0
  2  3  1  0
  3  4  1  0
  4  5  2  0
  5  6  1  0
  6  7  2  0
  7  8  1  0
  8  9  1  0
  9 10  1  0
 10 11  2  0
 10 12  1  0
 12 13  1  0
 13 14  1  0
 14 15  1  0
 15 16  1  0
  7 17  1  0
 17 18  2  0
  2 19  1  0
 19 20  2  0
 20 21  1  0
 21 22  2  0
 22 23  1  0
 23 24  1  0
 24 25  1  0
 25 26  2  0
 25 27  1  0
 27 28  1  0
 18  4  1  0
 28 19  1  0
 16 12  1  0
 28 23  2  0
M  END
$$$$
JZ09
     RDKit          3D

 28 31  0  0  0  0  0  0  0  0999 V2000
    6.2628    5.9661   18.7723 N   0  0  0  0  0  0  0  0  0  0  0  0
    4.9190    5.6195   18.7674 C   0  0  0  0  0  0  0  0  0  0  0  0
    4.6478    4.3519   18.7579 O   0  0  0  0  0  0  0  0  0  0  0  0
    3.7804    6.4918   18.7738 C   0  0  0  0  0  0  0  0  0  0  0  0
    3.7878    7.6815   19.4754 C   0  0  0  0  0  0  0  0  0  0  0  0
    2.7018    8.5175   19.5186 C   0  0  0  0  0  0  0  0  0  0  0  0
    1.5005    8.2249   18.8521 C   0  0  0  0  0  0  0  0  0  0  0  0
    0.4581    9.1524   18.9705 N   0  0  0  0  0  0  0  0  0  0  0  0
    0.5403   10.5317   19.3175 C   0  0  0  0  0  0  0  0  0  0  0  0
    1.6590   11.0047   19.5801 O   0  0  0  0  0  0  0  0  0  0  0  0
   -0.7018   11.3233   19.3371 C   0  0  0  0  0  0  0  0  0  0  0  0
   -1.7675   11.0947   18.4980 C   0  0  0  0  0  0  0  0  0  0  0  0
   -2.8851   11.9263   18.5590 C   0  0  0  0  0  0  0  0  0  0  0  0
   -4.0340   11.7645   17.6567 C   0  0  0  0  0  0  0  0  0  0  0  0
   -4.3349   10.6012   17.0065 C   0  0  0  0  0  0  0  0  0  0  0  0
   -5.4297   10.5955   16.1343 C   0  0  0  0  0  0  0  0  0  0  0  0
   -6.1733   11.7430   15.9501 C   0  0  0  0  0  0  0  0  0  0  0  0
   -5.8745   12.8855   16.5938 N   0  0  0  0  0  0  0  0  0  0  0  0
   -4.8227   12.8820   17.4274 C   0  0  0  0  0  0  0  0  0  0  0  0
   -2.8472   12.9205   19.4592 N   0  0  0  0  0  0  0  0  0  0  0  0
   -1.8359   13.1756   20.2901 C   0  0  0  0  0  0  0  0  0  0  0  0
   -1.8581   14.2340   21.1886 C   0  0  0  0  0  0  0  0  0  0  0  0
   -0.7958   14.4951   22.0321 C   0  0  0  0  0  0  0  0  0  0  0  0
    0.3294   13.6917   21.9971 C   0  0  0  0  0  0  0  0  0  0  0  0
    0.3356   12.6248   21.0834 C   0  0  0  0  0  0  0  0  0  0  0  0
   -0.7253   12.3702   20.2448 C   0  0  0  0  0  0  0  0  0  0  0  0
    1.4918    7.0477   18.1546 C   0  0  0  0  0  0  0  0  0  0  0  0
    2.5875    6.2064   18.1122 C   0  0  0  0  0  0  0  0  0  0  0  0
  1  2  1  0
  2  3  2  0
  2  4  1  0
  4  5  2  0
  5  6  1  0
  6  7  2  0
  7  8  1  0
  8  9  1  0
  9 10  2  0
  9 11  1  0
 11 12  2  0
 12 13  1  0
 13 14  1  0
 14 15  2  0
 15 16  1  0
 16 17  2  0
 17 18  1  0
 18 19  2  0
 13 20  2  0
 20 21  1  0
 21 22  2  0
 22 23  1  0
 23 24  2  0
 24 25  1  0
 25 26  2  0
  7 27  1  0
 27 28  2  0
 28  4  1  0
 26 11  1  0
 19 14  1  0
 26 21  1  0
M  END
$$$$
JZ10
     RDKit          3D

 29 33  0  0  0  0  0  0  0  0999 V2000
   -6.5675   13.3403    6.7886 C   0  0  0  0  0  0  0  0  0  0  0  0
   -5.4654   12.6036    6.1960 N   0  0  0  0  0  0  0  0  0  0  0  0
   -4.9062   11.5054    6.7367 C   0  0  0  0  0  0  0  0  0  0  0  0
   -3.9163   11.0795    5.9305 N   0  0  0  0  0  0  0  0  0  0  0  0
   -3.8856   11.9126    4.9226 N   0  0  0  0  0  0  0  0  0  0  0  0
   -4.8326   12.8647    5.0612 C   0  0  0  0  0  0  0  0  0  0  0  0
   -5.0786   13.9513    4.1224 C   0  0  0  0  0  0  0  0  0  0  0  0
   -4.4598   13.9697    2.8669 C   0  0  0  0  0  0  0  0  0  0  0  0
   -4.7121   15.0110    2.0002 C   0  0  0  0  0  0  0  0  0  0  0  0
   -4.0705   15.0205    0.7109 N   0  0  0  0  0  0  0  0  0  0  0  0
   -3.5313   13.9032   -0.0157 C   0  0  0  0  0  0  0  0  0  0  0  0
   -2.9979   14.4663   -1.2636 C   0  0  0  0  0  0  0  0  0  0  0  0
   -3.1849   15.8288   -1.3210 C   0  0  0  0  0  0  0  0  0  0  0  0
   -2.7611   16.5823   -2.4097 C   0  0  0  0  0  0  0  0  0  0  0  0
   -2.1336   15.9630   -3.4712 C   0  0  0  0  0  0  0  0  0  0  0  0
   -1.9357   14.5999   -3.4356 C   0  0  0  0  0  0  0  0  0  0  0  0
   -2.3619   13.8688   -2.3492 C   0  0  0  0  0  0  0  0  0  0  0  0
   -2.1277   12.3805   -2.3466 C   0  0  0  0  0  0  0  0  0  0  0  0
   -3.3052   11.7280   -2.0520 F   0  0  0  0  0  0  0  0  0  0  0  0
   -1.2082   12.0585   -1.3628 F   0  0  0  0  0  0  0  0  0  0  0  0
   -1.6958   12.0054   -3.5898 F   0  0  0  0  0  0  0  0  0  0  0  0
   -3.8582   16.1813   -0.0831 C   0  0  0  0  0  0  0  0  0  0  0  0
   -4.1874   17.3703    0.1997 O   0  0  0  0  0  0  0  0  0  0  0  0
   -5.5455   15.9991    2.3598 N   0  0  0  0  0  0  0  0  0  0  0  0
   -6.1519   16.0031    3.5613 C   0  0  0  0  0  0  0  0  0  0  0  0
   -7.0842   17.1146    3.9557 C   0  0  0  0  0  0  0  0  0  0  0  0
   -6.6982   18.4743    3.5155 C   0  0  0  0  0  0  0  0  0  0  0  0
   -7.8640   17.7368    2.8669 C   0  0  0  0  0  0  0  0  0  0  0  0
   -5.8965   14.9814    4.3962 N   0  0  0  0  0  0  0  0  0  0  0  0
  1  2  1  0
  2  3  1  0
  3  4  2  0
  4  5  1  0
  5  6  2  0
  6  7  1  0
  7  8  2  0
  8  9  1  0
  9 10  1  0
 10 11  1  0
 11 12  1  0
 12 13  2  0
 13 14  1  0
 14 15  2  0
 15 16  1  0
 16 17  2  0
 17 18  1  0
 18 19  1  0
 18 20  1  0
 18 21  1  0
 13 22  1  0
 22 23  2  0
  9 24  2  0
 24 25  1  0
 25 26  1  0
 26 27  1  0
 27 28  1  0
 25 29  2  0
  6  2  1  0
 29  7  1  0
 22 10  1  0
 28 26  1  0
 17 12  1  0
M  END
$$$$
WY01
     RDKit          3D

 28 31  0  0  0  0  0  0  0  0999 V2000
   -5.1547   18.0501    3.4832 C   0  0  0  0  0  0  0  0  0  0  0  0
   -4.9882   17.2719    2.2306 C   0  0  0  0  0  0  0  0  0  0  0  0
   -4.0591   17.6013    1.2479 C   0  0  0  0  0  0  0  0  0  0  0  0
   -3.9281   16.8613    0.0983 C   0  0  0  0  0  0  0  0  0  0  0  0
   -4.7211   15.7969   -0.0700 N   0  0  0  0  0  0  0  0  0  0  0  0
   -5.6261   15.4564    0.8620 C   0  0  0  0  0  0  0  0  0  0  0  0
   -5.7574   16.1763    1.9865 N   0  0  0  0  0  0  0  0  0  0  0  0
   -6.4908   14.2791    0.6574 C   0  0  0  0  0  0  0  0  0  0  0  0
   -5.9111   13.2097   -0.2135 C   0  0  0  0  0  0  0  0  0  0  0  0
   -7.1138   14.0242   -0.6680 C   0  0  0  0  0  0  0  0  0  0  0  0
   -2.9420   17.2569   -0.8861 C   0  0  0  0  0  0  0  0  0  0  0  0
   -2.1182   18.1761   -0.6484 O   0  0  0  0  0  0  0  0  0  0  0  0
   -2.8401   16.6401   -2.1713 N   0  0  0  0  0  0  0  0  0  0  0  0
   -1.7044   16.8652   -3.0266 C   0  0  0  0  0  0  0  0  0  0  0  0
   -1.1359   15.8622   -3.7654 C   0  0  0  0  0  0  0  0  0  0  0  0
   -0.0559   16.1027   -4.5714 C   0  0  0  0  0  0  0  0  0  0  0  0
    0.4917   17.3580   -4.6643 C   0  0  0  0  0  0  0  0  0  0  0  0
   -0.0580   18.3734   -3.9373 C   0  0  0  0  0  0  0  0  0  0  0  0
   -1.1446   18.1292   -3.1271 C   0  0  0  0  0  0  0  0  0  0  0  0
    0.5364   19.7679   -4.0294 C   0  0  0  0  0  0  0  0  0  0  0  0
   -0.5044   20.7517   -3.6035 C   0  0  0  0  0  0  0  0  0  0  0  0
    1.7877   19.7437   -3.2067 C   0  0  0  0  0  0  0  0  0  0  0  0
    3.0431   19.9958   -3.8195 C   0  0  0  0  0  0  0  0  0  0  0  0
    3.5069   20.9844   -4.4373 N   0  0  0  0  0  0  0  0  0  0  0  0
    4.7368   20.9696   -4.9260 N   0  0  0  0  0  0  0  0  0  0  0  0
    5.5178   20.0150   -4.8244 C   0  0  0  0  0  0  0  0  0  0  0  0
    4.5298   18.7712   -3.8826 S   0  0  0  0  0  4  0  0  0  0  0  0
    5.4535   19.8299   -1.8157 Cl  0  0  0  0  0  0  0  0  0  0  0  0
  1  2  1  0
  2  3  2  0
  3  4  1  0
  4  5  2  0
  5  6  1  0
  6  7  2  0
  6  8  1  0
  8  9  1  0
  9 10  1  0
  4 11  1  0
 11 12  2  0
 11 13  1  0
 13 14  1  0
 14 15  2  0
 15 16  1  0
 16 17  2  0
 17 18  1  0
 18 19  2  0
 18 20  1  0
 20 21  1  0
 20 22  1  0
 22 23  1  0
 23 24  2  0
 24 25  1  0
 25 26  2  0
 26 27  1  0
 27 28  1  0
  7  2  1  0
 10  8  1  0
 19 14  1  0
 27 23  1  0
M  END
$$$$
WY02
     RDKit          3D

 38 42  0  0  0  0  0  0  0  0999 V2000
   -5.5548   11.8789    2.8078 C   0  0  0  0  0  0  0  0  0  0  0  0
   -5.7696   13.3628    2.6076 C   0  0  0  0  0  0  0  0  0  0  0  0
   -5.2252   14.0814    3.8481 C   0  0  0  0  0  0  0  0  0  0  0  0
   -4.4553   15.2628    3.3156 C   0  0  0  0  0  0  0  0  0  0  0  0
   -4.6860   15.2463    1.8339 C   0  0  0  0  0  0  0  0  0  0  0  0
   -4.8875   13.8197    1.5669 N   0  0  0  0  0  0  0  0  0  0  0  0
   -4.2630   13.1359    0.4827 C   0  0  0  0  0  0  0  0  0  0  0  0
   -4.3469   11.9099    0.3727 O   0  0  0  0  0  0  0  0  0  0  0  0
   -3.5031   13.8966   -0.5210 C   0  0  0  0  0  0  0  0  0  0  0  0
   -3.2545   15.2112   -0.2228 C   0  0  0  0  0  0  0  0  0  0  0  0
   -2.5920   16.0424   -1.1297 C   0  0  0  0  0  0  0  0  0  0  0  0
   -2.1847   15.5204   -2.3295 C   0  0  0  0  0  0  0  0  0  0  0  0
   -1.4581   16.5623   -3.0512 C   0  0  0  0  0  0  0  0  0  0  0  0
   -1.7534   17.7992   -2.3866 N   0  0  0  0  0  0  0  0  0  0  0  0
   -2.3242   17.4759   -1.1293 C   0  0  0  0  0  0  0  0  0  0  0  0
   -2.5734   18.2464   -0.1583 O   0  0  0  0  0  0  0  0  0  0  0  0
   -1.5584   19.1358   -2.9033 C   0  0  0  0  0  0  0  0  0  0  0  0
   -2.5604   20.0694   -2.9285 C   0  0  0  0  0  0  0  0  0  0  0  0
   -2.3873   21.3420   -3.4369 C   0  0  0  0  0  0  0  0  0  0  0  0
   -1.1323   21.6783   -3.9439 C   0  0  0  0  0  0  0  0  0  0  0  0
   -0.1069   20.7745   -3.9346 C   0  0  0  0  0  0  0  0  0  0  0  0
   -0.3407   19.5001   -3.4072 C   0  0  0  0  0  0  0  0  0  0  0  0
    1.2280   21.1971   -4.4450 C   0  0  0  0  0  0  0  0  0  0  0  0
    1.1623   22.5550   -5.0947 C   0  0  0  0  0  0  0  0  0  0  0  0
    1.7457   20.1652   -5.3741 C   0  0  0  0  0  0  0  0  0  0  0  0
    2.6098   19.1149   -4.8328 C   0  0  0  0  0  0  0  0  0  0  0  0
    3.8237   19.3068   -4.1926 C   0  0  0  0  0  0  0  0  0  0  0  0
    4.2581   18.0622   -3.8365 C   0  0  0  0  0  0  0  0  0  0  0  0
    3.3392   17.1917   -4.2511 N   0  0  0  0  0  0  0  0  0  0  0  0
    2.3466   17.8050   -4.8495 N   0  0  0  0  0  0  0  0  0  0  0  0
    4.4990   20.6016   -3.9916 C   0  0  0  0  0  0  0  0  0  0  0  0
   -2.4224   14.1904   -2.6598 C   0  0  0  0  0  0  0  0  0  0  0  0
   -3.0863   13.4048   -1.7294 C   0  0  0  0  0  0  0  0  0  0  0  0
   -2.0060   13.5814   -3.9409 C   0  0  0  0  0  0  0  0  0  0  0  0
   -0.6047   13.6068   -3.9977 F   0  0  0  0  0  0  0  0  0  0  0  0
   -2.3853   14.4125   -5.0121 F   0  0  0  0  0  0  0  0  0  0  0  0
   -2.5587   11.9364   -4.1896 Cl  0  0  0  0  0  0  0  0  0  0  0  0
   -3.0982   15.0209    3.5220 O   0  0  0  0  0  0  0  0  0  0  0  0
  1  2  1  0
  2  3  1  0
  3  4  1  0
  4  5  1  0
  5  6  1  0
  6  7  1  0
  7  8  2  0
  7  9  1  0
  9 10  2  0
 10 11  1  0
 11 12  2  0
 12 13  1  0
 13 14  1  0
 14 15  1  0
 15 16  2  0
 14 17  1  0
 17 18  2  0
 18 19  1  0
 19 20  2  0
 20 21  1  0
 21 22  2  0
 21 23  1  0
 23 24  1  0
 23 25  1  0
 25 26  1  0
 26 27  2  0
 27 28  1  0
 28 29  2  0
 29 30  1  0
 27 31  1  0
 12 32  1  0
 32 33  2  0
 32 34  1  0
 34 35  1  0
 34 36  1  0
 34 37  1  0
  4 38  1  0
  6  2  1  0
 33  9  1  0
 15 11  1  0
 22 17  1  0
 30 26  1  0
M  END
$$$$
WY03
     RDKit          3D

 31 35  0  0  0  0  0  0  0  0999 V2000
    5.8295   17.5891   -3.8407 C   0  0  0  0  0  0  0  0  0  0  0  0
    5.4398   18.5823   -4.8100 N   0  0  0  0  0  0  0  0  0  0  0  0
    6.1293   18.8787   -5.9233 C   0  0  0  0  0  0  0  0  0  0  0  0
    5.4382   19.8519   -6.5555 N   0  0  0  0  0  0  0  0  0  0  0  0
    4.3492   20.1276   -5.8206 N   0  0  0  0  0  0  0  0  0  0  0  0
    4.3413   19.3441   -4.7344 C   0  0  0  0  0  0  0  0  0  0  0  0
    3.3243   19.3433   -3.6942 C   0  0  0  0  0  0  0  0  0  0  0  0
    3.3790   20.2149   -2.4974 C   0  0  0  0  0  0  0  0  0  0  0  0
    2.5283   20.6495   -3.6018 C   0  0  0  0  0  0  0  0  0  0  0  0
    1.0786   20.4584   -3.6433 C   0  0  0  0  0  0  0  0  0  0  0  0
    0.4142   19.4897   -2.8862 C   0  0  0  0  0  0  0  0  0  0  0  0
   -0.9308   19.3065   -2.9182 C   0  0  0  0  0  0  0  0  0  0  0  0
   -1.6502   20.1536   -3.7670 C   0  0  0  0  0  0  0  0  0  0  0  0
   -1.0595   21.1270   -4.5387 C   0  0  0  0  0  0  0  0  0  0  0  0
    0.3138   21.2596   -4.4583 C   0  0  0  0  0  0  0  0  0  0  0  0
   -1.6787   18.3579   -2.1916 N   0  0  0  0  0  0  0  0  0  0  0  0
   -2.5591   18.5962   -1.1214 C   0  0  0  0  0  0  0  0  0  0  0  0
   -2.7593   19.7714   -0.7516 O   0  0  0  0  0  0  0  0  0  0  0  0
   -3.2515   17.4806   -0.4268 C   0  0  0  0  0  0  0  0  0  0  0  0
   -3.1415   16.1730   -0.7001 N   0  0  0  0  0  0  0  0  0  0  0  0
   -3.9395   15.4876    0.1650 C   0  0  0  0  0  0  0  0  0  0  0  0
   -4.2036   14.1532    0.3293 C   0  0  0  0  0  0  0  0  0  0  0  0
   -5.0793   13.7629    1.3183 C   0  0  0  0  0  0  0  0  0  0  0  0
   -5.7084   14.6764    2.1600 C   0  0  0  0  0  0  0  0  0  0  0  0
   -5.4361   15.9974    1.9846 C   0  0  0  0  0  0  0  0  0  0  0  0
   -4.5626   16.4043    1.0001 C   0  0  0  0  0  0  0  0  0  0  0  0
   -4.1054   17.6123    0.5941 N   0  0  0  0  0  0  0  0  0  0  0  0
   -3.5292   13.1810   -0.5724 C   0  0  0  0  0  0  0  0  0  0  0  0
   -4.0635   13.3739   -1.8482 F   0  0  0  0  0  0  0  0  0  0  0  0
   -3.8903   11.9031   -0.1868 F   0  0  0  0  0  0  0  0  0  0  0  0
   -1.7780   13.4066   -0.6157 Cl  0  0  0  0  0  0  0  0  0  0  0  0
  1  2  1  0
  2  3  1  0
  3  4  2  0
  4  5  1  0
  5  6  2  0
  6  7  1  0
  7  8  1  0
  8  9  1  0
  9 10  1  0
 10 11  2  0
 11 12  1  0
 12 13  2  0
 13 14  1  0
 14 15  2  0
 12 16  1  0
 16 17  1  0
 17 18  2  0
 17 19  1  0
 19 20  2  0
 20 21  1  0
 21 22  2  0
 22 23  1  0
 23 24  2  0
 24 25  1  0
 25 26  2  0
 26 27  1  0
 22 28  1  0
 28 29  1  0
 28 30  1  0
 28 31  1  0
  6  2  1  0
  9  7  1  0
 15 10  1  0
 27 19  1  0
 26 21  1  0
M  END
$$$$
WY04
     RDKit          3D

 34 38  0  0  0  0  0  0  0  0999 V2000
   -5.8028   17.0253   -2.5494 C   0  0  0  0  0  0  0  0  0  0  0  0
   -4.3037   17.1435   -2.3693 C   0  0  0  0  0  0  0  0  0  0  0  0
   -3.9409   18.5163   -1.8438 C   0  0  0  0  0  0  0  0  0  0  0  0
   -2.5766   18.8268   -2.3554 C   0  0  0  0  0  0  0  0  0  0  0  0
   -1.9262   18.2169   -3.3620 N   0  0  0  0  0  0  0  0  0  0  0  0
   -0.7410   18.7513   -3.5400 N   0  0  0  0  0  0  0  0  0  0  0  0
   -0.6046   19.7288   -2.6388 C   0  0  0  0  0  0  0  0  0  0  0  0
   -1.7484   19.7760   -1.9005 N   0  0  0  0  0  0  0  0  0  0  0  0
   -2.0016   20.7090   -0.8087 C   0  0  0  0  0  0  0  0  0  0  0  0
   -3.8167   16.0841   -1.4426 C   0  0  0  0  0  0  0  0  0  0  0  0
   -2.6806   15.3812   -1.7782 C   0  0  0  0  0  0  0  0  0  0  0  0
   -2.1968   14.3922   -0.9469 C   0  0  0  0  0  0  0  0  0  0  0  0
   -2.8714   14.1066    0.2450 C   0  0  0  0  0  0  0  0  0  0  0  0
   -4.0123   14.7965    0.6045 C   0  0  0  0  0  0  0  0  0  0  0  0
   -4.4446   15.7727   -0.2688 C   0  0  0  0  0  0  0  0  0  0  0  0
   -4.7208   14.5035    1.8466 C   0  0  0  0  0  0  0  0  0  0  0  0
   -5.8430   15.0630    2.3353 N   0  0  0  0  0  0  0  0  0  0  0  0
   -6.1626   14.5094    3.5044 N   0  0  0  0  0  0  0  0  0  0  0  0
   -5.2639   13.5629    3.8326 C   0  0  0  0  0  0  0  0  0  0  0  0
   -4.3550   13.5544    2.7946 C   0  0  0  0  0  0  0  0  0  0  0  0
   -3.3152   12.6847    2.8491 N   0  0  0  0  0  0  0  0  0  0  0  0
   -3.1600   11.8418    3.8871 C   0  0  0  0  0  0  0  0  0  0  0  0
   -4.0778   11.8573    4.9253 C   0  0  0  0  0  0  0  0  0  0  0  0
   -5.1563   12.7199    4.9259 C   0  0  0  0  0  0  0  0  0  0  0  0
   -6.0838   12.7248    5.9906 N   0  0  0  0  0  0  0  0  0  0  0  0
   -6.2480   11.8139    7.0767 C   0  0  0  0  0  0  0  0  0  0  0  0
   -7.6605   11.9493    7.5784 C   0  0  0  0  0  0  0  0  0  0  0  0
   -8.3322   12.9763    6.7060 C   0  0  0  0  0  0  0  0  0  0  0  0
   -7.1185   13.7495    6.1750 C   0  0  0  0  0  0  0  0  0  0  0  0
   -8.9938   12.3773    5.6535 O   0  0  0  0  0  0  0  0  0  0  0  0
   -1.9929   10.9140    3.8784 C   0  0  0  0  0  0  0  0  0  0  0  0
   -1.6646   10.4896    5.1371 F   0  0  0  0  0  0  0  0  0  0  0  0
   -0.9144   11.6439    3.3906 F   0  0  0  0  0  0  0  0  0  0  0  0
   -2.3819    9.1960    2.6840 I   0  0  0  0  0  0  0  0  0  0  0  0
  1  2  1  0
  2  3  1  0
  3  4  1  0
  4  5  2  0
  5  6  1  0
  6  7  2  0
  7  8  1  0
  8  9  1  0
  2 10  1  0
 10 11  2  0
 11 12  1  0
 12 13  2  0
 13 14  1  0
 14 15  2  0
 14 16  1  0
 16 17  2  0
 17 18  1  0
 18 19  1  0
 19 20  2  0
 20 21  1  0
 21 22  2  0
 22 23  1  0
 23 24  2  0
 24 25  1  0
 25 26  1  0
 26 27  1  0
 27 28  1  0
 28 29  1  0
 28 30  1  0
 22 31  1  0
 31 32  1  0
 31 33  1  0
 31 34  1  0
  8  4  1  0
 15 10  1  0
 20 16  1  0
 24 19  1  0
 29 25  1  0
M  END
$$$$
WY05
     RDKit          3D

 34 38  0  0  0  0  0  0  0  0999 V2000
   -7.9333   10.9011    6.0305 C   0  0  0  0  0  0  0  0  0  0  0  0
   -6.8446   11.8127    6.5940 C   0  0  0  0  0  0  0  0  0  0  0  0
   -6.4035   11.2277    7.8974 C   0  0  0  0  0  0  0  0  0  0  0  0
   -6.6736   12.1574    9.0077 C   0  0  0  0  0  0  0  0  0  0  0  0
   -6.3092   13.4445    9.0445 N   0  0  0  0  0  0  0  0  0  0  0  0
   -6.7253   13.9458   10.1945 N   0  0  0  0  0  0  0  0  0  0  0  0
   -7.3552   13.0078   10.9091 C   0  0  0  0  0  0  0  0  0  0  0  0
   -7.3230   11.8895   10.1674 N   0  0  0  0  0  0  0  0  0  0  0  0
   -7.8774   10.5939   10.5130 C   0  0  0  0  0  0  0  0  0  0  0  0
   -5.7074   11.8915    5.6435 C   0  0  0  0  0  0  0  0  0  0  0  0
   -4.6885   10.9661    5.7259 C   0  0  0  0  0  0  0  0  0  0  0  0
   -3.6170   11.0122    4.8569 C   0  0  0  0  0  0  0  0  0  0  0  0
   -3.5447   11.9815    3.8922 C   0  0  0  0  0  0  0  0  0  0  0  0
   -4.5483   12.9201    3.7856 C   0  0  0  0  0  0  0  0  0  0  0  0
   -5.5976   12.8506    4.6595 C   0  0  0  0  0  0  0  0  0  0  0  0
   -4.4502   13.9481    2.7450 C   0  0  0  0  0  0  0  0  0  0  0  0
   -4.7187   15.2613    2.8393 N   0  0  0  0  0  0  0  0  0  0  0  0
   -4.5075   15.8564    1.6745 N   0  0  0  0  0  0  0  0  0  0  0  0
   -4.0948   14.9836    0.7623 C   0  0  0  0  0  0  0  0  0  0  0  0
   -4.0532   13.7560    1.4341 C   0  0  0  0  0  0  0  0  0  0  0  0
   -3.6674   12.6657    0.7666 N   0  0  0  0  0  0  0  0  0  0  0  0
   -3.3169   12.7073   -0.5314 C   0  0  0  0  0  0  0  0  0  0  0  0
   -3.3559   13.9135   -1.1986 C   0  0  0  0  0  0  0  0  0  0  0  0
   -3.7439   15.0828   -0.5760 C   0  0  0  0  0  0  0  0  0  0  0  0
   -3.7859   16.3245   -1.2618 N   0  0  0  0  0  0  0  0  0  0  0  0
   -3.4560   16.4825   -2.6629 C   0  0  0  0  0  0  0  0  0  0  0  0
   -4.3716   17.6247   -3.0580 C   0  0  0  0  0  0  0  0  0  0  0  0
   -4.2025   18.5531   -1.8615 C   0  0  0  0  0  0  0  0  0  0  0  0
   -4.1565   17.6111   -0.6923 C   0  0  0  0  0  0  0  0  0  0  0  0
   -3.0075   19.2518   -2.0338 O   0  0  0  0  0  0  0  0  0  0  0  0
   -2.8858   11.4585   -1.2571 C   0  0  0  0  0  0  0  0  0  0  0  0
   -1.9488   11.7443   -2.2049 F   0  0  0  0  0  0  0  0  0  0  0  0
   -2.3851   10.5194   -0.3681 F   0  0  0  0  0  0  0  0  0  0  0  0
   -4.2953   10.7406   -2.0585 Cl  0  0  0  0  0  0  0  0  0  0  0  0
  1  2  1  0
  2  3  1  0
  3  4  1  0
  4  5  2  0
  5  6  1  0
  6  7  2  0
  7  8  1  0
  8  9  1  0
  2 10  1  0
 10 11  2  0
 11 12  1  0
 12 13  2  0
 13 14  1  0
 14 15  2  0
 14 16  1  0
 16 17  2  0
 17 18  1  0
 18 19  1  0
 19 20  2  0
 20 21  1  0
 21 22  2  0
 22 23  1  0
 23 24  2  0
 24 25  1  0
 25 26  1  0
 26 27  1  0
 27 28  1  0
 28 29  1  0
 28 30  1  0
 22 31  1  0
 31 32  1  0
 31 33  1  0
 31 34  1  0
  8  4  1  0
 15 10  1  0
 20 16  1  0
 24 19  1  0
 29 25  1  0
M  END
$$$$
WY06
     RDKit          3D

 28 31  0  0  0  0  0  0  0  0999 V2000
   -3.3474   15.8912   -4.3412 C   0  0  0  0  0  0  0  0  0  0  0  0
   -2.0826   16.5304   -3.7940 C   0  0  0  0  0  0  0  0  0  0  0  0
   -2.3113   17.1944   -2.5027 C   0  0  0  0  0  0  0  0  0  0  0  0
   -3.1852   16.7054   -1.5690 C   0  0  0  0  0  0  0  0  0  0  0  0
   -3.4278   17.3223   -0.3275 C   0  0  0  0  0  0  0  0  0  0  0  0
   -2.7387   18.4709   -0.0677 C   0  0  0  0  0  0  0  0  0  0  0  0
   -1.8418   18.9939   -0.9980 C   0  0  0  0  0  0  0  0  0  0  0  0
   -1.6312   18.3582   -2.2068 C   0  0  0  0  0  0  0  0  0  0  0  0
   -4.3665   16.6984    0.5465 N   0  0  0  0  0  0  0  0  0  0  0  0
   -4.4237   15.3333    0.8395 C   0  0  0  0  0  0  0  0  0  0  0  0
   -3.8703   14.4947    0.1224 O   0  0  0  0  0  0  0  0  0  0  0  0
   -5.1557   14.8647    2.0259 C   0  0  0  0  0  0  0  0  0  0  0  0
   -5.6109   13.5797    2.0989 C   0  0  0  0  0  0  0  0  0  0  0  0
   -6.3014   13.1164    3.2037 C   0  0  0  0  0  0  0  0  0  0  0  0
   -6.7727   11.8175    3.3003 C   0  0  0  0  0  0  0  0  0  0  0  0
   -7.4592   11.3795    4.4140 C   0  0  0  0  0  0  0  0  0  0  0  0
   -7.7039   12.2220    5.4791 C   0  0  0  0  0  0  0  0  0  0  0  0
   -7.2285   13.5220    5.3749 C   0  0  0  0  0  0  0  0  0  0  0  0
   -6.5394   13.9674    4.2608 C   0  0  0  0  0  0  0  0  0  0  0  0
   -6.0658   15.2603    4.1555 C   0  0  0  0  0  0  0  0  0  0  0  0
   -5.3975   15.6775    3.0653 N   0  0  0  0  0  0  0  0  0  0  0  0
   -1.2786   17.5644   -5.0283 S   0  0  0  0  0  0  0  0  0  0  0  0
    0.0659   16.7737   -5.8665 C   0  0  0  0  0  0  0  0  0  0  0  0
    0.9841   15.9568   -5.3385 N   0  0  0  0  0  0  0  0  0  0  0  0
    1.8542   15.5613   -6.3060 C   0  0  0  0  0  0  0  0  0  0  0  0
    1.4498   16.1537   -7.4401 N   0  0  0  0  0  0  0  0  0  0  0  0
    0.3598   16.8909   -7.1644 N   0  0  0  0  0  0  0  0  0  0  0  0
   -0.4515   17.8119   -8.3765 Cl  0  0  0  0  0  0  0  0  0  0  0  0
  1  2  1  0
  2  3  1  0
  3  4  2  0
  4  5  1  0
  5  6  2  0
  6  7  1  0
  7  8  2  0
  5  9  1  0
  9 10  1  0
 10 11  2  0
 10 12  1  0
 12 13  2  0
 13 14  1  0
 14 15  2  0
 15 16  1  0
 16 17  2  0
 17 18  1  0
 18 19  2  0
 19 20  1  0
 20 21  2  0
  2 22  1  0
 22 23  1  0
 23 24  2  0
 24 25  1  0
 25 26  2  0
 26 27  1  0
 27 28  1  0
  8  3  1  0
 21 12  1  0
 19 14  1  0
 27 23  1  0
M  END
$$$$
WY07
     RDKit          3D

 35 39  0  0  0  0  0  0  0  0999 V2000
   -7.3198   15.5202   -1.3551 C   0  0  0  0  0  0  0  0  0  0  0  0
   -5.8475   15.5764   -1.1705 C   0  0  0  0  0  0  0  0  0  0  0  0
   -5.3206   14.6457   -0.1191 C   0  0  0  0  0  0  0  0  0  0  0  0
   -3.8875   14.3625   -0.2177 C   0  0  0  0  0  0  0  0  0  0  0  0
   -3.0718   14.1293   -1.2366 N   0  0  0  0  0  0  0  0  0  0  0  0
   -1.8373   13.9207   -0.8451 N   0  0  0  0  0  0  0  0  0  0  0  0
   -1.8450   14.0208    0.4797 C   0  0  0  0  0  0  0  0  0  0  0  0
   -3.0970   14.2927    0.8887 N   0  0  0  0  0  0  0  0  0  0  0  0
   -3.5222   14.4787    2.2843 C   0  0  0  0  0  0  0  0  0  0  0  0
   -5.3472   16.9303   -0.8323 C   0  0  0  0  0  0  0  0  0  0  0  0
   -4.1347   17.4186   -1.2060 C   0  0  0  0  0  0  0  0  0  0  0  0
   -3.6859   18.6957   -0.8794 C   0  0  0  0  0  0  0  0  0  0  0  0
   -4.5312   19.4718   -0.1456 C   0  0  0  0  0  0  0  0  0  0  0  0
   -5.7986   18.9956    0.2595 C   0  0  0  0  0  0  0  0  0  0  0  0
   -6.1948   17.7252   -0.0893 C   0  0  0  0  0  0  0  0  0  0  0  0
   -2.4190   19.1059   -1.3051 N   0  0  0  0  0  0  0  0  0  0  0  0
   -1.5391   18.4905   -2.1971 C   0  0  0  0  0  0  0  0  0  0  0  0
   -1.8316   17.3639   -2.6520 O   0  0  0  0  0  0  0  0  0  0  0  0
   -0.2718   19.1190   -2.6276 C   0  0  0  0  0  0  0  0  0  0  0  0
   -0.0448   20.4171   -2.3844 N   0  0  0  0  0  0  0  0  0  0  0  0
    1.0817   21.0493   -2.7518 C   0  0  0  0  0  0  0  0  0  0  0  0
    2.0738   20.3277   -3.4215 C   0  0  0  0  0  0  0  0  0  0  0  0
    1.8769   18.9956   -3.6877 C   0  0  0  0  0  0  0  0  0  0  0  0
    0.7040   18.4147   -3.2845 C   0  0  0  0  0  0  0  0  0  0  0  0
    2.8900   18.2279   -4.3813 C   0  0  0  0  0  0  0  0  0  0  0  0
    2.7512   16.9608   -4.4221 O   0  0  0  0  0  0  0  0  0  0  0  0
    4.0086   18.8417   -5.0018 N   0  0  0  0  0  0  0  0  0  0  0  0
    5.0366   18.1494   -5.7809 C   0  0  0  0  0  0  0  0  0  0  0  0
    6.2691   19.0201   -5.6287 C   0  0  0  0  0  0  0  0  0  0  0  0
    5.7308   20.3844   -5.3975 C   0  0  0  0  0  0  0  0  0  0  0  0
    4.3174   20.2469   -4.9662 C   0  0  0  0  0  0  0  0  0  0  0  0
    5.9822   21.3884   -6.5034 C   0  0  0  0  0  0  0  0  0  0  0  0
    6.9419   21.9623   -5.6969 O   0  0  0  0  0  0  0  0  0  0  0  0
    6.5895   21.2878   -4.5326 C   0  0  0  0  0  0  0  0  0  0  0  0
    7.8701   20.3748   -3.7491 Cl  0  0  0  0  0  0  0  0  0  0  0  0
  1  2  1  0
  2  3  1  0
  3  4  1  0
  4  5  2  0
  5  6  1  0
  6  7  2  0
  7  8  1  0
  8  9  1  0
  2 10  1  0
 10 11  2  0
 11 12  1  0
 12 13  2  0
 13 14  1  0
 14 15  2  0
 12 16  1  0
 16 17  1  0
 17 18  2  0
 17 19  1  0
 19 20  2  0
 20 21  1  0
 21 22  2  0
 22 23  1  0
 23 24  2  0
 23 25  1  0
 25 26  2  0
 25 27  1  0
 27 28  1  0
 28 29  1  0
 29 30  1  0
 30 31  1  0
 30 32  1  0
 32 33  1  0
 33 34  1  0
 34 35  1  0
  8  4  1  0
 15 10  1  0
 24 19  1  0
 31 27  1  0
 34 30  1  0
M  END
$$$$
WY08
     RDKit          3D

 31 34  0  0  0  0  0  0  0  0999 V2000
   -1.3365   13.1432    1.1643 C   0  0  0  0  0  0  0  0  0  0  0  0
   -2.6754   13.0424    0.6395 N   0  0  0  0  0  0  0  0  0  0  0  0
   -3.6296   12.2114    1.0533 C   0  0  0  0  0  0  0  0  0  0  0  0
   -4.6933   12.4163    0.2759 N   0  0  0  0  0  0  0  0  0  0  0  0
   -4.4281   13.3479   -0.6053 N   0  0  0  0  0  0  0  0  0  0  0  0
   -3.1550   13.7540   -0.3862 C   0  0  0  0  0  0  0  0  0  0  0  0
   -2.3628   15.0037   -1.3114 S   0  0  0  0  0  0  0  0  0  0  0  0
   -3.1144   16.5673   -1.5266 C   0  0  0  0  0  0  0  0  0  0  0  0
   -2.3094   17.7023   -2.0514 C   0  0  0  0  0  0  0  0  0  0  0  0
   -2.9746   18.8975   -2.5252 C   0  0  0  0  0  0  0  0  0  0  0  0
   -3.3975   19.0039   -3.7784 C   0  0  0  0  0  0  0  0  0  0  0  0
   -4.0109   17.0090   -0.3889 C   0  0  0  0  0  0  0  0  0  0  0  0
   -4.5764   16.1050    0.4737 C   0  0  0  0  0  0  0  0  0  0  0  0
   -5.4063   16.4773    1.5443 C   0  0  0  0  0  0  0  0  0  0  0  0
   -5.6406   17.8018    1.7063 C   0  0  0  0  0  0  0  0  0  0  0  0
   -5.0712   18.7245    0.8359 C   0  0  0  0  0  0  0  0  0  0  0  0
   -4.2455   18.3345   -0.2273 C   0  0  0  0  0  0  0  0  0  0  0  0
   -5.9425   15.4425    2.3539 N   0  0  0  0  0  0  0  0  0  0  0  0
   -5.6337   14.0784    2.3158 C   0  0  0  0  0  0  0  0  0  0  0  0
   -5.2159   13.6383    1.1718 O   0  0  0  0  0  0  0  0  0  0  0  0
   -5.7324   13.1071    3.4042 C   0  0  0  0  0  0  0  0  0  0  0  0
   -5.9787   13.5677    4.6705 N   0  0  0  0  0  0  0  0  0  0  0  0
   -6.1214   12.7624    5.7273 C   0  0  0  0  0  0  0  0  0  0  0  0
   -6.3726   13.2818    7.0035 C   0  0  0  0  0  0  0  0  0  0  0  0
   -6.5243   12.4780    8.1104 C   0  0  0  0  0  0  0  0  0  0  0  0
   -6.4273   11.1137    7.9690 C   0  0  0  0  0  0  0  0  0  0  0  0
   -6.1807   10.5780    6.7246 C   0  0  0  0  0  0  0  0  0  0  0  0
   -6.0277   11.3931    5.6057 C   0  0  0  0  0  0  0  0  0  0  0  0
   -5.7834   10.8876    4.3600 C   0  0  0  0  0  0  0  0  0  0  0  0
   -5.6389   11.7665    3.2664 C   0  0  0  0  0  0  0  0  0  0  0  0
   -5.3845   11.0214    1.6792 Cl  0  0  0  0  0  0  0  0  0  0  0  0
  1  2  1  0
  2  3  1  0
  3  4  2  0
  4  5  1  0
  5  6  2  0
  6  7  1  0
  7  8  1  0
  8  9  1  0
  9 10  1  0
 10 11  2  0
  8 12  1  0
 12 13  2  0
 13 14  1  0
 14 15  2  0
 15 16  1  0
 16 17  2  0
 14 18  1  0
 18 19  1  0
 19 20  2  0
 19 21  1  0
 21 22  2  0
 22 23  1  0
 23 24  2  0
 24 25  1  0
 25 26  2  0
 26 27  1  0
 27 28  2  0
 28 29  1  0
 29 30  2  0
 30 31  1  0
  6  2  1  0
 17 12  1  0
 30 21  1  0
 28 23  1  0
M  END
$$$$
WY09
     RDKit          3D

 26 29  0  0  0  0  0  0  0  0999 V2000
   -6.2700   17.5782    1.4707 C   0  0  0  0  0  0  0  0  0  0  0  0
   -7.1246   16.5132    2.1071 C   0  0  0  0  0  0  0  0  0  0  0  0
   -8.0206   16.9637    3.1822 C   0  0  0  0  0  0  0  0  0  0  0  0
   -9.0980   16.1224    3.6253 C   0  0  0  0  0  0  0  0  0  0  0  0
   -9.7301   15.2905    2.7103 N   0  0  0  0  0  0  0  0  0  0  0  0
  -10.6710   14.6123    3.2677 N   0  0  0  0  0  0  0  0  0  0  0  0
  -10.6984   14.9603    4.5438 C   0  0  0  0  0  0  0  0  0  0  0  0
   -9.7262   15.8967    4.7737 N   0  0  0  0  0  0  0  0  0  0  0  0
   -9.5013   16.4920    6.0983 C   0  0  0  0  0  0  0  0  0  0  0  0
   -6.1878   15.4432    2.5666 C   0  0  0  0  0  0  0  0  0  0  0  0
   -5.4271   14.6943    1.6923 C   0  0  0  0  0  0  0  0  0  0  0  0
   -4.5693   13.7131    2.1269 C   0  0  0  0  0  0  0  0  0  0  0  0
   -4.4476   13.4472    3.5046 C   0  0  0  0  0  0  0  0  0  0  0  0
   -5.2099   14.1985    4.3709 C   0  0  0  0  0  0  0  0  0  0  0  0
   -6.0802   15.1957    3.9126 C   0  0  0  0  0  0  0  0  0  0  0  0
   -3.7812   12.9359    1.2353 N   0  0  0  0  0  0  0  0  0  0  0  0
   -3.4371   11.5491    1.4571 C   0  0  0  0  0  0  0  0  0  0  0  0
   -2.6168   11.1244    0.3046 C   0  0  0  0  0  0  0  0  0  0  0  0
   -2.4655   12.1754   -0.5666 C   0  0  0  0  0  0  0  0  0  0  0  0
   -3.1949   13.3238    0.0083 C   0  0  0  0  0  0  0  0  0  0  0  0
   -3.2678   14.4498   -0.5240 O   0  0  0  0  0  0  0  0  0  0  0  0
   -1.7414   12.0130   -1.7078 C   0  0  0  0  0  0  0  0  0  0  0  0
   -1.1538   10.8133   -2.0109 C   0  0  0  0  0  0  0  0  0  0  0  0
   -1.3011    9.7542   -1.1418 C   0  0  0  0  0  0  0  0  0  0  0  0
   -2.0277    9.9009    0.0128 C   0  0  0  0  0  0  0  0  0  0  0  0
   -2.2514    8.2724    1.3446 I   0  0  0  0  0  0  0  0  0  0  0  0
  1  2  1  0
  2  3  1  0
  3  4  1  0
  4  5  2  0
  5  6  1  0
  6  7  2  0
  7  8  1  0
  8  9  1  0
  2 10  1  0
 10 11  2  0
 11 12  1  0
 12 13  2  0
 13 14  1  0
 14 15  2  0
 12 16  1  0
 16 17  1  0
 17 18  1  0
 18 19  2  0
 19 20  1  0
 20 21  2  0
 19 22  1  0
 22 23  2  0
 23 24  1  0
 24 25  2  0
 25 26  1  0
  8  4  1  0
 15 10  1  0
 20 16  1  0
 25 18  1  0
M  END
$$$$
WY10
     RDKit          3D

 30 33  0  0  0  0  0  0  0  0999 V2000
   -5.6732   15.0683    3.0755 C   0  0  0  0  0  0  0  0  0  0  0  0
   -5.0104   13.7242    2.8752 C   0  0  0  0  0  0  0  0  0  0  0  0
   -4.2453   13.7609    1.6049 C   0  0  0  0  0  0  0  0  0  0  0  0
   -3.9469   12.6439    0.8680 C   0  0  0  0  0  0  0  0  0  0  0  0
   -3.2346   12.7310   -0.3142 C   0  0  0  0  0  0  0  0  0  0  0  0
   -2.8052   13.9731   -0.7777 C   0  0  0  0  0  0  0  0  0  0  0  0
   -3.0976   15.1003   -0.0494 C   0  0  0  0  0  0  0  0  0  0  0  0
   -3.8095   14.9786    1.1246 C   0  0  0  0  0  0  0  0  0  0  0  0
   -2.6393   16.4155   -0.5364 C   0  0  0  0  0  0  0  0  0  0  0  0
   -1.9003   16.6481   -1.6712 C   0  0  0  0  0  0  0  0  0  0  0  0
   -1.6787   18.0082   -1.7714 C   0  0  0  0  0  0  0  0  0  0  0  0
   -2.2910   18.5296   -0.6985 N   0  0  0  0  0  0  0  0  0  0  0  0
   -2.8471   17.5853    0.0123 O   0  0  0  0  0  0  0  0  0  0  0  0
   -0.9290   18.6941   -2.8370 C   0  0  0  0  0  0  0  0  0  0  0  0
   -0.4219   17.9416   -3.8742 C   0  0  0  0  0  0  0  0  0  0  0  0
    0.2991   18.5243   -4.9174 C   0  0  0  0  0  0  0  0  0  0  0  0
    0.5164   19.8736   -4.9252 C   0  0  0  0  0  0  0  0  0  0  0  0
   -0.0110   20.6019   -3.8609 C   0  0  0  0  0  0  0  0  0  0  0  0
   -0.7190   20.0349   -2.8354 C   0  0  0  0  0  0  0  0  0  0  0  0
    1.2531   20.5535   -5.9652 C   0  0  0  0  0  0  0  0  0  0  0  0
    1.5768   19.9383   -7.0175 O   0  0  0  0  0  0  0  0  0  0  0  0
    1.6425   21.9114   -5.8657 N   0  0  0  0  0  0  0  0  0  0  0  0
    2.3518   22.5614   -6.9531 C   0  0  0  0  0  0  0  0  0  0  0  0
   -3.9755   13.2568    4.2896 S   0  0  0  0  0  0  0  0  0  0  0  0
   -5.0373   12.4888    5.5051 C   0  0  0  0  0  0  0  0  0  0  0  0
   -6.3619   12.5444    5.6196 N   0  0  0  0  0  0  0  0  0  0  0  0
   -6.7445   11.8253    6.6529 N   0  0  0  0  0  0  0  0  0  0  0  0
   -5.6462   11.3048    7.2036 C   0  0  0  0  0  0  0  0  0  0  0  0
   -4.5809   11.7112    6.4976 N   0  0  0  0  0  0  0  0  0  0  0  0
   -3.2355   11.3891    6.7354 N   0  0  0  0  0  0  0  0  0  0  0  0
  1  2  1  0
  2  3  1  0
  3  4  2  0
  4  5  1  0
  5  6  2  0
  6  7  1  0
  7  8  2  0
  7  9  1  0
  9 10  2  0
 10 11  1  0
 11 12  2  0
 12 13  1  0
 11 14  1  0
 14 15  2  0
 15 16  1  0
 16 17  2  0
 17 18  1  0
 18 19  2  0
 17 20  1  0
 20 21  2  0
 20 22  1  0
 22 23  1  0
  2 24  1  0
 24 25  1  0
 25 26  2  0
 26 27  1  0
 27 28  2  0
 28 29  1  0
 29 30  1  0
  8  3  1  0
 13  9  1  0
 19 14  1  0
 29 25  1  0
M  END
$$$$
PC01
     RDKit          3D

 30 34  0  0  0  0  0  0  0  0999 V2000
   -4.0608   11.7436    9.1232 F   0  0  0  0  0  0  0  0  0  0  0  0
   -4.5017   11.6088    7.8433 C   0  0  0  0  0  0  0  0  0  0  0  0
   -4.6652   10.3258    7.3658 C   0  0  0  0  0  0  0  0  0  0  0  0
   -5.1162   10.1858    6.0563 C   0  0  0  0  0  0  0  0  0  0  0  0
   -5.3917   11.2710    5.2592 C   0  0  0  0  0  0  0  0  0  0  0  0
   -5.8424   11.1316    3.9505 C   0  0  0  0  0  0  0  0  0  0  0  0
   -6.1078   12.2471    3.1824 C   0  0  0  0  0  0  0  0  0  0  0  0
   -5.9360   13.5209    3.6843 C   0  0  0  0  0  0  0  0  0  0  0  0
   -6.2244   14.7224    2.8501 C   0  0  0  0  0  0  0  0  0  0  0  0
   -5.0526   15.4726    2.7320 O   0  0  0  0  0  0  0  0  0  0  0  0
   -4.6117   16.0779    1.5814 C   0  0  0  0  0  0  0  0  0  0  0  0
   -4.7840   17.4338    1.4067 C   0  0  0  0  0  0  0  0  0  0  0  0
   -4.3495   18.0636    0.2598 C   0  0  0  0  0  0  0  0  0  0  0  0
   -3.7346   17.3506   -0.7343 C   0  0  0  0  0  0  0  0  0  0  0  0
   -3.2937   17.9815   -1.8952 C   0  0  0  0  0  0  0  0  0  0  0  0
   -2.6823   17.2444   -2.8726 C   0  0  0  0  0  0  0  0  0  0  0  0
   -2.2159   17.9266   -4.1065 C   0  0  0  0  0  0  0  0  0  0  0  0
   -0.8211   18.4747   -3.9559 C   0  0  0  0  0  0  0  0  0  0  0  0
    0.1074   17.2939   -3.9953 C   0  0  0  0  0  0  0  0  0  0  0  0
    0.7092   16.6956   -2.9501 N   0  0  0  0  0  0  0  0  0  0  0  0
    1.4451   15.6980   -3.3766 N   0  0  0  0  0  0  0  0  0  0  0  0
    1.3391   15.6268   -4.6929 N   0  0  0  0  0  0  0  0  0  0  0  0
    0.5196   16.6033   -5.0793 N   0  0  0  0  0  0  0  0  0  0  0  0
   -2.4935   15.9006   -2.7368 C   0  0  0  0  0  0  0  0  0  0  0  0
   -2.9259   15.2682   -1.5931 C   0  0  0  0  0  0  0  0  0  0  0  0
   -3.5494   15.9750   -0.5786 C   0  0  0  0  0  0  0  0  0  0  0  0
   -3.9919   15.3746    0.5734 C   0  0  0  0  0  0  0  0  0  0  0  0
   -5.4979   13.6229    4.9564 N   0  0  0  0  0  0  0  0  0  0  0  0
   -5.2300   12.5565    5.7316 C   0  0  0  0  0  0  0  0  0  0  0  0
   -4.7795   12.6947    7.0397 C   0  0  0  0  0  0  0  0  0  0  0  0
  1  2  1  0
  2  3  2  0
  3  4  1  0
  4  5  2  0
  5  6  1  0
  6  7  2  0
  7  8  1  0
  8  9  1  0
  9 10  1  0
 10 11  1  0
 11 12  2  0
 12 13  1  0
 13 14  2  0
 14 15  1  0
 15 16  2  0
 16 17  1  0
 17 18  1  0
 18 19  1  0
 19 20  1  0
 20 21  2  0
 21 22  1  0
 22 23  1  0
 16 24  1  0
 24 25  2  0
 25 26  1  0
 26 27  2  0
  8 28  2  0
 28 29  1  0
 29 30  2  0
 30  2  1  0
 29  5  1  0
 27 11  1  0
 26 14  1  0
 23 19  2  0
M  END
$$$$
PC02
     RDKit          3D

 24 26  0  0  0  0  0  0  0  0999 V2000
   -3.5024   10.8881    7.3357 C   0  0  0  0  0  0  0  0  0  0  0  0
   -3.4869   11.6260    6.0279 C   0  0  0  0  0  0  0  0  0  0  0  0
   -3.7382   12.9690    5.9452 C   0  0  0  0  0  0  0  0  0  0  0  0
   -3.7328   13.6643    4.7636 C   0  0  0  0  0  0  0  0  0  0  0  0
   -3.4567   12.9720    3.5798 C   0  0  0  0  0  0  0  0  0  0  0  0
   -3.4450   13.6182    2.4050 N   0  0  0  0  0  0  0  0  0  0  0  0
   -3.1931   13.0289    1.2283 C   0  0  0  0  0  0  0  0  0  0  0  0
   -3.1967   13.7264   -0.0475 C   0  0  0  0  0  0  0  0  0  0  0  0
   -2.4304   13.2535   -0.9443 O   0  0  0  0  0  0  0  0  0  0  0  0
   -3.9722   14.8671   -0.3610 N   0  0  0  0  0  0  0  0  0  0  0  0
   -4.7503   15.5958    0.6143 C   0  0  0  0  0  0  0  0  0  0  0  0
   -4.6252   17.0697    0.5671 C   0  0  0  0  0  0  0  0  0  0  0  0
   -4.4495   17.6567   -0.7981 C   0  0  0  0  0  0  0  0  0  0  0  0
   -5.6872   17.8780   -1.4067 O   0  0  0  0  0  0  0  0  0  0  0  0
   -3.7577   18.9903   -0.6548 C   0  0  0  0  0  0  0  0  0  0  0  0
   -3.6667   19.6652   -1.8578 F   0  0  0  0  0  0  0  0  0  0  0  0
   -4.3543   19.7940    0.2963 F   0  0  0  0  0  0  0  0  0  0  0  0
   -2.4351   18.8244   -0.2223 F   0  0  0  0  0  0  0  0  0  0  0  0
   -3.6386   16.8003   -1.7262 C   0  0  0  0  0  0  0  0  0  0  0  0
   -4.0314   15.3684   -1.7273 C   0  0  0  0  0  0  0  0  0  0  0  0
   -2.9300   11.6502    1.2840 C   0  0  0  0  0  0  0  0  0  0  0  0
   -2.9333   10.9554    2.4674 C   0  0  0  0  0  0  0  0  0  0  0  0
   -3.2009   11.6222    3.6397 C   0  0  0  0  0  0  0  0  0  0  0  0
   -3.2178   10.9653    4.8525 C   0  0  0  0  0  0  0  0  0  0  0  0
  1  2  1  0
  2  3  2  0
  3  4  1  0
  4  5  2  0
  5  6  1  0
  6  7  2  0
  7  8  1  0
  8  9  2  0
  8 10  1  0
 10 11  1  0
 11 12  1  0
 12 13  1  0
 13 14  1  0
 13 15  1  0
 15 16  1  0
 15 17  1  0
 15 18  1  0
 13 19  1  0
 19 20  1  0
  7 21  1  0
 21 22  2  0
 22 23  1  0
 23 24  2  0
 24  2  1  0
 23  5  1  0
 20 10  1  0
M  END
$$$$
PC03
     RDKit          3D

 28 31  0  0  0  0  0  0  0  0999 V2000
   -3.5699   18.7567   -4.5534 C   0  0  0  0  0  0  0  0  0  0  0  0
   -3.1180   17.9838   -3.3477 C   0  0  0  0  0  0  0  0  0  0  0  0
   -2.7423   18.6492   -2.2057 C   0  0  0  0  0  0  0  0  0  0  0  0
   -2.3153   17.9469   -1.0999 C   0  0  0  0  0  0  0  0  0  0  0  0
   -2.2691   16.5501   -1.1586 C   0  0  0  0  0  0  0  0  0  0  0  0
   -1.8224   15.7651    0.0024 C   0  0  0  0  0  0  0  0  0  0  0  0
   -2.6404   15.8696   -2.2907 C   0  0  0  0  0  0  0  0  0  0  0  0
   -2.5165   14.1212   -2.3223 S   0  0  0  0  0  6  0  0  0  0  0  0
   -2.7247   13.6004   -3.7260 O   0  0  0  0  0  0  0  0  0  0  0  0
   -1.0589   13.7995   -2.0093 O   0  0  0  0  0  0  0  0  0  0  0  0
   -3.4933   13.3433   -1.2235 N   0  0  0  0  0  0  0  0  0  0  0  0
   -4.8778   13.2541   -1.4219 C   0  0  0  0  0  0  0  0  0  0  0  0
   -5.6772   13.9106   -0.2977 C   0  0  0  0  0  0  0  0  0  0  0  0
   -5.1470   13.4492    0.9478 N   0  0  0  0  0  0  0  0  0  0  0  0
   -5.8655   13.7847    2.1512 C   0  0  0  0  0  0  0  0  0  0  0  0
   -6.8592   14.5409    2.1126 O   0  0  0  0  0  0  0  0  0  0  0  0
   -5.4299   13.2407    3.3959 C   0  0  0  0  0  0  0  0  0  0  0  0
   -5.7069   13.4433    4.7009 C   0  0  0  0  0  0  0  0  0  0  0  0
   -5.0721   12.7254    5.6464 C   0  0  0  0  0  0  0  0  0  0  0  0
   -5.0642   12.6268    7.0624 C   0  0  0  0  0  0  0  0  0  0  0  0
   -5.8588   13.3905    8.0575 C   0  0  0  0  0  0  0  0  0  0  0  0
   -4.1545   11.6648    7.3738 N   0  0  0  0  0  0  0  0  0  0  0  0
   -3.6139   11.1725    6.2977 O   0  0  0  0  0  0  0  0  0  0  0  0
   -4.1563   11.7998    5.2721 C   0  0  0  0  0  0  0  0  0  0  0  0
   -4.1876   11.9483    3.4764 S   0  0  0  0  0  0  0  0  0  0  0  0
   -3.9534   12.6824    1.0877 C   0  0  0  0  0  0  0  0  0  0  0  0
   -2.9620   12.8040   -0.0415 C   0  0  0  0  0  0  0  0  0  0  0  0
   -3.0617   16.6048   -3.3735 C   0  0  0  0  0  0  0  0  0  0  0  0
  1  2  1  0
  2  3  2  0
  3  4  1  0
  4  5  2  0
  5  6  1  0
  5  7  1  0
  7  8  1  0
  8  9  2  0
  8 10  2  0
  8 11  1  0
 11 12  1  0
 12 13  1  0
 13 14  1  0
 14 15  1  0
 15 16  2  0
 15 17  1  0
 17 18  2  0
 18 19  1  0
 19 20  1  0
 20 21  1  0
 20 22  2  0
 22 23  1  0
 23 24  1  0
 24 25  1  0
 14 26  1  0
 26 27  1  0
  7 28  2  0
 28  2  1  0
 27 11  1  0
 25 17  1  0
 24 19  2  0
M  END
$$$$
PC04
     RDKit          3D

 22 26  0  0  0  0  0  0  0  0999 V2000
   -1.4529   12.7234    1.2718 O   0  0  0  0  0  0  0  0  0  0  0  0
   -2.5148   13.0827    1.8779 C   0  0  0  0  0  0  0  0  0  0  0  0
   -2.9065   12.4772    2.9743 O   0  0  0  0  0  0  0  0  0  0  0  0
   -4.0004   12.8482    3.5976 C   0  0  0  0  0  0  0  0  0  0  0  0
   -4.7918   13.8797    3.1462 C   0  0  0  0  0  0  0  0  0  0  0  0
   -4.4002   14.5312    1.9958 C   0  0  0  0  0  0  0  0  0  0  0  0
   -4.9060   15.5502    1.2818 N   0  0  0  0  0  0  0  0  0  0  0  0
   -4.1314   15.8127    0.2194 C   0  0  0  0  0  0  0  0  0  0  0  0
   -4.2325   16.7473   -0.7876 C   0  0  0  0  0  0  0  0  0  0  0  0
   -3.2613   16.7985   -1.7910 C   0  0  0  0  0  0  0  0  0  0  0  0
   -2.1941   15.8929   -1.7564 C   0  0  0  0  0  0  0  0  0  0  0  0
   -2.0926   14.9605   -0.7523 C   0  0  0  0  0  0  0  0  0  0  0  0
   -3.0596   14.9310    0.2213 C   0  0  0  0  0  0  0  0  0  0  0  0
   -3.2513   14.1313    1.3530 C   0  0  0  0  0  0  0  0  0  0  0  0
   -6.0188   14.3357    3.7975 C   0  0  0  0  0  0  0  0  0  0  0  0
   -6.4021   13.6133    5.0273 C   0  0  0  0  0  0  0  0  0  0  0  0
   -5.5153   12.5179    5.4595 C   0  0  0  0  0  0  0  0  0  0  0  0
   -5.8920   11.8405    6.6254 C   0  0  0  0  0  0  0  0  0  0  0  0
   -5.0983   10.8184    7.0625 C   0  0  0  0  0  0  0  0  0  0  0  0
   -3.9484   10.4037    6.4361 C   0  0  0  0  0  0  0  0  0  0  0  0
   -3.5767   11.0721    5.2856 C   0  0  0  0  0  0  0  0  0  0  0  0
   -4.3688   12.1196    4.8170 C   0  0  0  0  0  0  0  0  0  0  0  0
  1  2  2  0
  2  3  1  0
  3  4  1  0
  4  5  2  0
  5  6  1  0
  6  7  1  0
  7  8  1  0
  8  9  2  0
  9 10  1  0
 10 11  2  0
 11 12  1  0
 12 13  2  0
 13 14  1  0
  5 15  1  0
 15 16  1  0
 16 17  1  0
 17 18  2  0
 18 19  1  0
 19 20  2  0
 20 21  1  0
 21 22  2  0
 14  2  1  0
 22 17  1  0
 22  4  1  0
 14  6  2  0
 13  8  1  0
M  END
$$$$
PC05
     RDKit          3D

 29 32  0  0  0  0  0  0  0  0999 V2000
   -2.4061   13.7174    4.4016 N   0  0  0  0  0  0  0  0  0  0  0  0
   -3.5872   13.2629    4.6557 C   0  0  0  0  0  0  0  0  0  0  0  0
   -3.9676   12.8165    5.8591 N   0  0  0  0  0  0  0  0  0  0  0  0
   -5.1983   12.3475    6.1058 C   0  0  0  0  0  0  0  0  0  0  0  0
   -6.0936   12.3216    5.1063 N   0  0  0  0  0  0  0  0  0  0  0  0
   -5.7982   12.7430    3.8924 C   0  0  0  0  0  0  0  0  0  0  0  0
   -4.5175   13.2301    3.6391 C   0  0  0  0  0  0  0  0  0  0  0  0
   -4.0204   13.7339    2.3652 C   0  0  0  0  0  0  0  0  0  0  0  0
   -2.8249   14.0553    2.3281 O   0  0  0  0  0  0  0  0  0  0  0  0
   -4.7246   13.9098    1.1451 N   0  0  0  0  0  0  0  0  0  0  0  0
   -4.0786   14.7918    0.2407 C   0  0  0  0  0  0  0  0  0  0  0  0
   -3.8531   16.1031    0.6043 C   0  0  0  0  0  0  0  0  0  0  0  0
   -3.2186   16.9990   -0.2646 C   0  0  0  0  0  0  0  0  0  0  0  0
   -2.8064   16.5795   -1.5075 C   0  0  0  0  0  0  0  0  0  0  0  0
   -2.1456   17.5289   -2.4007 C   0  0  0  0  0  0  0  0  0  0  0  0
   -2.1352   17.0906   -3.8485 C   0  0  0  0  0  0  0  0  0  0  0  0
   -1.7299   18.2787   -4.7087 C   0  0  0  0  0  0  0  0  0  0  0  0
   -0.8731   19.2576   -3.9059 C   0  0  0  0  0  0  0  0  0  0  0  0
   -0.0883   20.0872   -4.8689 C   0  0  0  0  0  0  0  0  0  0  0  0
   -0.0756   19.5356   -6.2471 C   0  0  0  0  0  0  0  0  0  0  0  0
    0.6026   18.3280   -6.5617 N   0  0  0  0  0  0  0  0  0  0  0  0
   -0.6644   20.1122   -7.2022 O   0  0  0  0  0  0  0  0  0  0  0  0
    0.0840   18.3547   -3.1173 C   0  0  0  0  0  0  0  0  0  0  0  0
   -0.6676   17.6740   -2.0087 C   0  0  0  0  0  0  0  0  0  0  0  0
   -3.0379   15.2720   -1.8545 C   0  0  0  0  0  0  0  0  0  0  0  0
   -3.6661   14.3774   -0.9993 C   0  0  0  0  0  0  0  0  0  0  0  0
   -5.9813   13.2985    0.7640 C   0  0  0  0  0  0  0  0  0  0  0  0
   -7.0399   13.4772    1.8248 C   0  0  0  0  0  0  0  0  0  0  0  0
   -6.8449   12.6505    2.9562 O   0  0  0  0  0  0  0  0  0  0  0  0
  1  2  2  0
  2  3  1  0
  3  4  2  0
  4  5  1  0
  5  6  1  0
  6  7  2  0
  7  8  1  0
  8  9  2  0
  8 10  1  0
 10 11  1  0
 11 12  2  0
 12 13  1  0
 13 14  2  0
 14 15  1  0
 15 16  1  0
 16 17  1  0
 17 18  1  0
 18 19  1  0
 19 20  1  0
 20 21  1  0
 20 22  2  0
 18 23  1  0
 23 24  1  0
 14 25  1  0
 25 26  2  0
 10 27  1  0
 27 28  1  0
 28 29  1  0
  7  2  1  0
 26 11  1  0
 29  6  1  0
 24 15  1  0
M  END
$$$$
PC06
     RDKit          3D

 31 33  0  0  0  0  0  0  0  0999 V2000
   -4.8425   14.1511   -0.7768 O   0  0  0  0  0  0  0  0  0  0  0  0
   -4.1177   14.8983   -0.0801 C   0  0  0  0  0  0  0  0  0  0  0  0
   -2.6536   15.0742   -0.4386 C   0  0  0  0  0  0  0  0  0  0  0  0
   -2.1798   13.9486   -1.2445 C   0  0  0  0  0  0  0  0  0  0  0  0
   -2.2688   13.9907   -2.6154 C   0  0  0  0  0  0  0  0  0  0  0  0
   -1.8245   12.9266   -3.4065 C   0  0  0  0  0  0  0  0  0  0  0  0
   -1.2904   11.8277   -2.7458 C   0  0  0  0  0  0  0  0  0  0  0  0
   -1.1999   11.7815   -1.3830 C   0  0  0  0  0  0  0  0  0  0  0  0
   -1.6457   12.8456   -0.6242 C   0  0  0  0  0  0  0  0  0  0  0  0
   -1.5555   12.7972    0.7222 F   0  0  0  0  0  0  0  0  0  0  0  0
   -4.6523   15.5653    1.0187 N   0  0  0  0  0  0  0  0  0  0  0  0
   -5.9961   15.5095    1.5460 C   0  0  0  0  0  0  0  0  0  0  0  0
   -6.0217   15.7850    2.9803 C   0  0  0  0  0  0  0  0  0  0  0  0
   -6.2623   14.7581    3.9514 C   0  0  0  0  0  0  0  0  0  0  0  0
   -5.2431   14.0602    4.5738 C   0  0  0  0  0  0  0  0  0  0  0  0
   -5.5459   13.1068    5.5124 C   0  0  0  0  0  0  0  0  0  0  0  0
   -6.8425   12.7965    5.8803 C   0  0  0  0  0  0  0  0  0  0  0  0
   -7.1087   11.7692    6.8912 C   0  0  0  0  0  0  0  0  0  0  0  0
   -7.9029   10.6927    6.5802 C   0  0  0  0  0  0  0  0  0  0  0  0
   -8.1694    9.7010    7.5313 C   0  0  0  0  0  0  0  0  0  0  0  0
   -8.9451    8.6463    7.2313 F   0  0  0  0  0  0  0  0  0  0  0  0
   -7.6387    9.7894    8.7954 C   0  0  0  0  0  0  0  0  0  0  0  0
   -6.8411   10.8657    9.1154 C   0  0  0  0  0  0  0  0  0  0  0  0
   -6.3093   10.9613   10.3721 F   0  0  0  0  0  0  0  0  0  0  0  0
   -6.5789   11.8533    8.1595 C   0  0  0  0  0  0  0  0  0  0  0  0
   -5.8026   12.9048    8.4617 F   0  0  0  0  0  0  0  0  0  0  0  0
   -7.8517   13.4928    5.2587 C   0  0  0  0  0  0  0  0  0  0  0  0
   -7.5671   14.4549    4.3127 C   0  0  0  0  0  0  0  0  0  0  0  0
   -7.0057   16.3208    0.8253 C   0  0  0  0  0  0  0  0  0  0  0  0
   -6.8493   17.5010    0.4436 O   0  0  0  0  0  0  0  0  0  0  0  0
   -8.2282   15.6759    0.5647 O   0  0  0  0  0  0  0  0  0  0  0  0
  1  2  2  0
  2  3  1  0
  3  4  1  0
  4  5  2  0
  5  6  1  0
  6  7  2  0
  7  8  1  0
  8  9  2  0
  9 10  1  0
  2 11  1  0
 11 12  1  0
 12 13  1  0
 13 14  1  0
 14 15  2  0
 15 16  1  0
 16 17  2  0
 17 18  1  0
 18 19  2  0
 19 20  1  0
 20 21  1  0
 20 22  2  0
 22 23  1  0
 23 24  1  0
 23 25  2  0
 25 26  1  0
 17 27  1  0
 27 28  2  0
 12 29  1  0
 29 30  2  0
 29 31  1  0
  9  4  1  0
 28 14  1  0
 25 18  1  0
M  END
$$$$
PC07
     RDKit          3D

 35 40  0  0  0  0  0  0  0  0999 V2000
   -5.0175   14.5097   -0.8916 O   0  0  0  0  0  0  0  0  0  0  0  0
   -4.1755   13.7145   -0.3500 C   0  0  0  0  0  0  0  0  0  0  0  0
   -4.2135   13.6445    1.1209 C   0  0  0  0  0  0  0  0  0  0  0  0
   -3.4751   12.7805    1.8989 C   0  0  0  0  0  0  0  0  0  0  0  0
   -3.8057   12.9758    3.2159 C   0  0  0  0  0  0  0  0  0  0  0  0
   -3.3998   12.4198    4.4053 C   0  0  0  0  0  0  0  0  0  0  0  0
   -2.5356   11.5168    4.3785 O   0  0  0  0  0  0  0  0  0  0  0  0
   -3.9481   12.8702    5.5383 N   0  0  0  0  0  0  0  0  0  0  0  0
   -4.8642   13.8277    5.5604 N   0  0  0  0  0  0  0  0  0  0  0  0
   -5.3090   14.4169    4.4360 C   0  0  0  0  0  0  0  0  0  0  0  0
   -6.3076   15.4693    4.4566 C   0  0  0  0  0  0  0  0  0  0  0  0
   -7.0605   15.7002    3.2998 C   0  0  0  0  0  0  0  0  0  0  0  0
   -8.0219   16.6857    3.2291 C   0  0  0  0  0  0  0  0  0  0  0  0
   -8.2788   17.4889    4.3100 C   0  0  0  0  0  0  0  0  0  0  0  0
   -9.2283   18.4510    4.2179 F   0  0  0  0  0  0  0  0  0  0  0  0
   -7.5476   17.2785    5.4613 C   0  0  0  0  0  0  0  0  0  0  0  0
   -6.5759   16.2835    5.5342 C   0  0  0  0  0  0  0  0  0  0  0  0
   -4.7696   13.9830    3.2437 C   0  0  0  0  0  0  0  0  0  0  0  0
   -4.9824   14.3527    1.9720 N   0  0  0  0  0  0  0  0  0  0  0  0
   -3.2270   12.9227   -1.1067 C   0  0  0  0  0  0  0  0  0  0  0  0
   -2.4963   13.2765   -2.2048 C   0  0  0  0  0  0  0  0  0  0  0  0
   -2.3670   14.5632   -2.8578 C   0  0  0  0  0  0  0  0  0  0  0  0
   -2.4207   14.6330   -4.2579 C   0  0  0  0  0  0  0  0  0  0  0  0
   -2.2528   15.7834   -4.9661 C   0  0  0  0  0  0  0  0  0  0  0  0
   -2.0178   16.9473   -4.2991 C   0  0  0  0  0  0  0  0  0  0  0  0
   -1.9538   16.9415   -2.9328 C   0  0  0  0  0  0  0  0  0  0  0  0
   -2.1279   15.7501   -2.2225 C   0  0  0  0  0  0  0  0  0  0  0  0
   -1.8806   12.1405   -2.6238 N   0  0  0  0  0  0  0  0  0  0  0  0
   -2.1901   11.0992   -1.8393 C   0  0  0  0  0  0  0  0  0  0  0  0
   -1.8289    9.7554   -1.8600 C   0  0  0  0  0  0  0  0  0  0  0  0
   -2.3298    8.9018   -0.9073 C   0  0  0  0  0  0  0  0  0  0  0  0
   -3.1888    9.3398    0.0791 C   0  0  0  0  0  0  0  0  0  0  0  0
   -3.8669    8.1175    1.3896 Br  0  0  0  0  0  0  0  0  0  0  0  0
   -3.5461   10.6750    0.0983 C   0  0  0  0  0  0  0  0  0  0  0  0
   -3.0502   11.5410   -0.8492 C   0  0  0  0  0  0  0  0  0  0  0  0
  1  2  2  0
  2  3  1  0
  3  4  2  0
  4  5  1  0
  5  6  1  0
  6  7  2  0
  6  8  1  0
  8  9  1  0
  9 10  2  0
 10 11  1  0
 11 12  2  0
 12 13  1  0
 13 14  2  0
 14 15  1  0
 14 16  1  0
 16 17  2  0
 10 18  1  0
 18 19  1  0
  2 20  1  0
 20 21  2  0
 21 22  1  0
 22 23  2  0
 23 24  1  0
 24 25  2  0
 25 26  1  0
 26 27  2  0
 21 28  1  0
 28 29  1  0
 29 30  2  0
 30 31  1  0
 31 32  2  0
 32 33  1  0
 32 34  1  0
 34 35  2  0
 19  3  1  0
 35 20  1  0
 18  5  2  0
 27 22  1  0
 35 29  1  0
 17 11  1  0
M  END
$$$$
PC08
     RDKit          3D

 29 32  0  0  0  0  0  0  0  0999 V2000
   -5.0629   17.6397    1.2438 O   0  0  0  0  0  0  0  0  0  0  0  0
   -4.3560   17.1847    0.2804 C   0  0  0  0  0  0  0  0  0  0  0  0
   -4.0349   15.8096    0.2717 N   0  0  0  0  0  0  0  0  0  0  0  0
   -4.3443   14.9370    1.3974 C   0  0  0  0  0  0  0  0  0  0  0  0
   -3.3688   15.2069    2.5069 C   0  0  0  0  0  0  0  0  0  0  0  0
   -4.1217   15.1734    3.8379 C   0  0  0  0  0  0  0  0  0  0  0  0
   -4.5813   13.8853    4.1180 O   0  0  0  0  0  0  0  0  0  0  0  0
   -4.0255   12.7160    3.6268 C   0  0  0  0  0  0  0  0  0  0  0  0
   -4.5247   11.4594    3.8943 C   0  0  0  0  0  0  0  0  0  0  0  0
   -3.9192   10.3188    3.3691 C   0  0  0  0  0  0  0  0  0  0  0  0
   -2.8050   10.4378    2.5697 C   0  0  0  0  0  0  0  0  0  0  0  0
   -2.3283   11.7037    2.3192 C   0  0  0  0  0  0  0  0  0  0  0  0
   -2.9070   12.8444    2.8249 C   0  0  0  0  0  0  0  0  0  0  0  0
   -2.4390   14.1118    2.5809 O   0  0  0  0  0  0  0  0  0  0  0  0
   -3.9096   18.1115   -0.7740 C   0  0  0  0  0  0  0  0  0  0  0  0
   -4.4295   19.3578   -0.9695 C   0  0  0  0  0  0  0  0  0  0  0  0
   -3.9603   20.1654   -1.9755 C   0  0  0  0  0  0  0  0  0  0  0  0
   -2.9579   19.7095   -2.7902 C   0  0  0  0  0  0  0  0  0  0  0  0
   -2.3966   18.4686   -2.6432 C   0  0  0  0  0  0  0  0  0  0  0  0
   -1.1037   17.8830   -3.6956 S   0  0  0  0  0  6  0  0  0  0  0  0
   -0.6924   16.5505   -3.1926 O   0  0  0  0  0  0  0  0  0  0  0  0
   -1.6584   17.8600   -5.0807 O   0  0  0  0  0  0  0  0  0  0  0  0
    0.1782   19.0306   -3.5830 N   0  0  0  0  0  0  0  0  0  0  0  0
    0.4112   19.4708   -2.2421 C   0  0  0  0  0  0  0  0  0  0  0  0
    1.3012   20.7049   -2.3153 C   0  0  0  0  0  0  0  0  0  0  0  0
    1.8287   20.8602   -3.6036 O   0  0  0  0  0  0  0  0  0  0  0  0
    2.4148   19.6836   -4.0692 C   0  0  0  0  0  0  0  0  0  0  0  0
    1.4113   18.5446   -4.1353 C   0  0  0  0  0  0  0  0  0  0  0  0
   -2.8866   17.6828   -1.6277 C   0  0  0  0  0  0  0  0  0  0  0  0
  1  2  2  0
  2  3  1  0
  3  4  1  0
  4  5  1  0
  5  6  1  0
  6  7  1  0
  7  8  1  0
  8  9  2  0
  9 10  1  0
 10 11  2  0
 11 12  1  0
 12 13  2  0
 13 14  1  0
  2 15  1  0
 15 16  2  0
 16 17  1  0
 17 18  2  0
 18 19  1  0
 19 20  1  0
 20 21  2  0
 20 22  2  0
 20 23  1  0
 23 24  1  0
 24 25  1  0
 25 26  1  0
 26 27  1  0
 27 28  1  0
 19 29  2  0
 14  5  1  0
 29 15  1  0
 13  8  1  0
 28 23  1  0
M  END
$$$$
PC09
     RDKit          3D

 25 28  0  0  0  0  0  0  0  0999 V2000
   -7.1373   11.1607   10.9425 C   0  0  0  0  0  0  0  0  0  0  0  0
   -6.5267   11.2777    9.5858 C   0  0  0  0  0  0  0  0  0  0  0  0
   -6.6880   12.3073    8.6758 C   0  0  0  0  0  0  0  0  0  0  0  0
   -5.9322   11.9816    7.5590 C   0  0  0  0  0  0  0  0  0  0  0  0
   -5.8150   12.7016    6.5102 N   0  0  0  0  0  0  0  0  0  0  0  0
   -5.1469   12.3212    5.3349 C   0  0  0  0  0  0  0  0  0  0  0  0
   -4.6563   11.1267    5.2681 O   0  0  0  0  0  0  0  0  0  0  0  0
   -4.9301   13.1225    4.1495 C   0  0  0  0  0  0  0  0  0  0  0  0
   -5.3754   14.4473    4.1280 C   0  0  0  0  0  0  0  0  0  0  0  0
   -5.2133   15.2212    3.0000 C   0  0  0  0  0  0  0  0  0  0  0  0
   -4.6167   14.7441    1.8501 C   0  0  0  0  0  0  0  0  0  0  0  0
   -4.4683   15.5056    0.7141 C   0  0  0  0  0  0  0  0  0  0  0  0
   -4.8732   16.6828    0.7221 O   0  0  0  0  0  0  0  0  0  0  0  0
   -3.8986   15.0173   -0.4008 N   0  0  0  0  0  0  0  0  0  0  0  0
   -3.4728   13.7292   -0.3474 C   0  0  0  0  0  0  0  0  0  0  0  0
   -3.6055   12.9787    0.7354 N   0  0  0  0  0  0  0  0  0  0  0  0
   -4.1711   13.4383    1.8575 C   0  0  0  0  0  0  0  0  0  0  0  0
   -4.3314   12.6605    2.9895 C   0  0  0  0  0  0  0  0  0  0  0  0
   -2.8185   12.9783   -1.4437 C   0  0  0  0  0  0  0  0  0  0  0  0
   -3.1178   13.5523   -2.7942 C   0  0  0  0  0  0  0  0  0  0  0  0
   -2.3456   14.7882   -3.1364 C   0  0  0  0  0  0  0  0  0  0  0  0
   -2.4882   15.8991   -2.1236 C   0  0  0  0  0  0  0  0  0  0  0  0
   -3.8385   15.9464   -1.4958 C   0  0  0  0  0  0  0  0  0  0  0  0
   -5.3596   10.7904    7.8411 N   0  0  0  0  0  0  0  0  0  0  0  0
   -5.7241   10.4129    9.0190 O   0  0  0  0  0  0  0  0  0  0  0  0
  1  2  1  0
  2  3  2  0
  3  4  1  0
  4  5  2  3
  5  6  1  0
  6  7  2  0
  6  8  1  0
  8  9  2  0
  9 10  1  0
 10 11  2  0
 11 12  1  0
 12 13  2  0
 12 14  1  0
 14 15  1  0
 15 16  2  0
 16 17  1  0
 17 18  2  0
 15 19  1  0
 19 20  1  0
 20 21  1  0
 21 22  1  0
 22 23  1  0
  4 24  1  0
 24 25  1  0
 25  2  1  0
 18  8  1  0
 17 11  1  0
 23 14  1  0
M  END
$$$$
PC10
     RDKit          3D

 32 36  0  0  0  0  0  0  0  0999 V2000
   -2.0281   13.0844   -4.9741 C   0  0  0  0  0  0  0  0  0  0  0  0
   -2.3376   13.5575   -3.6135 C   0  0  0  0  0  0  0  0  0  0  0  0
   -2.3537   12.6705   -2.5725 C   0  0  0  0  0  0  0  0  0  0  0  0
   -2.6411   13.1005   -1.3003 C   0  0  0  0  0  0  0  0  0  0  0  0
   -2.9158   14.4296   -1.0595 C   0  0  0  0  0  0  0  0  0  0  0  0
   -3.2171   14.9193    0.2081 C   0  0  0  0  0  0  0  0  0  0  0  0
   -3.2273   14.0292    1.3009 N   0  0  0  0  0  0  0  0  0  0  0  0
   -2.8998   14.3839    2.6630 C   0  0  0  0  0  0  0  0  0  0  0  0
   -4.1046   14.1057    3.5206 C   0  0  0  0  0  0  0  0  0  0  0  0
   -4.7274   12.8359    3.2478 N   0  0  0  0  0  0  0  0  0  0  0  0
   -6.0344   13.0401    2.7954 C   0  0  0  0  0  0  0  0  0  0  0  0
   -7.1668   13.1046    3.7357 C   0  0  0  0  0  0  0  0  0  0  0  0
   -6.9406   12.4172    5.0298 C   0  0  0  0  0  0  0  0  0  0  0  0
   -5.8522   11.5557    5.2005 C   0  0  0  0  0  0  0  0  0  0  0  0
   -5.5866   10.9002    6.3825 C   0  0  0  0  0  0  0  0  0  0  0  0
   -4.5189   10.0599    6.5368 O   0  0  0  0  0  0  0  0  0  0  0  0
   -6.4400   11.1082    7.4464 C   0  0  0  0  0  0  0  0  0  0  0  0
   -6.2430   10.4839    8.6819 C   0  0  0  0  0  0  0  0  0  0  0  0
   -5.1085    9.5807    8.8723 C   0  0  0  0  0  0  0  0  0  0  0  0
   -7.1159   10.7117    9.7366 C   0  0  0  0  0  0  0  0  0  0  0  0
   -6.8680   10.0359   11.0107 C   0  0  0  0  0  0  0  0  0  0  0  0
   -8.1457   11.5378    9.5468 N   0  0  0  0  0  0  0  0  0  0  0  0
   -8.3523   12.1452    8.3729 N   0  0  0  0  0  0  0  0  0  0  0  0
   -7.5158   11.9408    7.3268 C   0  0  0  0  0  0  0  0  0  0  0  0
   -7.7469   12.5804    6.1214 C   0  0  0  0  0  0  0  0  0  0  0  0
   -3.8719   11.9988    2.5112 C   0  0  0  0  0  0  0  0  0  0  0  0
   -3.5987   12.6120    1.1438 C   0  0  0  0  0  0  0  0  0  0  0  0
   -3.4918   16.2779    0.3812 C   0  0  0  0  0  0  0  0  0  0  0  0
   -3.4658   17.1312   -0.6898 C   0  0  0  0  0  0  0  0  0  0  0  0
   -3.1669   16.6377   -1.9353 C   0  0  0  0  0  0  0  0  0  0  0  0
   -2.8917   15.3079   -2.1426 C   0  0  0  0  0  0  0  0  0  0  0  0
   -2.6022   14.8440   -3.3919 N   0  0  0  0  0  0  0  0  0  0  0  0
  1  2  1  0
  2  3  2  0
  3  4  1  0
  4  5  2  0
  5  6  1  0
  6  7  1  0
  7  8  1  0
  8  9  1  0
  9 10  1  0
 10 11  1  0
 11 12  1  0
 12 13  1  0
 13 14  2  0
 14 15  1  0
 15 16  1  0
 15 17  2  0
 17 18  1  0
 18 19  1  0
 18 20  2  0
 20 21  1  0
 20 22  1  0
 22 23  2  0
 23 24  1  0
 24 25  2  0
 10 26  1  0
 26 27  1  0
  6 28  2  0
 28 29  1  0
 29 30  2  0
 30 31  1  0
 31 32  2  0
 32  2  1  0
 31  5  1  0
 27  7  1  0
 25 13  1  0
 24 17  1  0
M  END
$$$$
UD01
     RDKit          3D

 22 24  0  0  0  0  0  0  0  0999 V2000
   -5.1916   14.7266    2.5566 O   0  0  0  0  0  0  0  0  0  0  0  0
   -4.4283   13.8540    2.0623 C   0  0  0  0  0  0  0  0  0  0  0  0
   -4.0035   14.0463    0.7340 N   0  0  0  0  0  0  0  0  0  0  0  0
   -4.2466   15.2159   -0.0594 C   0  0  0  0  0  0  0  0  0  0  0  0
   -3.4852   15.2933   -1.3139 C   0  0  0  0  0  0  0  0  0  0  0  0
   -2.2167   15.8104   -1.4570 C   0  0  0  0  0  0  0  0  0  0  0  0
   -1.5904   15.8371   -2.6939 C   0  0  0  0  0  0  0  0  0  0  0  0
   -2.1973   15.3524   -3.8345 C   0  0  0  0  0  0  0  0  0  0  0  0
   -3.4679   14.8330   -3.6978 C   0  0  0  0  0  0  0  0  0  0  0  0
   -4.0937   14.8064   -2.4615 C   0  0  0  0  0  0  0  0  0  0  0  0
   -4.0483   12.7151    2.9107 C   0  0  0  0  0  0  0  0  0  0  0  0
   -2.5635   12.4620    2.9581 C   0  0  0  0  0  0  0  0  0  0  0  0
   -2.4388   11.6624    4.1646 N   0  0  0  0  0  0  0  0  0  0  0  0
   -3.6024   11.8363    4.9976 C   0  0  0  0  0  0  0  0  0  0  0  0
   -3.9588   11.1793    5.9942 O   0  0  0  0  0  0  0  0  0  0  0  0
   -4.3104   13.0043    4.3956 C   0  0  0  0  0  0  0  0  0  0  0  0
   -5.7294   13.0715    4.7307 C   0  0  0  0  0  0  0  0  0  0  0  0
   -6.5794   12.0071    4.6816 C   0  0  0  0  0  0  0  0  0  0  0  0
   -7.9051   12.1878    5.0217 C   0  0  0  0  0  0  0  0  0  0  0  0
   -8.3742   13.4451    5.4123 C   0  0  0  0  0  0  0  0  0  0  0  0
   -7.4880   14.4950    5.4500 C   0  0  0  0  0  0  0  0  0  0  0  0
   -6.2241   14.2731    5.1144 N   0  0  0  0  0  0  0  0  0  0  0  0
  1  2  2  0
  2  3  1  0
  3  4  1  0
  4  5  1  0
  5  6  2  0
  6  7  1  0
  7  8  2  0
  8  9  1  0
  9 10  2  0
  2 11  1  0
 11 12  1  0
 12 13  1  0
 13 14  1  0
 14 15  2  0
 14 16  1  0
 16 17  1  0
 17 18  2  0
 18 19  1  0
 19 20  2  0
 20 21  1  0
 21 22  2  0
 10  5  1  0
 16 11  1  0
 22 17  1  0
M  END
$$$$
UD02
     RDKit          3D

 15 16  0  0  0  0  0  0  0  0999 V2000
    0.3464   10.8355   20.1543 C   0  0  0  0  0  0  0  0  0  0  0  0
    1.0440    9.8338   19.2713 C   0  0  0  0  0  0  0  0  0  0  0  0
    1.3075   10.5110   17.9402 C   0  0  0  0  0  0  0  0  0  0  0  0
    0.3331    8.6420   19.0657 N   0  0  0  0  0  0  0  0  0  0  0  0
   -0.8289    8.3746   19.7867 C   0  0  0  0  0  0  0  0  0  0  0  0
    0.8743    7.6656   18.2156 C   0  0  0  0  0  0  0  0  0  0  0  0
    1.9814    6.9471   18.9125 C   0  0  0  0  0  0  0  0  0  0  0  0
    2.0282    6.5386   20.2282 C   0  0  0  0  0  0  0  0  0  0  0  0
    3.1827    5.9251   20.4977 N   0  0  0  0  0  0  0  0  0  0  0  0
    3.8897    5.9346   19.3523 C   0  0  0  0  0  0  0  0  0  0  0  0
    5.1630    5.4350   19.0484 C   0  0  0  0  0  0  0  0  0  0  0  0
    5.6472    5.5857   17.7751 C   0  0  0  0  0  0  0  0  0  0  0  0
    4.9444    6.2064   16.7706 C   0  0  0  0  0  0  0  0  0  0  0  0
    3.7064    6.6936   17.0615 C   0  0  0  0  0  0  0  0  0  0  0  0
    3.1866    6.5563   18.3446 C   0  0  0  0  0  0  0  0  0  0  0  0
  1  2  1  0
  2  3  1  0
  2  4  1  0
  4  5  1  0
  4  6  1  0
  6  7  1  0
  7  8  2  0
  8  9  1  0
  9 10  1  0
 10 11  2  0
 11 12  1  0
 12 13  2  0
 13 14  1  0
 14 15  2  0
 15  7  1  0
 15 10  1  0
M  END
$$$$
UD04
     RDKit          3D

 14 16  0  0  0  0  0  0  0  0999 V2000
    8.1103   22.3028   -5.2782 C   0  0  0  0  0  0  0  0  0  0  0  0
    6.7262   22.6961   -5.7170 C   0  0  0  0  0  0  0  0  0  0  0  0
    5.6409   22.2778   -4.8128 C   0  0  0  0  0  0  0  0  0  0  0  0
    5.9823   21.4549   -3.6446 C   0  0  0  0  0  0  0  0  0  0  0  0
    7.2683   20.7135   -3.6773 C   0  0  0  0  0  0  0  0  0  0  0  0
    7.9972   20.7971   -4.9956 C   0  0  0  0  0  0  0  0  0  0  0  0
    4.9208   20.4885   -3.3564 N   0  0  0  0  0  0  0  0  0  0  0  0
    4.8782   19.1857   -3.7418 C   0  0  0  0  0  0  0  0  0  0  0  0
    3.7377   18.6142   -3.2854 N   0  0  0  0  0  0  0  0  0  0  0  0
    3.0359   19.5385   -2.6039 C   0  0  0  0  0  0  0  0  0  0  0  0
    3.7850   20.6847   -2.6616 C   0  0  0  0  0  0  0  0  0  0  0  0
    3.1333   21.6754   -1.9871 N   0  0  0  0  0  0  0  0  0  0  0  0
    1.9889   21.1414   -1.5169 C   0  0  0  0  0  0  0  0  0  0  0  0
    1.9362   19.8508   -1.8927 N   0  0  0  0  0  0  0  0  0  0  0  0
  1  2  1  0
  2  3  1  0
  3  4  1  0
  4  5  1  0
  5  6  1  0
  4  7  1  0
  7  8  1  0
  8  9  2  0
  9 10  1  0
 10 11  2  0
 11 12  1  0
 12 13  1  0
 13 14  2  0
  6  1  1  0
 11  7  1  0
 14 10  1  0
M  END
$$$$
UD05
     RDKit          3D

 17 18  0  0  0  0  0  0  0  0999 V2000
   -6.8460   15.0576    1.2622 C   0  0  0  0  0  0  0  0  0  0  0  0
   -6.0755   14.0286    2.0343 C   0  0  0  0  0  0  0  0  0  0  0  0
   -4.9119   13.7932    1.6191 O   0  0  0  0  0  0  0  0  0  0  0  0
   -6.6699   13.4060    3.1374 N   0  0  0  0  0  0  0  0  0  0  0  0
   -8.0297   13.7057    3.4994 C   0  0  0  0  0  0  0  0  0  0  0  0
   -7.9961   14.0645    4.9705 C   0  0  0  0  0  0  0  0  0  0  0  0
   -7.5970   12.8843    5.7002 N   0  0  0  0  0  0  0  0  0  0  0  0
   -6.8377   11.8483    5.0148 C   0  0  0  0  0  0  0  0  0  0  0  0
   -5.9483   12.4534    3.9403 C   0  0  0  0  0  0  0  0  0  0  0  0
   -7.9299   12.7374    7.0612 C   0  0  0  0  0  0  0  0  0  0  0  0
   -7.2812   11.8283    7.8951 C   0  0  0  0  0  0  0  0  0  0  0  0
   -7.6228   11.7042    9.2390 C   0  0  0  0  0  0  0  0  0  0  0  0
   -8.6233   12.4898    9.7770 C   0  0  0  0  0  0  0  0  0  0  0  0
   -9.2685   13.3890    8.9626 C   0  0  0  0  0  0  0  0  0  0  0  0
   -8.9199   13.5027    7.6294 C   0  0  0  0  0  0  0  0  0  0  0  0
   -8.9722   12.3767   11.1098 O   0  0  0  0  0  0  0  0  0  0  0  0
   -8.5779   13.3922   12.0105 C   0  0  0  0  0  0  0  0  0  0  0  0
  1  2  1  0
  2  3  2  0
  2  4  1  0
  4  5  1  0
  5  6  1  0
  6  7  1  0
  7  8  1  0
  8  9  1  0
  7 10  1  0
 10 11  2  0
 11 12  1  0
 12 13  2  0
 13 14  1  0
 14 15  2  0
 13 16  1  0
 16 17  1  0
  9  4  1  0
 15 10  1  0
M  END
$$$$
UD06
     RDKit          3D

 14 15  0  0  0  0  0  0  0  0999 V2000
   -3.4838   11.9023    4.1091 C   0  0  0  0  0  0  0  0  0  0  0  0
   -3.7529   13.2351    3.5667 N   0  0  0  0  0  0  0  0  0  0  0  0
   -4.2768   14.2518    4.2800 C   0  0  0  0  0  0  0  0  0  0  0  0
   -4.3640   15.2865    3.4282 N   0  0  0  0  0  0  0  0  0  0  0  0
   -3.9102   14.9474    2.2032 C   0  0  0  0  0  0  0  0  0  0  0  0
   -3.5211   13.6306    2.3030 C   0  0  0  0  0  0  0  0  0  0  0  0
   -3.0124   13.0399    1.1659 C   0  0  0  0  0  0  0  0  0  0  0  0
   -2.6515   11.8517    1.2213 O   0  0  0  0  0  0  0  0  0  0  0  0
   -2.9020   13.7335   -0.0024 N   0  0  0  0  0  0  0  0  0  0  0  0
   -3.2861   15.0187   -0.0848 C   0  0  0  0  0  0  0  0  0  0  0  0
   -3.1743   15.6435   -1.1809 O   0  0  0  0  0  0  0  0  0  0  0  0
   -3.7811   15.5905    1.0252 N   0  0  0  0  0  0  0  0  0  0  0  0
   -4.1964   16.9889    0.9264 C   0  0  0  0  0  0  0  0  0  0  0  0
   -2.3598   13.0842   -1.1926 C   0  0  0  0  0  0  0  0  0  0  0  0
  1  2  1  0
  2  3  1  0
  3  4  2  0
  4  5  1  0
  5  6  2  0
  6  7  1  0
  7  8  2  0
  7  9  1  0
  9 10  1  0
 10 11  2  0
 10 12  1  0
 12 13  1  0
  9 14  1  0
  6  2  1  0
 12  5  1  0
M  END
$$$$
UD07
     RDKit          3D

 15 16  0  0  0  0  0  0  0  0999 V2000
    0.9459    8.6816   17.3671 C   0  0  0  0  0  0  0  0  0  0  0  0
   -0.0960    8.4022   18.4614 C   0  0  0  0  0  0  0  0  0  0  0  0
    0.1551    9.2508   19.5117 O   0  0  0  0  0  0  0  0  0  0  0  0
    1.3424    8.8829   20.1657 C   0  0  0  0  0  0  0  0  0  0  0  0
    2.4595    9.2721   19.2036 C   0  0  0  0  0  0  0  0  0  0  0  0
    2.2342    8.4732   18.0076 N   0  0  0  0  0  0  0  0  0  0  0  0
    3.2236    7.5845   17.5784 C   0  0  0  0  0  0  0  0  0  0  0  0
    3.1425    6.8759   16.4043 C   0  0  0  0  0  0  0  0  0  0  0  0
    4.1484    5.9864   16.0152 C   0  0  0  0  0  0  0  0  0  0  0  0
    5.2454    5.8186   16.8297 C   0  0  0  0  0  0  0  0  0  0  0  0
    5.3675    6.5097   18.0165 C   0  0  0  0  0  0  0  0  0  0  0  0
    4.3424    7.3780   18.3544 C   0  0  0  0  0  0  0  0  0  0  0  0
    6.4627    6.3373   18.8218 O   0  0  0  0  0  0  0  0  0  0  0  0
    7.7268    6.7630   18.3544 C   0  0  0  0  0  0  0  0  0  0  0  0
    4.0145    5.0983   14.5129 Cl  0  0  0  0  0  0  0  0  0  0  0  0
  1  2  1  0
  2  3  1  0
  3  4  1  0
  4  5  1  0
  5  6  1  0
  6  7  1  0
  7  8  2  0
  8  9  1  0
  9 10  2  0
 10 11  1  0
 11 12  2  0
 11 13  1  0
 13 14  1  0
  9 15  1  0
  6  1  1  0
 12  7  1  0
M  END
$$$$
UD08
     RDKit          3D

 15 15  0  0  0  0  0  0  0  0999 V2000
    3.3377   22.1434   -5.0608 C   0  0  0  0  0  0  0  0  0  0  0  0
    2.3865   21.2616   -4.3478 C   0  0  0  0  0  0  0  0  0  0  0  0
    2.6270   19.9148   -4.3056 C   0  0  0  0  0  0  0  0  0  0  0  0
    1.7706   19.0678   -3.6568 C   0  0  0  0  0  0  0  0  0  0  0  0
    0.6530   19.5919   -3.0409 C   0  0  0  0  0  0  0  0  0  0  0  0
    0.3931   20.9401   -3.0713 C   0  0  0  0  0  0  0  0  0  0  0  0
    1.2685   21.8011   -3.7338 C   0  0  0  0  0  0  0  0  0  0  0  0
   -0.7053   21.4710   -2.4682 F   0  0  0  0  0  0  0  0  0  0  0  0
    4.0503   19.2868   -5.0945 S   0  0  0  0  0  6  0  0  0  0  0  0
    3.8037   19.1686   -6.5815 O   0  0  0  0  0  0  0  0  0  0  0  0
    4.3282   17.9330   -4.5051 O   0  0  0  0  0  0  0  0  0  0  0  0
    5.4157   20.3417   -4.8109 N   0  0  0  0  0  0  0  0  0  0  0  0
    6.1365   20.3329   -3.6079 C   0  0  0  0  0  0  0  0  0  0  0  0
    5.8336   19.4916   -2.7272 O   0  0  0  0  0  0  0  0  0  0  0  0
    7.2077   21.2456   -3.3386 N   0  0  0  0  0  0  0  0  0  0  0  0
  1  2  1  0
  2  3  2  0
  3  4  1  0
  4  5  2  0
  5  6  1  0
  6  7  2  0
  6  8  1  0
  3  9  1  0
  9 10  2  0
  9 11  2  0
  9 12  1  0
 12 13  1  0
 13 14  2  0
 13 15  1  0
  7  2  1  0
M  END
$$$$
UD09
     RDKit          3D

 14 14  0  0  0  0  0  0  0  0999 V2000
   -3.2372   10.3429   18.1041 C   0  0  0  0  0  0  0  0  0  0  0  0
   -1.9109    9.6977   18.2630 C   0  0  0  0  0  0  0  0  0  0  0  0
   -1.7835    8.5404   18.7256 O   0  0  0  0  0  0  0  0  0  0  0  0
   -0.7511   10.4255   17.8744 N   0  0  0  0  0  0  0  0  0  0  0  0
    0.5465    9.8257   17.9414 C   0  0  0  0  0  0  0  0  0  0  0  0
    1.6992   10.5057   17.6047 C   0  0  0  0  0  0  0  0  0  0  0  0
    2.9417    9.8934   17.6811 C   0  0  0  0  0  0  0  0  0  0  0  0
    3.0668    8.5840   18.0963 C   0  0  0  0  0  0  0  0  0  0  0  0
    1.9240    7.8912   18.4362 C   0  0  0  0  0  0  0  0  0  0  0  0
    0.6989    8.5126   18.3550 C   0  0  0  0  0  0  0  0  0  0  0  0
    2.0684    6.2225   18.9669 S   0  0  0  0  0  6  0  0  0  0  0  0
    0.7146    5.6207   19.2034 O   0  0  0  0  0  0  0  0  0  0  0  0
    2.8551    5.4365   17.9375 O   0  0  0  0  0  0  0  0  0  0  0  0
    3.0293    6.2028   20.4212 N   0  0  0  0  0  0  0  0  0  0  0  0
  1  2  1  0
  2  3  2  0
  2  4  1  0
  4  5  1  0
  5  6  2  0
  6  7  1  0
  7  8  2  0
  8  9  1  0
  9 10  2  0
  9 11  1  0
 11 12  2  0
 11 13  2  0
 11 14  1  0
 10  5  1  0
M  END
$$$$
UD10
     RDKit          3D

 18 20  0  0  0  0  0  0  0  0999 V2000
    5.7649   22.9786   -4.1120 C   0  0  0  0  0  0  0  0  0  0  0  0
    6.6960   22.3322   -5.0432 C   0  0  0  0  0  0  0  0  0  0  0  0
    5.2555   22.0729   -5.2525 C   0  0  0  0  0  0  0  0  0  0  0  0
    4.6015   20.8935   -4.7537 N   0  0  0  0  0  0  0  0  0  0  0  0
    5.4382   19.7542   -4.6263 C   0  0  0  0  0  0  0  0  0  0  0  0
    5.1379   18.4581   -4.5768 C   0  0  0  0  0  0  0  0  0  0  0  0
    3.7878   17.8935   -4.6482 C   0  0  0  0  0  0  0  0  0  0  0  0
    3.7385   16.6468   -4.8570 O   0  0  0  0  0  0  0  0  0  0  0  0
    2.5338   18.5191   -4.5211 N   0  0  0  0  0  0  0  0  0  0  0  0
    2.2979   19.9093   -4.3377 C   0  0  0  0  0  0  0  0  0  0  0  0
    1.0059   20.2411   -4.0201 C   0  0  0  0  0  0  0  0  0  0  0  0
    0.5933   21.5395   -3.8042 C   0  0  0  0  0  0  0  0  0  0  0  0
    1.5361   22.5278   -3.9178 C   0  0  0  0  0  0  0  0  0  0  0  0
    2.8538   22.2726   -4.2337 C   0  0  0  0  0  0  0  0  0  0  0  0
    3.2183   20.9611   -4.4404 C   0  0  0  0  0  0  0  0  0  0  0  0
    6.2570   17.5346   -4.4398 C   0  0  0  0  0  0  0  0  0  0  0  0
    7.0639   17.5999   -3.5018 O   0  0  0  0  0  0  0  0  0  0  0  0
    6.4325   16.5445   -5.3883 O   0  0  0  0  0  0  0  0  0  0  0  0
  1  2  1  0
  2  3  1  0
  3  4  1  0
  4  5  1  0
  5  6  2  0
  6  7  1  0
  7  8  2  0
  7  9  1  0
  9 10  1  0
 10 11  2  0
 11 12  1  0
 12 13  2  0
 13 14  1  0
 14 15  2  0
  6 16  1  0
 16 17  2  0
 16 18  1  0
  3  1  1  0
 15  4  1  0
 15 10  1  0
M  END
$$$$
VN01
     RDKit          3D

 23 25  0  0  0  0  0  0  0  0999 V2000
    2.3628    7.9355   18.9483 C   0  0  0  0  0  0  0  0  0  0  0  0
    3.7014    7.1411   19.0430 C   0  0  0  0  0  0  0  0  0  0  0  0
    3.1715    6.1301   18.2412 C   0  0  0  0  0  0  0  0  0  0  0  0
    2.3813    7.4671   17.5501 C   0  0  0  0  0  0  0  0  0  0  0  0
    3.2931    8.0723   16.7766 F   0  0  0  0  0  0  0  0  0  0  0  0
    1.2745    7.0667   16.9485 F   0  0  0  0  0  0  0  0  0  0  0  0
    4.5277    6.2315   17.1488 C   0  0  0  0  0  0  0  0  0  0  0  0
    5.4954    6.3138   16.3538 N   0  0  0  0  0  0  0  0  0  0  0  0
    2.6270    5.0822   17.4090 C   0  0  0  0  0  0  0  0  0  0  0  0
    1.8854    5.7521   16.2122 C   0  0  0  0  0  0  0  0  0  0  0  0
    3.6541    4.1654   16.7774 C   0  0  0  0  0  0  0  0  0  0  0  0
    1.5867    4.1737   18.0053 C   0  0  0  0  0  0  0  0  0  0  0  0
    4.7782    8.0467   18.6448 N   0  0  0  0  0  0  0  0  0  0  0  0
    2.4869    9.4664   19.2369 B   0  0  0  0  0  0  0  0  0  0  0  0
    1.7521   10.2684   20.3199 C   0  0  0  0  0  0  0  0  0  0  0  0
    0.5400    9.8617   20.8142 C   0  0  0  0  0  0  0  0  0  0  0  0
   -0.1820   10.5419   21.8020 C   0  0  0  0  0  0  0  0  0  0  0  0
    0.3347   11.6841   22.3353 C   0  0  0  0  0  0  0  0  0  0  0  0
    1.5834   12.1143   21.8313 C   0  0  0  0  0  0  0  0  0  0  0  0
    2.2566   11.4444   20.8664 C   0  0  0  0  0  0  0  0  0  0  0  0
    4.0847   12.2811   20.1209 I   0  0  0  0  0  0  0  0  0  0  0  0
   -0.7103   11.8662   23.1849 O   0  0  0  0  0  0  0  0  0  0  0  0
   -1.3752   10.7505   22.6499 C   0  0  0  0  0  0  0  0  0  0  0  0
  1  2  1  0
  2  3  1  0
  3  4  1  0
  4  5  1  0
  4  6  1  0
  3  7  1  0
  7  8  3  0
  3  9  1  0
  9 10  1  0
  9 11  1  0
  9 12  1  0
  2 13  1  0
  1 14  1  0
 14 15  1  0
 15 16  2  0
 16 17  1  0
 17 18  2  0
 18 19  1  0
 19 20  2  0
 20 21  1  0
 18 22  1  0
 22 23  1  0
  4  1  1  0
 20 15  1  0
 23 17  1  0
M  END
$$$$
VN02
     RDKit          3D

 23 25  0  0  0  0  0  0  0  0999 V2000
    5.6322    6.4970   17.4198 C   0  0  0  0  0  0  0  0  0  0  0  0
    6.7671    7.3116   16.7791 C   0  0  0  0  0  0  0  0  0  0  0  0
    7.6948    6.2651   17.3265 C   0  0  0  0  0  0  0  0  0  0  0  0
    6.5475    5.2797   17.2170 C   0  0  0  0  0  0  0  0  0  0  0  0
    6.4958    4.7652   15.9461 F   0  0  0  0  0  0  0  0  0  0  0  0
    6.4830    4.3560   18.2308 F   0  0  0  0  0  0  0  0  0  0  0  0
    8.0125    6.6053   18.7367 C   0  0  0  0  0  0  0  0  0  0  0  0
    8.2447    6.8628   19.8405 N   0  0  0  0  0  0  0  0  0  0  0  0
    8.9328    5.9687   16.5851 C   0  0  0  0  0  0  0  0  0  0  0  0
    9.4802    4.6397   17.0600 C   0  0  0  0  0  0  0  0  0  0  0  0
    9.9956    6.9995   16.6070 C   0  0  0  0  0  0  0  0  0  0  0  0
    8.5452    5.7503   15.1137 C   0  0  0  0  0  0  0  0  0  0  0  0
    6.9809    9.1957   17.7412 I   0  0  0  0  0  0  0  0  0  0  0  0
    4.3044    6.4803   16.6175 B   0  0  0  0  0  0  0  0  0  0  0  0
    2.9278    6.7140   17.3441 C   0  0  0  0  0  0  0  0  0  0  0  0
    2.8662    7.0426   18.6745 C   0  0  0  0  0  0  0  0  0  0  0  0
    1.6407    7.2493   19.3237 C   0  0  0  0  0  0  0  0  0  0  0  0
    0.5085    7.1098   18.5754 C   0  0  0  0  0  0  0  0  0  0  0  0
    0.5588    6.7762   17.2227 C   0  0  0  0  0  0  0  0  0  0  0  0
    1.7672    6.5813   16.6189 C   0  0  0  0  0  0  0  0  0  0  0  0
    1.8359    6.2407   15.2398 O   0  0  0  0  0  0  0  0  0  0  0  0
   -0.2735    7.4102   19.6781 O   0  0  0  0  0  0  0  0  0  0  0  0
    0.8367    7.5692   20.4991 C   0  0  0  0  0  0  0  0  0  0  0  0
  1  2  1  0
  2  3  1  0
  3  4  1  0
  4  5  1  0
  4  6  1  0
  3  7  1  0
  7  8  3  0
  3  9  1  0
  9 10  1  0
  9 11  1  0
  9 12  1  0
  2 13  1  0
  1 14  1  0
 14 15  1  0
 15 16  2  0
 16 17  1  0
 17 18  2  0
 18 19  1  0
 19 20  2  0
 20 21  1  0
 18 22  1  0
 22 23  1  0
  4  1  1  0
 20 15  1  0
 23 17  1  0
M  END
$$$$
VN03
     RDKit          3D

 21 23  0  0  0  0  0  0  0  0999 V2000
    6.9655   22.1043   -2.9401 I   0  0  0  0  0  0  0  0  0  0  0  0
    5.2492   20.9875   -3.5188 C   0  0  0  0  0  0  0  0  0  0  0  0
    5.4122   19.6711   -3.8898 C   0  0  0  0  0  0  0  0  0  0  0  0
    6.6881   19.0537   -3.8816 N   0  0  0  0  0  0  0  0  0  0  0  0
    7.2563   17.7383   -4.1073 C   0  0  2  0  0  0  0  0  0  0  0  0
    7.1998   16.7580   -2.5849 S   0  0  0  0  0  0  0  0  0  0  0  0
    8.5402   18.2767   -4.3291 O   0  0  0  0  0  0  0  0  0  0  0  0
    8.1118   19.5010   -3.6133 B   0  0  0  0  0  0  0  0  0  0  0  0
    4.2771   18.9672   -4.2683 C   0  0  0  0  0  0  0  0  0  0  0  0
    3.0344   19.5311   -4.2819 C   0  0  0  0  0  0  0  0  0  0  0  0
    2.8964   20.8462   -3.9074 C   0  0  0  0  0  0  0  0  0  0  0  0
    4.0057   21.5808   -3.5237 C   0  0  0  0  0  0  0  0  0  0  0  0
    1.4817   21.3008   -3.9768 C   0  0  0  0  0  0  0  0  0  0  0  0
    0.7625   19.9691   -4.0107 C   0  0  0  0  0  0  0  0  0  0  0  0
    0.4911   19.5340   -2.6384 C   0  0  0  0  0  0  0  0  0  0  0  0
    0.2555   19.1919   -1.5390 N   0  0  0  0  0  0  0  0  0  0  0  0
   -0.5483   20.1737   -4.7019 C   0  0  0  0  0  0  0  0  0  0  0  0
   -1.4298   18.9318   -4.6017 C   0  0  0  0  0  0  0  0  0  0  0  0
   -1.2787   21.2707   -3.9490 C   0  0  0  0  0  0  0  0  0  0  0  0
   -0.4219   20.6329   -6.1251 C   0  0  0  0  0  0  0  0  0  0  0  0
    1.6706   18.9923   -4.6465 C   0  0  0  0  0  0  0  0  0  0  0  0
  1  2  1  0
  2  3  2  0
  3  4  1  0
  4  5  1  0
  5  6  1  1
  5  7  1  0
  7  8  1  0
  3  9  1  0
  9 10  2  0
 10 11  1  0
 11 12  2  0
 11 13  1  0
 13 14  1  0
 14 15  1  0
 15 16  3  0
 14 17  1  0
 17 18  1  0
 17 19  1  0
 17 20  1  0
 14 21  1  0
 12  2  1  0
  8  4  1  0
 21 10  1  0
M  END
$$$$
VN04
     RDKit          3D

 23 25  0  0  0  0  0  0  0  0999 V2000
   -5.3641   12.0631    5.4174 C   0  0  0  0  0  0  0  0  0  0  0  0
   -5.8567   12.2778    3.9724 C   0  0  0  0  0  0  0  0  0  0  0  0
   -4.3672   12.5229    3.6849 C   0  0  0  0  0  0  0  0  0  0  0  0
   -4.3142   13.1383    5.0428 C   0  0  0  0  0  0  0  0  0  0  0  0
   -4.8329   14.3651    5.2573 F   0  0  0  0  0  0  0  0  0  0  0  0
   -3.0981   12.8966    5.6512 F   0  0  0  0  0  0  0  0  0  0  0  0
   -3.6866   11.2029    3.7064 C   0  0  0  0  0  0  0  0  0  0  0  0
   -3.1807   10.1789    3.7261 N   0  0  0  0  0  0  0  0  0  0  0  0
   -4.0276   13.2621    2.4698 C   0  0  0  0  0  0  0  0  0  0  0  0
   -4.4922   12.3859    1.2807 C   0  0  0  0  0  0  0  0  0  0  0  0
   -2.5182   13.3764    2.3804 C   0  0  0  0  0  0  0  0  0  0  0  0
   -4.5984   14.6099    2.2519 C   0  0  0  0  0  0  0  0  0  0  0  0
   -6.4358   10.9525    3.3888 B   0  0  0  0  0  0  0  0  0  0  0  0
   -6.5108   12.5668    6.6843 S   0  0  0  0  0  0  0  0  0  0  0  0
   -6.6815   11.1930    7.8489 C   0  0  0  0  0  0  0  0  0  0  0  0
   -5.9264   11.1478    8.9970 C   0  0  0  0  0  0  0  0  0  0  0  0
   -6.0520   10.1042    9.8933 C   0  0  0  0  0  0  0  0  0  0  0  0
   -6.9469    9.0985    9.6273 C   0  0  0  0  0  0  0  0  0  0  0  0
   -7.7264    9.1226    8.4647 C   0  0  0  0  0  0  0  0  0  0  0  0
   -7.5771   10.1785    7.5912 C   0  0  0  0  0  0  0  0  0  0  0  0
   -8.7369   10.2776    5.8114 I   0  0  0  0  0  0  0  0  0  0  0  0
   -6.6054    8.4389   10.8079 O   0  0  0  0  0  0  0  0  0  0  0  0
   -5.6577    9.4240   11.1756 C   0  0  0  0  0  0  0  0  0  0  0  0
  1  2  1  0
  2  3  1  0
  3  4  1  0
  4  5  1  0
  4  6  1  0
  3  7  1  0
  7  8  3  0
  3  9  1  0
  9 10  1  0
  9 11  1  0
  9 12  1  0
  2 13  1  0
  1 14  1  0
 14 15  1  0
 15 16  2  0
 16 17  1  0
 17 18  2  0
 18 19  1  0
 19 20  2  0
 20 21  1  0
 18 22  1  0
 22 23  1  0
  4  1  1  0
 20 15  1  0
 23 17  1  0
M  END
$$$$
VN05
     RDKit          3D

 23 25  0  0  0  0  0  0  0  0999 V2000
    5.8623    7.2399   17.6495 C   0  0  0  0  0  0  0  0  0  0  0  0
    6.4513    6.7495   16.3345 C   0  0  0  0  0  0  0  0  0  0  0  0
    7.7416    6.4605   17.0720 C   0  0  0  0  0  0  0  0  0  0  0  0
    6.9986    6.5575   18.3495 C   0  0  0  0  0  0  0  0  0  0  0  0
    6.5627    5.3060   18.8089 F   0  0  0  0  0  0  0  0  0  0  0  0
    7.5810    7.2279   19.3845 F   0  0  0  0  0  0  0  0  0  0  0  0
    8.2406    5.0923   16.8604 C   0  0  0  0  0  0  0  0  0  0  0  0
    8.6448    4.0180   16.7104 N   0  0  0  0  0  0  0  0  0  0  0  0
    8.8416    7.4450   16.8166 C   0  0  0  0  0  0  0  0  0  0  0  0
    8.3693    8.8326   17.2787 C   0  0  0  0  0  0  0  0  0  0  0  0
    9.2250    7.5787   15.3841 C   0  0  0  0  0  0  0  0  0  0  0  0
   10.0856    7.1578   17.6237 C   0  0  0  0  0  0  0  0  0  0  0  0
    5.7015    5.1902   15.7737 S   0  0  0  0  0  0  0  0  0  0  0  0
    4.4283    6.6112   17.9433 B   0  0  0  0  0  0  0  0  0  0  0  0
    3.1579    7.4793   18.1511 C   0  0  0  0  0  0  0  0  0  0  0  0
    3.1535    8.8525   18.1608 C   0  0  0  0  0  0  0  0  0  0  0  0
    1.9879    9.5874   18.3510 C   0  0  0  0  0  0  0  0  0  0  0  0
    0.8010    8.9220   18.5356 C   0  0  0  0  0  0  0  0  0  0  0  0
    0.7695    7.5217   18.5316 C   0  0  0  0  0  0  0  0  0  0  0  0
    1.9562    6.8439   18.3383 C   0  0  0  0  0  0  0  0  0  0  0  0
    1.8846    4.7516   18.3361 I   0  0  0  0  0  0  0  0  0  0  0  0
    0.0773   10.0807   18.6583 O   0  0  0  0  0  0  0  0  0  0  0  0
    1.2446   10.8348   18.4773 C   0  0  0  0  0  0  0  0  0  0  0  0
  1  2  1  0
  2  3  1  0
  3  4  1  0
  4  5  1  0
  4  6  1  0
  3  7  1  0
  7  8  3  0
  3  9  1  0
  9 10  1  0
  9 11  1  0
  9 12  1  0
  2 13  1  0
  1 14  1  0
 14 15  1  0
 15 16  2  0
 16 17  1  0
 17 18  2  0
 18 19  1  0
 19 20  2  0
 20 21  1  0
 18 22  1  0
 22 23  1  0
  4  1  1  0
 20 15  1  0
 23 17  1  0
M  END
$$$$
VN06
     RDKit          3D

 23 25  0  0  0  0  0  0  0  0999 V2000
   -4.5957   14.6859    0.3890 C   0  0  0  0  0  0  0  0  0  0  0  0
   -5.2559   15.9253   -0.2275 C   0  0  0  0  0  0  0  0  0  0  0  0
   -4.1161   15.9765   -1.1980 C   0  0  0  0  0  0  0  0  0  0  0  0
   -3.8752   14.5069   -0.9297 C   0  0  0  0  0  0  0  0  0  0  0  0
   -2.5419   14.2069   -0.8360 F   0  0  0  0  0  0  0  0  0  0  0  0
   -4.5189   13.6346   -1.7595 F   0  0  0  0  0  0  0  0  0  0  0  0
   -2.9899   16.7536   -0.6773 C   0  0  0  0  0  0  0  0  0  0  0  0
   -2.1002   17.3733   -0.2436 N   0  0  0  0  0  0  0  0  0  0  0  0
   -4.4304   16.3508   -2.6033 C   0  0  0  0  0  0  0  0  0  0  0  0
   -5.1219   15.1827   -3.2816 C   0  0  0  0  0  0  0  0  0  0  0  0
   -3.2278   16.7163   -3.4239 C   0  0  0  0  0  0  0  0  0  0  0  0
   -5.4477   17.4882   -2.5619 C   0  0  0  0  0  0  0  0  0  0  0  0
   -5.2292   17.1902    0.7359 B   0  0  0  0  0  0  0  0  0  0  0  0
   -3.2402   15.1151    1.9482 I   0  0  0  0  0  3  0  0  0  0  0  0
   -3.5545   13.6973    3.4600 C   0  0  0  0  0  0  0  0  0  0  0  0
   -4.8109   13.4057    3.9264 C   0  0  0  0  0  0  0  0  0  0  0  0
   -5.0308   12.4742    4.9214 C   0  0  0  0  0  0  0  0  0  0  0  0
   -3.9487   11.8233    5.4554 C   0  0  0  0  0  0  0  0  0  0  0  0
   -2.6534   12.0961    5.0033 C   0  0  0  0  0  0  0  0  0  0  0  0
   -2.4723   13.0404    4.0001 C   0  0  0  0  0  0  0  0  0  0  0  0
   -0.8430   13.4297    3.3836 S   0  0  0  0  0  0  0  0  0  0  0  0
   -4.8167   11.1291    6.2888 O   0  0  0  0  0  0  0  0  0  0  0  0
   -5.9860   11.7331    5.8150 C   0  0  0  0  0  0  0  0  0  0  0  0
  1  2  1  0
  2  3  1  0
  3  4  1  0
  4  5  1  0
  4  6  1  0
  3  7  1  0
  7  8  3  0
  3  9  1  0
  9 10  1  0
  9 11  1  0
  9 12  1  0
  2 13  1  0
  1 14  1  0
 14 15  1  0
 15 16  2  0
 16 17  1  0
 17 18  2  0
 18 19  1  0
 19 20  2  0
 20 21  1  0
 18 22  1  0
 22 23  1  0
  4  1  1  0
 20 15  1  0
 23 17  1  0
M  END
$$$$
VN07
     RDKit          3D

 23 25  0  0  0  0  0  0  0  0999 V2000
    3.8386    6.9848   18.2588 C   0  0  0  0  0  0  0  0  0  0  0  0
    4.1414    5.5600   17.7913 C   0  0  0  0  0  0  0  0  0  0  0  0
    5.2097    6.0867   16.9456 C   0  0  0  0  0  0  0  0  0  0  0  0
    4.8766    7.5209   17.2952 C   0  0  0  0  0  0  0  0  0  0  0  0
    4.3292    8.2508   16.2311 F   0  0  0  0  0  0  0  0  0  0  0  0
    5.8803    8.2493   17.8610 F   0  0  0  0  0  0  0  0  0  0  0  0
    4.9180    5.8442   15.5131 C   0  0  0  0  0  0  0  0  0  0  0  0
    4.7093    5.6546   14.3884 N   0  0  0  0  0  0  0  0  0  0  0  0
    6.6370    5.7860   17.2030 C   0  0  0  0  0  0  0  0  0  0  0  0
    7.0381    4.3661   17.1592 C   0  0  0  0  0  0  0  0  0  0  0  0
    7.4908    6.5912   16.2371 C   0  0  0  0  0  0  0  0  0  0  0  0
    6.9584    6.3283   18.6039 C   0  0  0  0  0  0  0  0  0  0  0  0
    4.5893    4.3210   19.4206 I   0  0  0  0  0  0  0  0  0  0  0  0
    2.4080    7.5110   17.8705 B   0  0  0  0  0  0  0  0  0  0  0  0
    1.2787    7.7762   18.8877 C   0  0  0  0  0  0  0  0  0  0  0  0
    1.5293    8.3182   20.1234 C   0  0  0  0  0  0  0  0  0  0  0  0
    0.4724    8.5457   21.0251 C   0  0  0  0  0  0  0  0  0  0  0  0
   -0.8075    8.2353   20.6918 C   0  0  0  0  0  0  0  0  0  0  0  0
   -1.0686    7.6854   19.4402 C   0  0  0  0  0  0  0  0  0  0  0  0
   -0.0236    7.4658   18.5618 C   0  0  0  0  0  0  0  0  0  0  0  0
   -0.4413    6.7525   16.9643 S   0  0  0  0  0  0  0  0  0  0  0  0
   -1.2693    8.6671   21.8942 O   0  0  0  0  0  0  0  0  0  0  0  0
   -0.0065    9.0130   22.3193 C   0  0  0  0  0  0  0  0  0  0  0  0
  1  2  1  0
  2  3  1  0
  3  4  1  0
  4  5  1  0
  4  6  1  0
  3  7  1  0
  7  8  3  0
  3  9  1  0
  9 10  1  0
  9 11  1  0
  9 12  1  0
  2 13  1  0
  1 14  1  0
 14 15  1  0
 15 16  2  0
 16 17  1  0
 17 18  2  0
 18 19  1  0
 19 20  2  0
 20 21  1  0
 18 22  1  0
 22 23  1  0
  4  1  1  0
 20 15  1  0
 23 17  1  0
M  END
$$$$
VN08
     RDKit          3D

 23 25  0  0  0  0  0  0  0  0999 V2000
    2.3650    6.6463   18.4452 C   0  0  0  0  0  0  0  0  0  0  0  0
    3.0671    5.9109   17.3331 C   0  0  0  0  0  0  0  0  0  0  0  0
    4.3667    6.1274   18.0746 C   0  0  0  0  0  0  0  0  0  0  0  0
    3.6029    6.4918   19.2862 C   0  0  0  0  0  0  0  0  0  0  0  0
    3.9409    7.6848   19.8947 F   0  0  0  0  0  0  0  0  0  0  0  0
    3.4179    5.5194   20.2456 F   0  0  0  0  0  0  0  0  0  0  0  0
    5.0621    7.3160   17.5270 C   0  0  0  0  0  0  0  0  0  0  0  0
    5.6181    8.2479   17.1147 N   0  0  0  0  0  0  0  0  0  0  0  0
    5.2616    4.9270   18.1521 C   0  0  0  0  0  0  0  0  0  0  0  0
    4.5141    3.7123   18.6309 C   0  0  0  0  0  0  0  0  0  0  0  0
    6.4777    5.1220   18.9827 C   0  0  0  0  0  0  0  0  0  0  0  0
    5.7212    4.6296   16.7232 C   0  0  0  0  0  0  0  0  0  0  0  0
    3.0612    6.6595   15.9186 B   0  0  0  0  0  0  0  0  0  0  0  0
    1.9618    8.3283   17.9518 S   0  0  0  0  0  0  0  0  0  0  0  0
    0.2381    8.6460   17.8020 C   0  0  0  0  0  0  0  0  0  0  0  0
   -0.3784    8.8924   16.6169 C   0  0  0  0  0  0  0  0  0  0  0  0
   -1.7462    9.1567   16.5133 C   0  0  0  0  0  0  0  0  0  0  0  0
   -2.4696    9.1587   17.6849 C   0  0  0  0  0  0  0  0  0  0  0  0
   -1.8573    8.9114   18.8800 C   0  0  0  0  0  0  0  0  0  0  0  0
   -0.5240    8.6562   18.9610 C   0  0  0  0  0  0  0  0  0  0  0  0
    0.3461    8.2814   20.8507 I   0  0  0  0  0  0  0  0  0  0  0  0
   -3.6458    9.4512   17.0152 O   0  0  0  0  0  0  0  0  0  0  0  0
   -2.9722    9.4666   15.7721 C   0  0  0  0  0  0  0  0  0  0  0  0
  1  2  1  0
  2  3  1  0
  3  4  1  0
  4  5  1  0
  4  6  1  0
  3  7  1  0
  7  8  3  0
  3  9  1  0
  9 10  1  0
  9 11  1  0
  9 12  1  0
  2 13  1  0
  1 14  1  0
 14 15  1  0
 15 16  2  0
 16 17  1  0
 17 18  2  0
 18 19  1  0
 19 20  2  0
 20 21  1  0
 18 22  1  0
 22 23  1  0
  4  1  1  0
 20 15  1  0
 23 17  1  0
M  END
$$$$
VN09
     RDKit          3D

 21 23  0  0  0  0  0  0  0  0999 V2000
   -0.3658    6.7358   17.8578 I   0  0  0  0  0  0  0  0  0  0  0  0
    1.7433    6.7762   17.5686 C   0  0  0  0  0  0  0  0  0  0  0  0
    2.5113    6.4348   18.6256 C   0  0  0  0  0  0  0  0  0  0  0  0
    2.1484    6.1619   19.9416 N   0  0  0  0  0  0  0  0  0  0  0  0
    2.5609    5.9892   21.2909 C   0  0  2  0  0  0  0  0  0  0  0  0
    3.0665    4.3357   21.7808 S   0  0  0  0  0  0  0  0  0  0  0  0
    1.2893    6.3781   21.7704 O   0  0  0  0  0  0  0  0  0  0  0  0
    0.7445    5.7638   20.5527 B   0  0  0  0  0  0  0  0  0  0  0  0
    3.9629    6.3593   18.3787 C   0  0  0  0  0  0  0  0  0  0  0  0
    4.3456    6.6458   17.1110 C   0  0  0  0  0  0  0  0  0  0  0  0
    3.6166    7.0068   16.0432 C   0  0  0  0  0  0  0  0  0  0  0  0
    2.2444    7.0680   16.3004 C   0  0  0  0  0  0  0  0  0  0  0  0
    4.4993    7.3516   14.9143 C   0  0  0  0  0  0  0  0  0  0  0  0
    5.7217    6.5462   15.1837 C   0  0  0  0  0  0  0  0  0  0  0  0
    6.9350    7.3347   14.8348 C   0  0  0  0  0  0  0  0  0  0  0  0
    8.0050    8.0365   14.5489 N   0  0  0  0  0  0  0  0  0  0  0  0
    5.8152    5.3255   14.3128 C   0  0  0  0  0  0  0  0  0  0  0  0
    6.8201    4.2895   14.6319 C   0  0  0  0  0  0  0  0  0  0  0  0
    4.4434    4.5520   14.5528 C   0  0  0  0  0  0  0  0  0  0  0  0
    5.7695    5.6717   12.8708 C   0  0  0  0  0  0  0  0  0  0  0  0
    5.7718    6.3362   16.6242 C   0  0  0  0  0  0  0  0  0  0  0  0
  1  2  1  0
  2  3  2  0
  3  4  1  0
  4  5  1  0
  5  6  1  6
  5  7  1  0
  7  8  1  0
  3  9  1  0
  9 10  2  0
 10 11  1  0
 11 12  2  0
 11 13  1  0
 13 14  1  0
 14 15  1  0
 15 16  3  0
 14 17  1  0
 17 18  1  0
 17 19  1  0
 17 20  1  0
 14 21  1  0
 12  2  1  0
  8  4  1  0
 21 10  1  0
M  END
$$$$
VN10
     RDKit          3D

 23 25  0  0  0  0  0  0  0  0999 V2000
   -1.9295    9.8503   17.7162 C   0  0  0  0  0  0  0  0  0  0  0  0
   -3.3703    9.3957   17.9848 C   0  0  0  0  0  0  0  0  0  0  0  0
   -3.7299   10.6413   17.1415 C   0  0  0  0  0  0  0  0  0  0  0  0
   -2.5256   11.2687   17.7577 C   0  0  0  0  0  0  0  0  0  0  0  0
   -2.5596   11.6746   19.0455 F   0  0  0  0  0  0  0  0  0  0  0  0
   -1.8781   12.1292   16.9233 F   0  0  0  0  0  0  0  0  0  0  0  0
   -3.3998   10.2757   15.7382 C   0  0  0  0  0  0  0  0  0  0  0  0
   -3.1208    9.9878   14.6353 N   0  0  0  0  0  0  0  0  0  0  0  0
   -5.0692   11.1689   17.2435 C   0  0  0  0  0  0  0  0  0  0  0  0
   -5.4184   12.0415   18.3985 C   0  0  0  0  0  0  0  0  0  0  0  0
   -5.4140   11.8748   15.9284 C   0  0  0  0  0  0  0  0  0  0  0  0
   -6.0452    9.9793   17.3109 C   0  0  0  0  0  0  0  0  0  0  0  0
   -3.8096    9.6517   19.3429 N   0  0  0  0  0  0  0  0  0  0  0  0
   -0.8772    9.5106   18.8126 B   0  0  0  0  0  0  0  0  0  0  0  0
    0.4137    8.6645   18.5040 C   0  0  0  0  0  0  0  0  0  0  0  0
    0.5802    8.0953   17.2490 C   0  0  0  0  0  0  0  0  0  0  0  0
    1.7285    7.3453   16.9156 C   0  0  0  0  0  0  0  0  0  0  0  0
    2.6918    7.1826   17.8600 C   0  0  0  0  0  0  0  0  0  0  0  0
    2.5456    7.7322   19.0970 C   0  0  0  0  0  0  0  0  0  0  0  0
    1.4067    8.4793   19.4350 C   0  0  0  0  0  0  0  0  0  0  0  0
    1.2247    9.3092   21.3602 I   0  0  0  0  0  0  0  0  0  0  0  0
    3.4401    6.4284   16.9225 O   0  0  0  0  0  0  0  0  0  0  0  0
    2.4936    6.5718   15.9485 C   0  0  0  0  0  0  0  0  0  0  0  0
  1  2  1  0
  2  3  1  0
  3  4  1  0
  4  5  1  0
  4  6  1  0
  3  7  1  0
  7  8  3  0
  3  9  1  0
  9 10  1  0
  9 11  1  0
  9 12  1  0
  2 13  1  0
  1 14  1  0
 14 15  1  0
 15 16  2  0
 16 17  1  0
 17 18  2  0
 18 19  1  0
 19 20  2  0
 20 21  1  0
 18 22  1  0
 22 23  1  0
  4  1  1  0
 20 15  1  0
 23 17  1  0
M  END
$$$$
